
 Created by Python create_sdf_string function

 28  0  0  0  0  0  0  0  0  0999 V2000
    0.0000    0.0000    0.0000 C   0  0  0  0  0  0  0  0  0  0  0  0
    1.7297    0.5871   -1.5697 C   0  0  0  0  0  0  0  0  0  0  0  0
   -1.7233    1.6887   -0.0564 C   0  0  0  0  0  0  0  0  0  0  0  0
   -1.4019   -1.9884   -0.0022 C   0  0  0  0  0  0  0  0  0  0  0  0
    1.6444   -0.6278   -0.7591 C   0  0  0  0  0  0  0  0  0  0  0  0
    1.0269    0.5927    1.3195 C   0  0  0  0  0  0  0  0  0  0  0  0
   -1.0316   -0.0287    1.7476 C   0  0  0  0  0  0  0  0  0  0  0  0
   -0.5676    1.4272   -0.1195 C   0  0  0  0  0  0  0  0  0  0  0  0
   -2.0110   -1.6676   -1.3213 C   0  0  0  0  0  0  0  0  0  0  0  0
   -0.4096    0.8212    0.6076 C   0  0  0  0  0  0  0  0  0  0  0  0
   -0.9467   -0.7319   -2.0202 C   0  0  0  0  0  0  0  0  0  0  0  0
    2.5679   -0.4839    0.0586 C   0  0  0  0  0  0  0  0  0  0  0  0
    1.4656    1.1750    0.8708 C   0  0  0  0  0  0  0  0  0  0  0  0
    0.8734   -1.5961    0.0554 C   0  0  0  0  0  0  0  0  0  0  0  0
   -0.6758    1.6769    0.6826 C   0  0  0  0  0  0  0  0  0  0  0  0
    0.0439   -0.6986   -0.9647 C   0  0  0  0  0  0  0  0  0  0  0  0
    0.2224    0.1566    1.0799 C   0  0  0  0  0  0  0  0  0  0  0  0
    0.3598   -1.0344    1.6728 C   0  0  0  0  0  0  0  0  0  0  0  0
   -1.1786    0.2520   -0.2590 C   0  0  0  0  0  0  0  0  0  0  0  0
    0.4415   -0.9777    1.3717 C   0  0  0  0  0  0  0  0  0  0  0  0
   -0.6966    0.1976   -1.7330 C   0  0  0  0  0  0  0  0  0  0  0  0
   -0.4106    1.4413    1.7213 C   0  0  0  0  0  0  0  0  0  0  0  0
    1.5303    0.2474    0.7283 C   0  0  0  0  0  0  0  0  0  0  0  0
    0.5974   -1.4157    0.8052 C   0  0  0  0  0  0  0  0  0  0  0  0
   -0.3918   -2.0977    1.1766 C   0  0  0  0  0  0  0  0  0  0  0  0
    0.1581   -0.7728   -1.6134 C   0  0  0  0  0  0  0  0  0  0  0  0
    2.2606   -0.0889    1.1543 C   0  0  0  0  0  0  0  0  0  0  0  0
   -2.1664   -0.8539   -0.2682 C   0  0  0  0  0  0  0  0  0  0  0  0
M  END
$$$$

 Created by Python create_sdf_string function

 28 16  0  0  0  0  0  0  0  0999 V2000
    2.1357   -6.7263   22.9789 Cl  0  0  0  0  0  0  0  0  0  0  0  0
    2.3986   -6.6590   23.2046 N   0  0  0  0  0  0  0  0  0  0  0  0
    2.6434   -7.7758   22.8765 O   0  0  0  0  0  0  0  0  0  0  0  0
    2.9424   -8.5412   22.2647 S   0  0  0  0  0  0  0  0  0  0  0  0
    2.8842   -9.6759   23.5044 O   0  0  0  0  0  0  0  0  0  0  0  0
    4.5401  -10.1575   22.7898 C   0  0  0  0  0  0  0  0  0  0  0  0
    3.1684   -7.7669   22.1798 C   0  0  0  0  0  0  0  0  0  0  0  0
    4.8371   -7.4834   23.3207 O   0  0  0  0  0  0  0  0  0  0  0  0
    5.3108   -8.8019   20.7758 C   0  0  0  0  0  0  0  0  0  0  0  0
    4.1616   -8.9400   23.0981 F   0  0  0  0  0  0  0  0  0  0  0  0
    4.4353   -7.6907   24.2278 He  0  0  0  0  0  0  0  0  0  0  0  0
    2.7487   -9.6116   22.5749 He  0  0  0  0  0  0  0  0  0  0  0  0
    3.8139   -8.0425   22.4661 He  0  0  0  0  0  0  0  0  0  0  0  0
    3.6797   -7.0932   22.2577 He  0  0  0  0  0  0  0  0  0  0  0  0
    2.2383   -7.7859   22.3486 He  0  0  0  0  0  0  0  0  0  0  0  0
    5.3193   -8.3338   23.2553 He  0  0  0  0  0  0  0  0  0  0  0  0
    3.7468   -9.6985   23.7814 He  0  0  0  0  0  0  0  0  0  0  0  0
    3.4711   -6.5795   22.0592 He  0  0  0  0  0  0  0  0  0  0  0  0
    5.1019   -9.4214   22.2340 He  0  0  0  0  0  0  0  0  0  0  0  0
    3.1192   -8.1649   22.9534 He  0  0  0  0  0  0  0  0  0  0  0  0
    3.2174   -7.2324   22.8610 He  0  0  0  0  0  0  0  0  0  0  0  0
    2.7582   -8.6645   22.9312 He  0  0  0  0  0  0  0  0  0  0  0  0
    2.5257   -6.9843   23.7754 He  0  0  0  0  0  0  0  0  0  0  0  0
    2.9910   -8.8708   22.7220 He  0  0  0  0  0  0  0  0  0  0  0  0
    5.4030   -7.7058   23.2372 He  0  0  0  0  0  0  0  0  0  0  0  0
    3.2049   -9.5342   22.9385 He  0  0  0  0  0  0  0  0  0  0  0  0
    4.4488   -8.0634   25.0640 He  0  0  0  0  0  0  0  0  0  0  0  0
    4.1259   -7.8037   23.8097 He  0  0  0  0  0  0  0  0  0  0  0  0
  1  2  3  0
  1  7  3  0
  1  8  1  0
  1  9  2  0
  1 10  2  0
  2  4  2  0
  2  9  1  0
  3  4  3  0
  3  6  3  0
  4  5  1  0
  4  9  2  0
  5  7  1  0
  6  7  1  0
  6  9  2  0
  6 10  2  0
  7  9  2  0
M  END
$$$$

 Created by Python create_sdf_string function

 28  0  0  0  0  0  0  0  0  0999 V2000
    4.6678   -7.3017   25.5874 C   0  0  0  0  0  0  0  0  0  0  0  0
    1.1335   -6.4878   23.4443 C   0  0  0  0  0  0  0  0  0  0  0  0
    1.7772   -9.6711   21.8248 C   0  0  0  0  0  0  0  0  0  0  0  0
    4.4340   -8.1191   21.6610 C   0  0  0  0  0  0  0  0  0  0  0  0
    3.7676   -6.9996   21.8547 C   0  0  0  0  0  0  0  0  0  0  0  0
    1.1680   -7.8884   22.1145 C   0  0  0  0  0  0  0  0  0  0  0  0
    1.7680   -6.4967   24.0474 C   0  0  0  0  0  0  0  0  0  0  0  0
    1.6853   -7.4613   23.3584 C   0  0  0  0  0  0  0  0  0  0  0  0
    5.8265   -8.1883   23.2278 C   0  0  0  0  0  0  0  0  0  0  0  0
    3.2779   -9.3343   24.4900 C   0  0  0  0  0  0  0  0  0  0  0  0
    2.9998   -6.4351   21.9807 C   0  0  0  0  0  0  0  0  0  0  0  0
    5.6503   -8.8470   21.2910 C   0  0  0  0  0  0  0  0  0  0  0  0
    2.3439   -8.8913   21.6069 C   0  0  0  0  0  0  0  0  0  0  0  0
    1.9242   -9.5223   24.0817 C   0  0  0  0  0  0  0  0  0  0  0  0
    2.3992   -7.9640   23.4806 C   0  0  0  0  0  0  0  0  0  0  0  0
    2.7225   -6.7448   23.5680 C   0  0  0  0  0  0  0  0  0  0  0  0
    1.8166   -8.7132   23.1064 C   0  0  0  0  0  0  0  0  0  0  0  0
    2.2089   -6.6302   24.9686 C   0  0  0  0  0  0  0  0  0  0  0  0
    4.9404   -9.4253   21.8530 C   0  0  0  0  0  0  0  0  0  0  0  0
    3.1002   -7.5554   21.6151 C   0  0  0  0  0  0  0  0  0  0  0  0
    5.1716   -7.4054   24.5473 C   0  0  0  0  0  0  0  0  0  0  0  0
    5.3288   -8.5756   20.3962 C   0  0  0  0  0  0  0  0  0  0  0  0
    2.0764   -9.1242   22.2463 C   0  0  0  0  0  0  0  0  0  0  0  0
    5.6763   -7.7604   23.8479 C   0  0  0  0  0  0  0  0  0  0  0  0
    2.2974   -9.3897   22.7239 C   0  0  0  0  0  0  0  0  0  0  0  0
    4.9040   -8.5155   23.1025 C   0  0  0  0  0  0  0  0  0  0  0  0
    4.4024   -7.6452   26.0859 C   0  0  0  0  0  0  0  0  0  0  0  0
    4.3698   -7.3833   25.3386 C   0  0  0  0  0  0  0  0  0  0  0  0
M  END
$$$$

 Created by Python create_sdf_string function

 28 60  0  0  0  0  0  0  0  0999 V2000
    5.0930   -5.4083   26.5942 S   0  0  0  0  0  0  0  0  0  0  0  0
    2.5501  -10.1245   21.2662 Cl  0  0  0  0  0  0  0  0  0  0  0  0
    4.4541   -7.9927   23.9918 C   0  0  0  0  0  0  0  0  0  0  0  0
    2.4132   -8.1233   22.9191 Br  0  0  0  0  0  0  0  0  0  0  0  0
    1.8247   -8.6257   22.1593 N   0  0  0  0  0  0  0  0  0  0  0  0
    0.9931   -9.8604   22.2716 S   0  0  0  0  0  0  0  0  0  0  0  0
    4.4838   -9.7969   24.9568 F   0  0  0  0  0  0  0  0  0  0  0  0
    2.2323   -9.0861   22.0617 F   0  0  0  0  0  0  0  0  0  0  0  0
    3.4395   -8.7141   23.5785 C   0  0  0  0  0  0  0  0  0  0  0  0
    0.6842   -7.3826   24.0530 C   0  0  0  0  0  0  0  0  0  0  0  0
    2.3438   -6.4685   24.4779 O   0  0  0  0  0  0  0  0  0  0  0  0
    4.8963  -10.1133   20.7495 F   0  0  0  0  0  0  0  0  0  0  0  0
    1.6510   -7.6487   20.2084 F   0  0  0  0  0  0  0  0  0  0  0  0
    5.3463   -8.3117   24.0661 F   0  0  0  0  0  0  0  0  0  0  0  0
    5.0365   -8.6312   21.4313 C   0  0  0  0  0  0  0  0  0  0  0  0
    7.7547   -8.6127   22.1288 C   0  0  0  0  0  0  0  0  0  0  0  0
    2.7067   -8.0316   24.4357 N   0  0  0  0  0  0  0  0  0  0  0  0
    4.6580   -6.9844   27.0546 N   0  0  0  0  0  0  0  0  0  0  0  0
    5.4531   -6.6183   26.5564 P   0  0  0  0  0  0  0  0  0  0  0  0
    1.6025   -7.9081   21.9746 He  0  0  0  0  0  0  0  0  0  0  0  0
    1.5351   -8.0285   24.2979 He  0  0  0  0  0  0  0  0  0  0  0  0
    5.1884   -8.0268   23.0294 He  0  0  0  0  0  0  0  0  0  0  0  0
    3.7030   -5.8727   22.1509 He  0  0  0  0  0  0  0  0  0  0  0  0
    6.3378   -8.9754   20.0163 He  0  0  0  0  0  0  0  0  0  0  0  0
    1.9692   -8.9441   23.9058 He  0  0  0  0  0  0  0  0  0  0  0  0
    1.8099   -5.8362   23.3815 He  0  0  0  0  0  0  0  0  0  0  0  0
    2.5323   -9.5613   21.8824 He  0  0  0  0  0  0  0  0  0  0  0  0
    4.6305   -8.1972   23.6463 He  0  0  0  0  0  0  0  0  0  0  0  0
  1  6  2  0
  1 13  2  0
  1 14  4  0
  1 15  1  0
  1 18  2  0
  1 19  4  0
  2  7  2  0
  2 10  2  0
  2 15  4  0
  2 16  3  0
  2 17  4  0
  3  5  4  0
  3 11  4  0
  3 14  2  0
  3 17  3  0
  4  6  4  0
  4  7  4  0
  4  9  3  0
  4 10  1  0
  4 13  3  0
  4 16  4  0
  4 17  4  0
  5  9  2  0
  5 12  4  0
  5 13  3  0
  5 14  3  0
  5 15  1  0
  5 18  1  0
  6  7  2  0
  6  8  3  0
  6 10  2  0
  6 14  1  0
  6 15  2  0
  6 17  4  0
  8  9  3  0
  8 11  3  0
  8 12  1  0
  8 16  1  0
  8 17  3  0
  8 18  2  0
  8 19  2  0
  9 16  3  0
 10 16  4  0
 10 18  1  0
 10 19  1  0
 11 15  4  0
 11 16  2  0
 11 18  2  0
 11 19  2  0
 12 14  2  0
 12 15  4  0
 13 17  1  0
 13 19  1  0
 14 17  4  0
 14 18  3  0
 15 19  1  0
 16 17  4  0
 16 19  4  0
 17 19  1  0
 18 19  2  0
M  END
$$$$

 Created by Python create_sdf_string function

 28  1  0  0  0  0  0  0  0  0999 V2000
    5.0131   -6.0037   27.0831 C   0  0  0  0  0  0  0  0  0  0  0  0
    1.2357   -8.4389   21.8300 C   0  0  0  0  0  0  0  0  0  0  0  0
    2.2550   -9.7376   20.3881 C   0  0  0  0  0  0  0  0  0  0  0  0
    4.6787   -7.7197   24.9367 C   0  0  0  0  0  0  0  0  0  0  0  0
    2.0802   -8.2752   23.1985 C   0  0  0  0  0  0  0  0  0  0  0  0
    1.5386   -8.8965   21.8490 C   0  0  0  0  0  0  0  0  0  0  0  0
    1.6042   -7.6309   25.4800 C   0  0  0  0  0  0  0  0  0  0  0  0
    1.0340   -9.4758   21.6428 C   0  0  0  0  0  0  0  0  0  0  0  0
    5.3817   -8.2326   22.6208 C   0  0  0  0  0  0  0  0  0  0  0  0
    4.4336   -8.5061   25.8651 C   0  0  0  0  0  0  0  0  0  0  0  0
    4.2578   -7.3431   22.5105 C   0  0  0  0  0  0  0  0  0  0  0  0
    5.8185   -8.8050   20.0992 C   0  0  0  0  0  0  0  0  0  0  0  0
    1.8837   -9.3076   21.3897 C   0  0  0  0  0  0  0  0  0  0  0  0
    1.6750   -8.5872   24.6633 C   0  0  0  0  0  0  0  0  0  0  0  0
    3.5554   -8.2280   24.1869 C   0  0  0  0  0  0  0  0  0  0  0  0
    1.7135   -6.5597   24.8433 C   0  0  0  0  0  0  0  0  0  0  0  0
    1.0412   -7.0710   25.0536 C   0  0  0  0  0  0  0  0  0  0  0  0
    2.2372   -6.3329   25.8004 C   0  0  0  0  0  0  0  0  0  0  0  0
    4.5534   -9.1466   20.3972 C   0  0  0  0  0  0  0  0  0  0  0  0
    1.4219   -8.7213   20.4616 C   0  0  0  0  0  0  0  0  0  0  0  0
    5.3850   -7.9265   24.6294 C   0  0  0  0  0  0  0  0  0  0  0  0
    5.1825   -8.7258   20.9402 C   0  0  0  0  0  0  0  0  0  0  0  0
    2.2348   -9.4745   20.9768 C   0  0  0  0  0  0  0  0  0  0  0  0
    6.5020   -8.6166   21.3997 C   0  0  0  0  0  0  0  0  0  0  0  0
    2.7190   -7.6704   25.4857 C   0  0  0  0  0  0  0  0  0  0  0  0
    5.0706   -8.0314   24.0599 C   0  0  0  0  0  0  0  0  0  0  0  0
    4.6537   -6.6699   27.1214 C   0  0  0  0  0  0  0  0  0  0  0  0
    5.3072   -6.5298   26.9678 C   0  0  0  0  0  0  0  0  0  0  0  0
  1 28  1  0
M  END
$$$$

 Created by Python create_sdf_string function

 28110  0  0  0  0  0  0  0  0999 V2000
    7.2289   -6.4243   27.5204 O   0  0  0  0  0  0  0  0  0  0  0  0
    2.7536   -8.7512   24.2699 P   0  0  0  0  0  0  0  0  0  0  0  0
    5.6982   -8.8340   25.4753 C   0  0  0  0  0  0  0  0  0  0  0  0
    3.4679   -7.5263   23.5575 F   0  0  0  0  0  0  0  0  0  0  0  0
    0.8004   -8.3816   21.5461 Cl  0  0  0  0  0  0  0  0  0  0  0  0
    3.1289   -7.2630   23.5725 C   0  0  0  0  0  0  0  0  0  0  0  0
    1.1385  -10.5324   22.2917 N   0  0  0  0  0  0  0  0  0  0  0  0
    5.6879   -9.1239   23.0539 C   0  0  0  0  0  0  0  0  0  0  0  0
    5.5662   -9.0680   24.6313 C   0  0  0  0  0  0  0  0  0  0  0  0
    5.5051   -8.8112   20.9930 Br  0  0  0  0  0  0  0  0  0  0  0  0
    2.5925   -7.0317   25.8360 F   0  0  0  0  0  0  0  0  0  0  0  0
    0.8897   -7.3379   24.8631 N   0  0  0  0  0  0  0  0  0  0  0  0
    2.5034   -6.6426   26.9717 P   0  0  0  0  0  0  0  0  0  0  0  0
    4.1098   -8.5615   19.3024 F   0  0  0  0  0  0  0  0  0  0  0  0
    2.8066   -8.9829   20.8795 F   0  0  0  0  0  0  0  0  0  0  0  0
    6.9302   -8.0885   24.2741 P   0  0  0  0  0  0  0  0  0  0  0  0
    5.5820   -9.5877   20.7373 C   0  0  0  0  0  0  0  0  0  0  0  0
    1.3365   -7.5351   20.7930 S   0  0  0  0  0  0  0  0  0  0  0  0
    6.2340   -6.4486   21.1992 F   0  0  0  0  0  0  0  0  0  0  0  0
    2.7692   -6.8041   26.0287 C   0  0  0  0  0  0  0  0  0  0  0  0
    4.0586   -9.3867   24.7240 N   0  0  0  0  0  0  0  0  0  0  0  0
    5.6637   -5.9505   28.0421 C   0  0  0  0  0  0  0  0  0  0  0  0
    6.5766   -7.2066   28.7528 F   0  0  0  0  0  0  0  0  0  0  0  0
    2.9782  -10.5481   20.3200 He  0  0  0  0  0  0  0  0  0  0  0  0
    4.3860   -6.9992   23.2173 He  0  0  0  0  0  0  0  0  0  0  0  0
    3.7656   -9.3261   19.4309 He  0  0  0  0  0  0  0  0  0  0  0  0
    1.9338   -7.9252   25.5269 He  0  0  0  0  0  0  0  0  0  0  0  0
    4.0137   -8.4123   24.9177 He  0  0  0  0  0  0  0  0  0  0  0  0
  1  3  2  0
  1  4  3  0
  1  7  4  0
  1 10  3  0
  1 11  4  0
  1 12  3  0
  1 13  3  0
  1 14  4  0
  1 16  1  0
  1 20  1  0
  1 22  4  0
  1 23  2  0
  2  3  4  0
  2  7  1  0
  2 12  3  0
  2 13  1  0
  2 14  2  0
  2 18  2  0
  2 19  3  0
  2 21  3  0
  3  4  2  0
  3  5  2  0
  3 10  4  0
  3 13  1  0
  3 14  4  0
  3 16  1  0
  3 17  3  0
  3 23  2  0
  4 13  3  0
  4 15  1  0
  4 17  2  0
  4 18  3  0
  4 21  2  0
  4 22  4  0
  5  6  4  0
  5  7  2  0
  5 10  4  0
  5 15  2  0
  5 19  3  0
  6  7  3  0
  6 11  4  0
  6 16  4  0
  6 22  4  0
  7  8  3  0
  7  9  3  0
  7 13  3  0
  7 14  1  0
  7 15  2  0
  7 16  2  0
  7 17  4  0
  7 18  1  0
  7 19  4  0
  7 21  1  0
  7 22  3  0
  8 13  3  0
  8 14  3  0
  8 17  3  0
  8 18  3  0
  8 19  2  0
  8 20  4  0
  8 22  4  0
  8 23  2  0
  9 14  4  0
  9 17  4  0
  9 18  3  0
  9 19  2  0
  9 22  1  0
 10 11  4  0
 10 13  3  0
 10 14  1  0
 10 15  2  0
 10 16  1  0
 10 20  2  0
 10 22  3  0
 10 23  1  0
 11 12  3  0
 11 14  2  0
 11 15  3  0
 11 18  1  0
 11 19  3  0
 12 13  3  0
 12 14  4  0
 12 15  2  0
 12 16  1  0
 12 17  3  0
 12 19  3  0
 12 21  2  0
 13 19  4  0
 13 20  3  0
 13 21  3  0
 14 15  1  0
 14 20  4  0
 14 21  4  0
 15 18  4  0
 15 19  3  0
 15 20  2  0
 15 21  4  0
 15 22  4  0
 15 23  1  0
 16 17  3  0
 16 21  4  0
 16 22  2  0
 17 19  4  0
 18 19  1  0
 18 21  4  0
 18 22  2  0
 19 20  1  0
 19 21  1  0
 20 21  4  0
 21 23  2  0
M  END
$$$$

 Created by Python create_sdf_string function

 28  0  0  0  0  0  0  0  0  0999 V2000
    6.7942   -6.7669   27.5193 C   0  0  0  0  0  0  0  0  0  0  0  0
    2.3089   -8.4005   24.6014 C   0  0  0  0  0  0  0  0  0  0  0  0
    2.4639   -9.6724   19.9416 C   0  0  0  0  0  0  0  0  0  0  0  0
    5.8436   -7.9560   26.3651 C   0  0  0  0  0  0  0  0  0  0  0  0
    3.5896   -7.7564   23.8891 C   0  0  0  0  0  0  0  0  0  0  0  0
    1.2925   -8.9873   21.5838 C   0  0  0  0  0  0  0  0  0  0  0  0
    3.2079   -7.6565   24.0816 C   0  0  0  0  0  0  0  0  0  0  0  0
    1.5494   -9.3853   21.7116 C   0  0  0  0  0  0  0  0  0  0  0  0
    5.4694   -8.3362   22.5276 C   0  0  0  0  0  0  0  0  0  0  0  0
    5.5635   -8.1250   25.3067 C   0  0  0  0  0  0  0  0  0  0  0  0
    4.6103   -7.7280   23.4990 C   0  0  0  0  0  0  0  0  0  0  0  0
    5.1213   -8.7326   20.5557 C   0  0  0  0  0  0  0  0  0  0  0  0
    3.6404   -9.3955   19.3930 C   0  0  0  0  0  0  0  0  0  0  0  0
    2.0388   -7.7527   26.2197 C   0  0  0  0  0  0  0  0  0  0  0  0
    4.0907   -7.7861   25.6534 C   0  0  0  0  0  0  0  0  0  0  0  0
    2.4752   -6.7569   26.5120 C   0  0  0  0  0  0  0  0  0  0  0  0
    1.2165   -6.9521   26.0620 C   0  0  0  0  0  0  0  0  0  0  0  0
    2.6428   -6.5289   27.3129 C   0  0  0  0  0  0  0  0  0  0  0  0
    4.0835   -9.2147   19.3470 C   0  0  0  0  0  0  0  0  0  0  0  0
    2.7427   -9.2105   20.6930 C   0  0  0  0  0  0  0  0  0  0  0  0
    6.2989   -7.8655   25.4148 C   0  0  0  0  0  0  0  0  0  0  0  0
    5.0234   -8.8604   20.3103 C   0  0  0  0  0  0  0  0  0  0  0  0
    1.6150   -8.8452   21.0621 C   0  0  0  0  0  0  0  0  0  0  0  0
    5.6554   -8.3556   21.0437 C   0  0  0  0  0  0  0  0  0  0  0  0
    2.7266   -6.6530   26.7414 C   0  0  0  0  0  0  0  0  0  0  0  0
    3.9273   -8.3170   25.2418 C   0  0  0  0  0  0  0  0  0  0  0  0
    5.7790   -6.5113   27.7736 C   0  0  0  0  0  0  0  0  0  0  0  0
    6.6229   -7.1508   27.9732 C   0  0  0  0  0  0  0  0  0  0  0  0
M  END
$$$$

 Created by Python create_sdf_string function

 28 36  0  0  0  0  0  0  0  0999 V2000
    7.1942   -6.6803   29.3105 Br  0  0  0  0  0  0  0  0  0  0  0  0
    1.9583   -8.3259   23.8244 N   0  0  0  0  0  0  0  0  0  0  0  0
    5.2358   -7.4843   26.5921 C   0  0  0  0  0  0  0  0  0  0  0  0
    1.5737   -7.8705   21.4916 C   0  0  0  0  0  0  0  0  0  0  0  0
    3.8953   -7.7523   23.6609 O   0  0  0  0  0  0  0  0  0  0  0  0
    6.2126   -8.3876   20.1838 N   0  0  0  0  0  0  0  0  0  0  0  0
    4.4935   -7.2856   26.4042 O   0  0  0  0  0  0  0  0  0  0  0  0
    3.3790   -7.4341   27.0316 Cl  0  0  0  0  0  0  0  0  0  0  0  0
    5.7363   -8.9742   26.1357 I   0  0  0  0  0  0  0  0  0  0  0  0
    3.7857   -9.1959   22.0703 P   0  0  0  0  0  0  0  0  0  0  0  0
    2.3002   -9.5606   20.3503 C   0  0  0  0  0  0  0  0  0  0  0  0
    4.0992   -8.6107   25.8866 P   0  0  0  0  0  0  0  0  0  0  0  0
    7.0795   -7.1765   27.9247 N   0  0  0  0  0  0  0  0  0  0  0  0
    1.6973  -10.3870   18.5086 He  0  0  0  0  0  0  0  0  0  0  0  0
    3.5572   -6.7456   24.4756 He  0  0  0  0  0  0  0  0  0  0  0  0
    4.9784   -6.2831   24.0730 He  0  0  0  0  0  0  0  0  0  0  0  0
    4.8020   -8.0278   24.1479 He  0  0  0  0  0  0  0  0  0  0  0  0
    6.1223   -8.0625   25.1303 He  0  0  0  0  0  0  0  0  0  0  0  0
    3.5763   -8.6333   22.0709 He  0  0  0  0  0  0  0  0  0  0  0  0
    2.8895   -9.3146   19.9847 He  0  0  0  0  0  0  0  0  0  0  0  0
    0.5064   -7.6555   26.5817 He  0  0  0  0  0  0  0  0  0  0  0  0
    1.9097   -6.3737   25.7423 He  0  0  0  0  0  0  0  0  0  0  0  0
    0.6268   -6.8709   29.4317 He  0  0  0  0  0  0  0  0  0  0  0  0
    5.2634   -9.1455   19.0219 He  0  0  0  0  0  0  0  0  0  0  0  0
    2.9216  -10.8601   23.0871 He  0  0  0  0  0  0  0  0  0  0  0  0
    4.3334   -6.8699   21.9366 He  0  0  0  0  0  0  0  0  0  0  0  0
    0.2185   -7.4049   27.1596 He  0  0  0  0  0  0  0  0  0  0  0  0
    6.3106   -7.5250   28.2557 He  0  0  0  0  0  0  0  0  0  0  0  0
  1  2  3  0
  1  4  3  0
  1  9  4  0
  1 11  3  0
  1 12  3  0
  2  4  1  0
  2  6  2  0
  2  7  2  0
  2  8  2  0
  2 12  2  0
  3  5  1  0
  3  6  2  0
  3  7  2  0
  3  9  4  0
  3 12  1  0
  4  5  2  0
  4  6  4  0
  4  7  1  0
  4  8  1  0
  4 12  1  0
  5  6  1  0
  5  7  1  0
  5  8  3  0
  5 10  2  0
  6  7  4  0
  6  8  2  0
  6 10  1  0
  6 11  2  0
  7  8  4  0
  7 12  3  0
  7 13  4  0
  8  9  2  0
  9 12  4  0
  9 13  4  0
 10 11  2  0
 10 12  1  0
M  END
$$$$

 Created by Python create_sdf_string function

 28  1  0  0  0  0  0  0  0  0999 V2000
    7.2426   -7.1360   28.6750 C   0  0  0  0  0  0  0  0  0  0  0  0
    2.0920   -8.4706   24.9696 C   0  0  0  0  0  0  0  0  0  0  0  0
    2.0978  -10.2549   18.7410 C   0  0  0  0  0  0  0  0  0  0  0  0
    5.5080   -7.3884   27.1711 C   0  0  0  0  0  0  0  0  0  0  0  0
    3.2623   -7.0344   25.5458 C   0  0  0  0  0  0  0  0  0  0  0  0
    2.4152   -9.3130   21.3953 C   0  0  0  0  0  0  0  0  0  0  0  0
    5.0787   -7.0565   25.0634 C   0  0  0  0  0  0  0  0  0  0  0  0
    4.1346   -7.7049   24.1760 C   0  0  0  0  0  0  0  0  0  0  0  0
    5.1424   -8.8342   20.0342 C   0  0  0  0  0  0  0  0  0  0  0  0
    4.7915   -7.8261   24.5624 C   0  0  0  0  0  0  0  0  0  0  0  0
    5.8933   -7.7443   26.1122 C   0  0  0  0  0  0  0  0  0  0  0  0
    3.7329   -8.9397   21.6225 C   0  0  0  0  0  0  0  0  0  0  0  0
    3.0541   -9.8038   19.5074 C   0  0  0  0  0  0  0  0  0  0  0  0
    1.0429   -7.1985   27.2452 C   0  0  0  0  0  0  0  0  0  0  0  0
    4.5468   -7.1107   27.0504 C   0  0  0  0  0  0  0  0  0  0  0  0
    1.8559   -6.4826   26.6224 C   0  0  0  0  0  0  0  0  0  0  0  0
    2.9015   -7.1588   27.4318 C   0  0  0  0  0  0  0  0  0  0  0  0
    0.9883   -7.0050   28.5289 C   0  0  0  0  0  0  0  0  0  0  0  0
    4.5856   -9.3102   19.0563 C   0  0  0  0  0  0  0  0  0  0  0  0
    2.5030   -9.3435   22.3747 C   0  0  0  0  0  0  0  0  0  0  0  0
    5.7560   -8.1354   26.8631 C   0  0  0  0  0  0  0  0  0  0  0  0
    3.7139   -9.0260   21.3848 C   0  0  0  0  0  0  0  0  0  0  0  0
    2.5903   -9.8566   20.0120 C   0  0  0  0  0  0  0  0  0  0  0  0
    4.7257   -8.3148   21.8027 C   0  0  0  0  0  0  0  0  0  0  0  0
    0.7778   -6.9395   27.5694 C   0  0  0  0  0  0  0  0  0  0  0  0
    3.9345   -8.0596   26.3891 C   0  0  0  0  0  0  0  0  0  0  0  0
    6.6759   -7.4713   28.2651 C   0  0  0  0  0  0  0  0  0  0  0  0
    7.2429   -7.3474   28.0213 C   0  0  0  0  0  0  0  0  0  0  0  0
 14 25  1  0
M  END
$$$$

 Created by Python create_sdf_string function

 28 45  0  0  0  0  0  0  0  0999 V2000
    4.4717   -5.9886   26.6213 O   0  0  0  0  0  0  0  0  0  0  0  0
    2.0655   -8.7469   25.0088 N   0  0  0  0  0  0  0  0  0  0  0  0
    2.8811  -10.1244   20.3624 N   0  0  0  0  0  0  0  0  0  0  0  0
    4.8168   -7.8244   26.8324 F   0  0  0  0  0  0  0  0  0  0  0  0
    3.4353   -6.5101   23.6258 F   0  0  0  0  0  0  0  0  0  0  0  0
    4.6047   -7.8489   25.1029 F   0  0  0  0  0  0  0  0  0  0  0  0
    2.7967   -9.5690   18.5571 B   0  0  0  0  0  0  0  0  0  0  0  0
    3.9712   -7.5616   27.0654 O   0  0  0  0  0  0  0  0  0  0  0  0
    2.5608   -6.9713   26.3591 C   0  0  0  0  0  0  0  0  0  0  0  0
    7.8142  -10.2388   19.2171 O   0  0  0  0  0  0  0  0  0  0  0  0
    5.8630   -7.9928   23.2362 N   0  0  0  0  0  0  0  0  0  0  0  0
    5.6100   -8.5370   20.9387 C   0  0  0  0  0  0  0  0  0  0  0  0
   -0.2772   -6.0394   28.7935 B   0  0  0  0  0  0  0  0  0  0  0  0
    4.9070   -7.6964   26.8132 N   0  0  0  0  0  0  0  0  0  0  0  0
    7.4456   -5.9520   28.7877 O   0  0  0  0  0  0  0  0  0  0  0  0
    6.7139   -7.8127   29.1523 F   0  0  0  0  0  0  0  0  0  0  0  0
    7.1656   -7.5433   28.1651 He  0  0  0  0  0  0  0  0  0  0  0  0
    2.3818   -9.1792   24.6561 He  0  0  0  0  0  0  0  0  0  0  0  0
    2.1084  -10.7301   18.2581 He  0  0  0  0  0  0  0  0  0  0  0  0
    5.2715   -8.7248   19.1648 He  0  0  0  0  0  0  0  0  0  0  0  0
    4.0841   -6.2758   24.9950 He  0  0  0  0  0  0  0  0  0  0  0  0
    2.4422  -10.8559   20.3784 He  0  0  0  0  0  0  0  0  0  0  0  0
    1.2359   -8.5854   26.6999 He  0  0  0  0  0  0  0  0  0  0  0  0
    3.3097   -7.5094   27.0478 He  0  0  0  0  0  0  0  0  0  0  0  0
    0.3199   -7.3968   29.1662 He  0  0  0  0  0  0  0  0  0  0  0  0
    2.1346   -8.6973   21.1446 He  0  0  0  0  0  0  0  0  0  0  0  0
    6.5022   -8.8848   28.4280 He  0  0  0  0  0  0  0  0  0  0  0  0
    1.4420   -8.0831   21.5005 He  0  0  0  0  0  0  0  0  0  0  0  0
  1  2  2  0
  1  6  2  0
  1  9  3  0
  1 11  3  0
  1 13  1  0
  1 14  4  0
  1 15  1  0
  2  3  4  0
  2  6  2  0
  2 10  2  0
  2 12  1  0
  2 14  4  0
  2 15  3  0
  2 16  3  0
  3  6  1  0
  3  7  1  0
  3 10  2  0
  3 11  1  0
  3 12  2  0
  3 14  3  0
  3 15  4  0
  3 16  3  0
  4 13  4  0
  4 16  1  0
  5 12  4  0
  5 13  1  0
  5 15  4  0
  6  7  1  0
  6  9  2  0
  6 10  1  0
  7  9  1  0
  7 10  1  0
  7 12  4  0
  7 13  1  0
  7 15  2  0
  8 13  2  0
  8 15  3  0
  8 16  1  0
  9 10  4  0
  9 11  2  0
  9 16  1  0
 10 11  2  0
 10 12  2  0
 10 14  2  0
 11 14  1  0
M  END
$$$$

 Created by Python create_sdf_string function

 28  1  0  0  0  0  0  0  0  0999 V2000
    7.3017   -7.5323   28.1528 C   0  0  0  0  0  0  0  0  0  0  0  0
    2.3132   -8.5809   25.5190 C   0  0  0  0  0  0  0  0  0  0  0  0
    2.3229  -10.3675   18.2882 C   0  0  0  0  0  0  0  0  0  0  0  0
    4.7006   -6.3159   27.0490 C   0  0  0  0  0  0  0  0  0  0  0  0
    2.1648   -8.3138   25.9639 C   0  0  0  0  0  0  0  0  0  0  0  0
    3.1410   -9.8054   19.6935 C   0  0  0  0  0  0  0  0  0  0  0  0
    5.3225   -7.6940   27.0626 C   0  0  0  0  0  0  0  0  0  0  0  0
    3.9834   -7.4987   24.2924 C   0  0  0  0  0  0  0  0  0  0  0  0
    4.7733   -9.3724   18.9188 C   0  0  0  0  0  0  0  0  0  0  0  0
    3.9949   -7.0597   25.7313 C   0  0  0  0  0  0  0  0  0  0  0  0
    4.7285   -7.7115   25.3914 C   0  0  0  0  0  0  0  0  0  0  0  0
    2.5036  -10.0966   19.6876 C   0  0  0  0  0  0  0  0  0  0  0  0
    3.2449  -10.0242   18.2700 C   0  0  0  0  0  0  0  0  0  0  0  0
    1.4328   -8.0865   27.4228 C   0  0  0  0  0  0  0  0  0  0  0  0
    3.9321   -7.3701   27.2854 C   0  0  0  0  0  0  0  0  0  0  0  0
    2.2362   -6.7882   26.9186 C   0  0  0  0  0  0  0  0  0  0  0  0
    2.7636   -7.1744   27.4316 C   0  0  0  0  0  0  0  0  0  0  0  0
    0.8130   -7.2093   28.5552 C   0  0  0  0  0  0  0  0  0  0  0  0
    5.7556   -8.9311   19.0583 C   0  0  0  0  0  0  0  0  0  0  0  0
    2.9871   -9.5004   20.7774 C   0  0  0  0  0  0  0  0  0  0  0  0
    6.7063   -8.2338   28.4135 C   0  0  0  0  0  0  0  0  0  0  0  0
    4.9145   -7.9848   23.3101 C   0  0  0  0  0  0  0  0  0  0  0  0
    2.7959   -9.3879   21.3225 C   0  0  0  0  0  0  0  0  0  0  0  0
    4.8204   -8.9418   20.4971 C   0  0  0  0  0  0  0  0  0  0  0  0
    0.4736   -6.4739   28.1965 C   0  0  0  0  0  0  0  0  0  0  0  0
    5.3852   -7.5827   27.0521 C   0  0  0  0  0  0  0  0  0  0  0  0
    7.2837   -6.6085   28.3456 C   0  0  0  0  0  0  0  0  0  0  0  0
    7.0075   -7.8283   28.7387 C   0  0  0  0  0  0  0  0  0  0  0  0
 18 25  1  0
M  END
$$$$

 Created by Python create_sdf_string function

 28 29  0  0  0  0  0  0  0  0999 V2000
    5.6318   -8.9316   26.2172 S   0  0  0  0  0  0  0  0  0  0  0  0
    1.6556  -10.9530   18.8979 S   0  0  0  0  0  0  0  0  0  0  0  0
    2.1748   -9.8831   16.5125 N   0  0  0  0  0  0  0  0  0  0  0  0
    1.2990   -8.5883   27.4295 N   0  0  0  0  0  0  0  0  0  0  0  0
    3.4565   -7.7173   26.9251 S   0  0  0  0  0  0  0  0  0  0  0  0
    2.8772   -6.8656   26.9736 P   0  0  0  0  0  0  0  0  0  0  0  0
    2.7327   -5.5355   28.3139 N   0  0  0  0  0  0  0  0  0  0  0  0
    0.7250   -7.8480   29.2780 C   0  0  0  0  0  0  0  0  0  0  0  0
    2.1078  -10.5717   20.7831 F   0  0  0  0  0  0  0  0  0  0  0  0
    6.2155   -7.7027   28.0167 B   0  0  0  0  0  0  0  0  0  0  0  0
    5.3036   -7.2426   22.6764 F   0  0  0  0  0  0  0  0  0  0  0  0
    3.1763   -9.8067   20.1713 Br  0  0  0  0  0  0  0  0  0  0  0  0
    5.3571   -9.2165   25.7037 F   0  0  0  0  0  0  0  0  0  0  0  0
    8.0538   -7.3579   27.8273 C   0  0  0  0  0  0  0  0  0  0  0  0
    7.0765   -8.0561   26.7997 He  0  0  0  0  0  0  0  0  0  0  0  0
    3.2825   -8.1222   27.4055 He  0  0  0  0  0  0  0  0  0  0  0  0
    4.9264   -9.5214   18.1083 He  0  0  0  0  0  0  0  0  0  0  0  0
    5.2136   -6.3244   27.3477 He  0  0  0  0  0  0  0  0  0  0  0  0
    0.7066   -9.4223   26.8698 He  0  0  0  0  0  0  0  0  0  0  0  0
    3.0776  -10.0640   19.4750 He  0  0  0  0  0  0  0  0  0  0  0  0
    3.8222   -7.7122   27.8981 He  0  0  0  0  0  0  0  0  0  0  0  0
    3.8641   -5.5663   23.8870 He  0  0  0  0  0  0  0  0  0  0  0  0
    4.0479   -8.2463   18.9862 He  0  0  0  0  0  0  0  0  0  0  0  0
    3.6023   -8.7670   27.2621 He  0  0  0  0  0  0  0  0  0  0  0  0
    3.1460   -9.7853   19.1081 He  0  0  0  0  0  0  0  0  0  0  0  0
    3.7850   -8.5258   19.6226 He  0  0  0  0  0  0  0  0  0  0  0  0
    0.9103   -5.9593   26.8503 He  0  0  0  0  0  0  0  0  0  0  0  0
    6.4817   -7.7603   29.2198 He  0  0  0  0  0  0  0  0  0  0  0  0
  1  4  4  0
  1  5  1  0
  1  7  1  0
  1 14  1  0
  2  9  3  0
  2 12  1  0
  2 13  2  0
  3  4  3  0
  3  5  3  0
  3  9  3  0
  3 12  2  0
  3 13  3  0
  4  7  4  0
  4 10  3  0
  4 12  1  0
  5  6  4  0
  5  8  4  0
  5  9  2  0
  5 10  2  0
  5 13  4  0
  6 10  2  0
  6 11  2  0
  7  8  4  0
  7  9  3  0
  7 10  4  0
  8 10  1  0
 10 11  4  0
 10 13  3  0
 12 13  2  0
M  END
$$$$

 Created by Python create_sdf_string function

 28  1  0  0  0  0  0  0  0  0999 V2000
    7.0334   -7.6601   27.3596 C   0  0  0  0  0  0  0  0  0  0  0  0
    3.0379   -7.8812   27.4900 C   0  0  0  0  0  0  0  0  0  0  0  0
    4.7412   -9.4811   17.8622 C   0  0  0  0  0  0  0  0  0  0  0  0
    5.3493   -6.6473   27.3449 C   0  0  0  0  0  0  0  0  0  0  0  0
    1.4093   -9.0458   27.3530 C   0  0  0  0  0  0  0  0  0  0  0  0
    2.8058  -10.1631   18.7446 C   0  0  0  0  0  0  0  0  0  0  0  0
    4.0768   -7.4878   27.9046 C   0  0  0  0  0  0  0  0  0  0  0  0
    3.8755   -7.1337   25.1967 C   0  0  0  0  0  0  0  0  0  0  0  0
    4.5549   -9.3288   18.4992 C   0  0  0  0  0  0  0  0  0  0  0  0
    3.4583   -8.4613   27.3223 C   0  0  0  0  0  0  0  0  0  0  0  0
    5.6841   -8.0025   26.5920 C   0  0  0  0  0  0  0  0  0  0  0  0
    1.5608  -10.7275   18.5383 C   0  0  0  0  0  0  0  0  0  0  0  0
    2.4247  -10.1400   17.0191 C   0  0  0  0  0  0  0  0  0  0  0  0
    1.4907   -8.2996   27.8093 C   0  0  0  0  0  0  0  0  0  0  0  0
    3.4699   -7.4143   26.9410 C   0  0  0  0  0  0  0  0  0  0  0  0
    2.5884   -6.6888   27.1350 C   0  0  0  0  0  0  0  0  0  0  0  0
    2.5483   -5.8916   28.0073 C   0  0  0  0  0  0  0  0  0  0  0  0
    1.0260   -7.6518   28.6512 C   0  0  0  0  0  0  0  0  0  0  0  0
    3.1346   -9.9946   18.1821 C   0  0  0  0  0  0  0  0  0  0  0  0
    2.3409  -10.2941   19.7250 C   0  0  0  0  0  0  0  0  0  0  0  0
    6.5428   -7.6175   28.0432 C   0  0  0  0  0  0  0  0  0  0  0  0
    4.6389   -7.8947   24.1469 O   0  0  0  0  0  0  0  0  0  0  0  0
    3.0948   -9.9419   19.4670 C   0  0  0  0  0  0  0  0  0  0  0  0
    4.3168   -9.4027   19.0510 C   0  0  0  0  0  0  0  0  0  0  0  0
    1.1275   -6.0832   27.1965 C   0  0  0  0  0  0  0  0  0  0  0  0
    5.3219   -8.1456   26.0944 C   0  0  0  0  0  0  0  0  0  0  0  0
    7.8901   -7.5569   27.8896 C   0  0  0  0  0  0  0  0  0  0  0  0
    6.7210   -7.7867   28.8086 C   0  0  0  0  0  0  0  0  0  0  0  0
 11 26  1  0
M  END
$$$$

 Created by Python create_sdf_string function

 28  9  0  0  0  0  0  0  0  0999 V2000
    2.0607   -8.0927   27.5817 C   0  0  0  0  0  0  0  0  0  0  0  0
    1.4294   -8.4387   28.6203 O   0  0  0  0  0  0  0  0  0  0  0  0
    3.6322   -9.1687   17.6927 N   0  0  0  0  0  0  0  0  0  0  0  0
    5.7823   -8.9603   26.6037 Cl  0  0  0  0  0  0  0  0  0  0  0  0
    1.8266   -9.5707   17.9967 F   0  0  0  0  0  0  0  0  0  0  0  0
    2.9063  -10.7579   16.4355 N   0  0  0  0  0  0  0  0  0  0  0  0
    1.3032  -11.0167   19.5553 C   0  0  0  0  0  0  0  0  0  0  0  0
    4.0783   -9.9776   20.0473 B   0  0  0  0  0  0  0  0  0  0  0  0
    1.4996   -5.2528   28.2326 N   0  0  0  0  0  0  0  0  0  0  0  0
    7.1536  -10.0733   26.5764 He  0  0  0  0  0  0  0  0  0  0  0  0
    5.0982  -10.8909   16.7208 He  0  0  0  0  0  0  0  0  0  0  0  0
    5.0875   -8.5783   27.6398 He  0  0  0  0  0  0  0  0  0  0  0  0
    2.8713   -9.5444   19.5788 He  0  0  0  0  0  0  0  0  0  0  0  0
    4.5637   -7.4650   27.2667 He  0  0  0  0  0  0  0  0  0  0  0  0
    5.4807   -6.5860   27.0198 He  0  0  0  0  0  0  0  0  0  0  0  0
    5.6038  -10.9128   27.8019 He  0  0  0  0  0  0  0  0  0  0  0  0
    1.1010   -8.7274   27.5492 He  0  0  0  0  0  0  0  0  0  0  0  0
    3.8168   -8.2682   27.9232 He  0  0  0  0  0  0  0  0  0  0  0  0
    2.6972   -8.2349   28.5155 He  0  0  0  0  0  0  0  0  0  0  0  0
    3.3793   -5.0073   29.4000 He  0  0  0  0  0  0  0  0  0  0  0  0
    0.2050   -9.0114   28.5438 He  0  0  0  0  0  0  0  0  0  0  0  0
    2.1975  -11.0889   19.1093 He  0  0  0  0  0  0  0  0  0  0  0  0
    5.6455   -8.0635   28.7421 He  0  0  0  0  0  0  0  0  0  0  0  0
    5.3565   -8.0856   22.8163 He  0  0  0  0  0  0  0  0  0  0  0  0
    3.9325   -8.9536   18.4256 He  0  0  0  0  0  0  0  0  0  0  0  0
    6.0820   -9.7293   26.4222 He  0  0  0  0  0  0  0  0  0  0  0  0
    7.1179   -7.7769   26.9695 He  0  0  0  0  0  0  0  0  0  0  0  0
    4.5161   -6.7637   28.4042 He  0  0  0  0  0  0  0  0  0  0  0  0
  1  2  1  0
  1  3  3  0
  1  6  4  0
  2  7  2  0
  2  9  2  0
  3  4  1  0
  3  5  1  0
  3  6  2  0
  7  9  3  0
M  END
$$$$

 Created by Python create_sdf_string function

 28  4  0  0  0  0  0  0  0  0999 V2000
    6.6709   -8.7077   27.3101 C   0  0  0  0  0  0  0  0  0  0  0  0
    1.9325   -7.9520   27.7561 C   0  0  0  0  0  0  0  0  0  0  0  0
    4.8353  -10.3505   16.9391 C   0  0  0  0  0  0  0  0  0  0  0  0
    4.9608   -8.3650   27.8015 C   0  0  0  0  0  0  0  0  0  0  0  0
    1.3912   -8.1564   28.6080 C   0  0  0  0  0  0  0  0  0  0  0  0
    2.7889  -10.6916   18.5911 C   0  0  0  0  0  0  0  0  0  0  0  0
    4.3568   -7.0346   27.3622 C   0  0  0  0  0  0  0  0  0  0  0  0
    5.4855   -6.3961   27.2058 C   0  0  0  0  0  0  0  0  0  0  0  0
    3.6623   -9.5718   16.9192 C   0  0  0  0  0  0  0  0  0  0  0  0
    5.1300   -9.8850   28.0047 C   0  0  0  0  0  0  0  0  0  0  0  0
    5.6909   -8.0505   26.9030 C   0  0  0  0  0  0  0  0  0  0  0  0
    1.6512  -10.1184   17.2052 C   0  0  0  0  0  0  0  0  0  0  0  0
    2.8183  -10.5076   16.6999 C   0  0  0  0  0  0  0  0  0  0  0  0
    1.4054   -8.5122   27.7931 C   0  0  0  0  0  0  0  0  0  0  0  0
    3.4674   -8.0379   27.9983 C   0  0  0  0  0  0  0  0  0  0  0  0
    2.6313   -7.9357   28.5761 C   0  0  0  0  0  0  0  0  0  0  0  0
    3.2450   -5.5237   28.8776 C   0  0  0  0  0  0  0  0  0  0  0  0
    0.7666   -8.6752   28.6893 C   0  0  0  0  0  0  0  0  0  0  0  0
    1.6239  -10.9298   18.3619 C   0  0  0  0  0  0  0  0  0  0  0  0
    1.2209  -10.9011   18.5926 C   0  0  0  0  0  0  0  0  0  0  0  0
    5.3779   -7.8019   28.7457 C   0  0  0  0  0  0  0  0  0  0  0  0
    5.3442   -7.8469   24.8730 C   0  0  0  0  0  0  0  0  0  0  0  0
    3.9953  -10.2080   18.5037 C   0  0  0  0  0  0  0  0  0  0  0  0
    4.1911   -9.5932   17.5200 C   0  0  0  0  0  0  0  0  0  0  0  0
    1.8527   -5.9153   28.2755 C   0  0  0  0  0  0  0  0  0  0  0  0
    5.7715   -8.6346   26.7102 C   0  0  0  0  0  0  0  0  0  0  0  0
    6.7408   -7.5003   27.1473 C   0  0  0  0  0  0  0  0  0  0  0  0
    4.1107   -6.4323   28.5101 C   0  0  0  0  0  0  0  0  0  0  0  0
  2 14  1  0
  6 23  4  0
 17 28  1  0
 19 20  4  0
M  END
$$$$

 Created by Python create_sdf_string function

 28 48  0  0  0  0  0  0  0  0999 V2000
    7.5345   -8.8363   27.6021 N   0  0  0  0  0  0  0  0  0  0  0  0
    5.0878  -11.1112   16.8888 Cl  0  0  0  0  0  0  0  0  0  0  0  0
    3.5451   -5.8599   26.1550 C   0  0  0  0  0  0  0  0  0  0  0  0
    1.9695   -4.3731   26.8975 Cl  0  0  0  0  0  0  0  0  0  0  0  0
    1.5056  -11.3665   20.8675 P   0  0  0  0  0  0  0  0  0  0  0  0
    4.5919   -8.2101   27.4248 C   0  0  0  0  0  0  0  0  0  0  0  0
    5.9786   -6.8383   27.1813 C   0  0  0  0  0  0  0  0  0  0  0  0
    4.6031  -11.6507   28.8355 O   0  0  0  0  0  0  0  0  0  0  0  0
    3.3839  -11.5461   17.3195 C   0  0  0  0  0  0  0  0  0  0  0  0
    1.7913   -9.2708   27.3490 I   0  0  0  0  0  0  0  0  0  0  0  0
    0.3647   -9.0401   16.9369 N   0  0  0  0  0  0  0  0  0  0  0  0
    0.6910  -12.0681   17.6468 Se  0  0  0  0  0  0  0  0  0  0  0  0
    7.2100   -8.4251   28.5678 O   0  0  0  0  0  0  0  0  0  0  0  0
    4.7404   -6.7775   24.4723 S   0  0  0  0  0  0  0  0  0  0  0  0
    4.7029   -9.7643   17.7724 C   0  0  0  0  0  0  0  0  0  0  0  0
    5.9692  -10.0317   26.3544 C   0  0  0  0  0  0  0  0  0  0  0  0
    8.2819   -8.5007   27.7560 O   0  0  0  0  0  0  0  0  0  0  0  0
    3.0880   -8.3567   27.0060 He  0  0  0  0  0  0  0  0  0  0  0  0
    3.6072   -8.8945   15.1315 He  0  0  0  0  0  0  0  0  0  0  0  0
    5.1104   -8.1980   26.6405 He  0  0  0  0  0  0  0  0  0  0  0  0
    0.9242  -10.6464   17.1410 He  0  0  0  0  0  0  0  0  0  0  0  0
    2.4117   -7.9890   28.3326 He  0  0  0  0  0  0  0  0  0  0  0  0
    1.2355   -8.9012   28.0391 He  0  0  0  0  0  0  0  0  0  0  0  0
    1.8586   -6.1658   28.0175 He  0  0  0  0  0  0  0  0  0  0  0  0
    0.0096   -7.9671   29.6025 He  0  0  0  0  0  0  0  0  0  0  0  0
    5.2103   -8.6787   16.7344 He  0  0  0  0  0  0  0  0  0  0  0  0
    1.4712   -4.6635   28.4372 He  0  0  0  0  0  0  0  0  0  0  0  0
    4.6497   -7.1747   30.0020 He  0  0  0  0  0  0  0  0  0  0  0  0
  1  4  3  0
  1  6  1  0
  1  9  1  0
  1 15  4  0
  2  3  2  0
  2  4  1  0
  2  8  1  0
  2 12  4  0
  2 14  3  0
  3  4  2  0
  3  6  3  0
  3 17  3  0
  4  6  4  0
  4 12  4  0
  4 13  3  0
  5  6  2  0
  5  7  1  0
  5  8  4  0
  5 11  1  0
  5 12  4  0
  5 15  1  0
  5 16  2  0
  6  8  1  0
  6 12  4  0
  6 13  1  0
  6 15  4  0
  6 16  1  0
  7 10  2  0
  7 11  1  0
  7 13  3  0
  7 15  4  0
  8 11  4  0
  8 13  4  0
  8 15  4  0
  8 17  4  0
  9 11  3  0
  9 12  3  0
  9 15  1  0
  9 17  4  0
 10 11  4  0
 10 12  1  0
 11 15  3  0
 11 16  3  0
 12 14  2  0
 12 15  3  0
 14 15  1  0
 14 17  1  0
 16 17  3  0
M  END
$$$$

 Created by Python create_sdf_string function

 28  6  0  0  0  0  0  0  0  0999 V2000
    7.4721   -8.0901   27.9536 C   0  0  0  0  0  0  0  0  0  0  0  0
    3.1803   -8.0360   27.2157 C   0  0  0  0  0  0  0  0  0  0  0  0
    4.7450  -10.4078   17.0520 C   0  0  0  0  0  0  0  0  0  0  0  0
    3.1638   -6.2909   26.7547 C   0  0  0  0  0  0  0  0  0  0  0  0
    2.0267   -5.1515   27.1395 C   0  0  0  0  0  0  0  0  0  0  0  0
    1.8296  -11.1182   18.5256 C   0  0  0  0  0  0  0  0  0  0  0  0
    4.7905   -8.4278   27.7182 C   0  0  0  0  0  0  0  0  0  0  0  0
    6.0588   -7.2304   27.3747 C   0  0  0  0  0  0  0  0  0  0  0  0
    3.1904   -9.1894   16.3174 C   0  0  0  0  0  0  0  0  0  0  0  0
    4.6682  -10.2420   28.5527 O   0  0  0  0  0  0  0  0  0  0  0  0
    5.1672   -7.8221   26.8564 C   0  0  0  0  0  0  0  0  0  0  0  0
    1.3234  -10.0653   17.1244 C   0  0  0  0  0  0  0  0  0  0  0  0
    3.0676  -10.6841   17.5077 C   0  0  0  0  0  0  0  0  0  0  0  0
    2.1928   -8.7803   27.7147 C   0  0  0  0  0  0  0  0  0  0  0  0
    2.2284   -7.8882   28.1796 C   0  0  0  0  0  0  0  0  0  0  0  0
    1.5458   -8.4081   28.3461 C   0  0  0  0  0  0  0  0  0  0  0  0
    1.7411   -6.1819   27.8107 C   0  0  0  0  0  0  0  0  0  0  0  0
    0.6817   -7.5685   29.0181 C   0  0  0  0  0  0  0  0  0  0  0  0
    1.2074   -9.6716   16.8804 C   0  0  0  0  0  0  0  0  0  0  0  0
    1.1601  -11.1282   18.0083 C   0  0  0  0  0  0  0  0  0  0  0  0
    7.1978   -8.2227   28.5287 C   0  0  0  0  0  0  0  0  0  0  0  0
    4.5849   -7.3732   25.6131 O   0  0  0  0  0  0  0  0  0  0  0  0
    4.3172  -10.1154   17.4118 C   0  0  0  0  0  0  0  0  0  0  0  0
    4.6507   -9.2983   16.7347 C   0  0  0  0  0  0  0  0  0  0  0  0
    1.4602   -5.3262   28.0395 C   0  0  0  0  0  0  0  0  0  0  0  0
    5.7969   -8.6016   27.2711 C   0  0  0  0  0  0  0  0  0  0  0  0
    8.1690   -7.8868   27.9094 C   0  0  0  0  0  0  0  0  0  0  0  0
    4.7055   -7.6584   29.1162 C   0  0  0  0  0  0  0  0  0  0  0  0
  5 17  1  0
  5 25  1  0
  6 20  4  0
 11 22  1  0
 12 19  4  0
 17 25  1  0
M  END
$$$$

 Created by Python create_sdf_string function

 28 22  0  0  0  0  0  0  0  0999 V2000
    3.3390   -6.5981   27.5063 F   0  0  0  0  0  0  0  0  0  0  0  0
    2.2274  -10.7480   17.0572 Se  0  0  0  0  0  0  0  0  0  0  0  0
    2.5542   -5.0753   25.7759 C   0  0  0  0  0  0  0  0  0  0  0  0
    0.9925  -12.3583   19.0430 S   0  0  0  0  0  0  0  0  0  0  0  0
    5.2035   -9.6599   29.2408 O   0  0  0  0  0  0  0  0  0  0  0  0
    2.1379  -10.5805   17.2624 N   0  0  0  0  0  0  0  0  0  0  0  0
    4.1480  -12.3583   18.5506 Cl  0  0  0  0  0  0  0  0  0  0  0  0
    2.2831   -8.6544   28.7232 O   0  0  0  0  0  0  0  0  0  0  0  0
   -0.3750   -4.6351   26.9586 N   0  0  0  0  0  0  0  0  0  0  0  0
    7.5653   -7.5113   30.0579 C   0  0  0  0  0  0  0  0  0  0  0  0
    5.2942   -9.7490   16.2525 C   0  0  0  0  0  0  0  0  0  0  0  0
    3.4423   -9.8238   17.6255 Se  0  0  0  0  0  0  0  0  0  0  0  0
    7.0805   -7.9699   26.8371 He  0  0  0  0  0  0  0  0  0  0  0  0
    2.7304   -4.3448   28.4792 He  0  0  0  0  0  0  0  0  0  0  0  0
    5.2924   -6.4071   25.3599 He  0  0  0  0  0  0  0  0  0  0  0  0
    5.6348   -8.0350   26.5115 He  0  0  0  0  0  0  0  0  0  0  0  0
    3.0687   -9.3258   16.5302 He  0  0  0  0  0  0  0  0  0  0  0  0
    3.9732   -7.8638   26.6029 He  0  0  0  0  0  0  0  0  0  0  0  0
    2.0142  -10.7460   29.3262 He  0  0  0  0  0  0  0  0  0  0  0  0
    2.4607   -7.4640   29.7157 He  0  0  0  0  0  0  0  0  0  0  0  0
    1.2787   -6.7216   29.2365 He  0  0  0  0  0  0  0  0  0  0  0  0
    0.5528   -9.4170   17.0181 He  0  0  0  0  0  0  0  0  0  0  0  0
    1.0855  -12.5861   16.8785 He  0  0  0  0  0  0  0  0  0  0  0  0
    3.8923   -7.6774   26.0880 He  0  0  0  0  0  0  0  0  0  0  0  0
    0.5692   -3.9349   26.3808 He  0  0  0  0  0  0  0  0  0  0  0  0
    7.0212   -8.4848   26.4587 He  0  0  0  0  0  0  0  0  0  0  0  0
    7.7730   -8.3874   29.4487 He  0  0  0  0  0  0  0  0  0  0  0  0
    4.4699   -6.7870   28.2033 He  0  0  0  0  0  0  0  0  0  0  0  0
  1 10  1  0
  2  6  2  0
  2  7  4  0
  2  9  1  0
  2 10  4  0
  2 11  3  0
  2 12  4  0
  3  5  3  0
  3  6  2  0
  3  9  2  0
  3 10  3  0
  3 11  4  0
  4  6  3  0
  4  7  3  0
  4  8  1  0
  5 11  3  0
  6  7  3  0
  6  9  4  0
  6 10  2  0
  7  8  4  0
  9 12  1  0
 10 12  2  0
M  END
$$$$

 Created by Python create_sdf_string function

 28  5  0  0  0  0  0  0  0  0999 V2000
    7.1347   -7.6997   27.5637 C   0  0  0  0  0  0  0  0  0  0  0  0
    2.7777   -6.5473   27.5917 C   0  0  0  0  0  0  0  0  0  0  0  0
    2.3347  -10.6684   17.1990 C   0  0  0  0  0  0  0  0  0  0  0  0
    2.2241   -5.4340   26.6786 C   0  0  0  0  0  0  0  0  0  0  0  0
    2.1140   -5.0274   27.9988 C   0  0  0  0  0  0  0  0  0  0  0  0
    0.8631  -11.7157   18.0113 C   0  0  0  0  0  0  0  0  0  0  0  0
    4.9561   -7.1930   26.3040 C   0  0  0  0  0  0  0  0  0  0  0  0
    5.7154   -7.7744   27.1146 C   0  0  0  0  0  0  0  0  0  0  0  0
    3.0565   -9.2740   16.6178 C   0  0  0  0  0  0  0  0  0  0  0  0
    5.2726   -8.9601   29.0241 C   0  0  0  0  0  0  0  0  0  0  0  0
    3.9332   -7.6611   27.0463 C   0  0  0  0  0  0  0  0  0  0  0  0
    1.6300  -10.1974   17.1520 C   0  0  0  0  0  0  0  0  0  0  0  0
    3.4618  -11.3650   17.9511 C   0  0  0  0  0  0  0  0  0  0  0  0
    2.5360   -9.3900   29.1567 C   0  0  0  0  0  0  0  0  0  0  0  0
    2.2875   -7.7478   29.2101 C   0  0  0  0  0  0  0  0  0  0  0  0
    2.3684   -8.3115   28.7104 C   0  0  0  0  0  0  0  0  0  0  0  0
    0.4581   -4.9376   27.2779 C   0  0  0  0  0  0  0  0  0  0  0  0
    1.4608   -6.7264   28.6411 C   0  0  0  0  0  0  0  0  0  0  0  0
    0.8409   -9.8127   17.0961 C   0  0  0  0  0  0  0  0  0  0  0  0
    1.1003  -11.9641   17.5505 C   0  0  0  0  0  0  0  0  0  0  0  0
    7.2504   -8.0162   29.2062 C   0  0  0  0  0  0  0  0  0  0  0  0
    3.6578   -7.3308   26.6805 C   0  0  0  0  0  0  0  0  0  0  0  0
    4.5918   -9.9639   17.0035 C   0  0  0  0  0  0  0  0  0  0  0  0
    3.6679  -10.0084   17.1108 C   0  0  0  0  0  0  0  0  0  0  0  0
    0.9247   -4.4829   26.9985 C   0  0  0  0  0  0  0  0  0  0  0  0
    6.8949   -7.7408   27.3946 C   0  0  0  0  0  0  0  0  0  0  0  0
    7.4697   -8.1316   28.9971 C   0  0  0  0  0  0  0  0  0  0  0  0
    4.4409   -7.4065   28.1170 C   0  0  0  0  0  0  0  0  0  0  0  0
  6 20  4  0
 12 19  4  0
 17 25  1  0
 21 27  1  0
 23 24  4  0
M  END
$$$$

 Created by Python create_sdf_string function

 28 32  0  0  0  0  0  0  0  0999 V2000
    6.5882   -8.1993   28.8263 C   0  0  0  0  0  0  0  0  0  0  0  0
    0.7036   -8.8432   17.9407 C   0  0  0  0  0  0  0  0  0  0  0  0
    0.9867   -7.6260   27.5031 P   0  0  0  0  0  0  0  0  0  0  0  0
   -0.6356  -12.7464   16.1535 O   0  0  0  0  0  0  0  0  0  0  0  0
    4.7218   -8.8361   28.8807 P   0  0  0  0  0  0  0  0  0  0  0  0
    3.9833  -11.1343   18.0861 N   0  0  0  0  0  0  0  0  0  0  0  0
    1.4592   -9.4271   29.3582 Se  0  0  0  0  0  0  0  0  0  0  0  0
    1.1101   -5.5721   26.9014 Br  0  0  0  0  0  0  0  0  0  0  0  0
   -0.0417   -7.2215   27.5569 N   0  0  0  0  0  0  0  0  0  0  0  0
    0.5762   -9.2628   17.4653 O   0  0  0  0  0  0  0  0  0  0  0  0
    5.1895   -9.9067   15.5558 N   0  0  0  0  0  0  0  0  0  0  0  0
    8.9145  -10.5533   29.8216 C   0  0  0  0  0  0  0  0  0  0  0  0
    4.6145   -7.5867   28.2445 I   0  0  0  0  0  0  0  0  0  0  0  0
    0.3742   -6.3471   29.1955 He  0  0  0  0  0  0  0  0  0  0  0  0
    2.2240   -5.4537   27.4042 He  0  0  0  0  0  0  0  0  0  0  0  0
    6.5721   -8.1228   26.5608 He  0  0  0  0  0  0  0  0  0  0  0  0
    5.9972   -7.9147   27.6673 He  0  0  0  0  0  0  0  0  0  0  0  0
    3.1272  -10.3203   17.9410 He  0  0  0  0  0  0  0  0  0  0  0  0
    3.1569   -7.4848   26.6561 He  0  0  0  0  0  0  0  0  0  0  0  0
    0.5710   -9.9346   16.4741 He  0  0  0  0  0  0  0  0  0  0  0  0
    2.3738   -6.4205   28.7304 He  0  0  0  0  0  0  0  0  0  0  0  0
    2.6885   -9.1811   29.4496 He  0  0  0  0  0  0  0  0  0  0  0  0
    2.7694  -13.5146   17.0673 He  0  0  0  0  0  0  0  0  0  0  0  0
    5.4791   -7.5664   28.4531 He  0  0  0  0  0  0  0  0  0  0  0  0
    3.1856   -9.3504   25.5988 He  0  0  0  0  0  0  0  0  0  0  0  0
    4.2818   -9.7369   16.7607 He  0  0  0  0  0  0  0  0  0  0  0  0
    1.9884   -3.1214   27.4185 He  0  0  0  0  0  0  0  0  0  0  0  0
    6.2609   -6.8993   26.4797 He  0  0  0  0  0  0  0  0  0  0  0  0
  1  2  1  0
  1  3  2  0
  1  4  2  0
  1  6  1  0
  2  3  4  0
  2  8  2  0
  2 11  3  0
  2 12  4  0
  3  4  1  0
  3  5  4  0
  3  6  2  0
  3  8  3  0
  3 12  3  0
  3 13  1  0
  4  5  1  0
  4  7  3  0
  4  8  4  0
  4 13  2  0
  5  6  4  0
  5  7  3  0
  5  8  3  0
  5 10  2  0
  5 13  1  0
  6  7  1  0
  6  8  3  0
  6 13  3  0
  7 13  2  0
  8 11  3  0
  8 12  4  0
  9 13  3  0
 10 12  2  0
 12 13  3  0
M  END
$$$$

 Created by Python create_sdf_string function

 28  4  0  0  0  0  0  0  0  0999 V2000
    6.8811   -8.4862   28.8670 C   0  0  0  0  0  0  0  0  0  0  0  0
    0.6417   -6.4040   28.7633 O   0  0  0  0  0  0  0  0  0  0  0  0
    0.8392   -9.6190   17.2160 C   0  0  0  0  0  0  0  0  0  0  0  0
    2.1843   -5.4283   27.2530 C   0  0  0  0  0  0  0  0  0  0  0  0
    1.5523   -7.3616   27.7852 C   0  0  0  0  0  0  0  0  0  0  0  0
    0.7194  -11.6432   16.8127 C   0  0  0  0  0  0  0  0  0  0  0  0
    6.5447   -7.7097   27.3363 C   0  0  0  0  0  0  0  0  0  0  0  0
    6.1261   -7.9313   27.8308 C   0  0  0  0  0  0  0  0  0  0  0  0
    2.6202  -10.4004   17.3179 C   0  0  0  0  0  0  0  0  0  0  0  0
    4.9520   -8.7856   28.8236 C   0  0  0  0  0  0  0  0  0  0  0  0
    3.1253   -7.0751   27.0526 C   0  0  0  0  0  0  0  0  0  0  0  0
    0.8793  -10.2036   16.8040 C   0  0  0  0  0  0  0  0  0  0  0  0
    3.7345  -10.8497   17.4980 C   0  0  0  0  0  0  0  0  0  0  0  0
    1.7780   -8.7465   28.9759 C   0  0  0  0  0  0  0  0  0  0  0  0
    2.3770   -6.3887   28.2624 C   0  0  0  0  0  0  0  0  0  0  0  0
    2.7641   -8.7359   28.9590 C   0  0  0  0  0  0  0  0  0  0  0  0
    1.2214   -5.4289   27.1303 C   0  0  0  0  0  0  0  0  0  0  0  0
    0.6971   -6.7431   28.0280 C   0  0  0  0  0  0  0  0  0  0  0  0
    0.6498   -9.6751   17.1855 C   0  0  0  0  0  0  0  0  0  0  0  0
    2.6704  -11.9591   17.0713 C   0  0  0  0  0  0  0  0  0  0  0  0
    5.6104   -8.1105   28.3046 C   0  0  0  0  0  0  0  0  0  0  0  0
    3.0440   -8.1731   26.5764 O   0  0  0  0  0  0  0  0  0  0  0  0
    4.4091  -10.4771   16.6498 C   0  0  0  0  0  0  0  0  0  0  0  0
    3.7494  -10.0369   16.9590 C   0  0  0  0  0  0  0  0  0  0  0  0
    1.8019   -4.1088   27.1436 C   0  0  0  0  0  0  0  0  0  0  0  0
    5.8120   -7.1629   26.8855 C   0  0  0  0  0  0  0  0  0  0  0  0
    7.8419   -8.9360   29.5124 C   0  0  0  0  0  0  0  0  0  0  0  0
    4.6850   -7.9297   28.0472 C   0  0  0  0  0  0  0  0  0  0  0  0
  1 27  1  0
  3 19  4  0
  4 25  1  0
 23 24  4  0
M  END
$$$$

 Created by Python create_sdf_string function

 28 30  0  0  0  0  0  0  0  0999 V2000
    1.8825   -4.6842   25.2904 C   0  0  0  0  0  0  0  0  0  0  0  0
    2.1942  -11.8984   16.9375 O   0  0  0  0  0  0  0  0  0  0  0  0
    4.8818   -7.9453   26.8710 C   0  0  0  0  0  0  0  0  0  0  0  0
    5.2840   -9.3690   27.9245 C   0  0  0  0  0  0  0  0  0  0  0  0
    1.1872   -7.7414   26.9815 C   0  0  0  0  0  0  0  0  0  0  0  0
    2.6695  -11.6554   18.3132 O   0  0  0  0  0  0  0  0  0  0  0  0
    5.1062  -12.1491   16.4692 P   0  0  0  0  0  0  0  0  0  0  0  0
    4.1382   -9.3180   30.4632 Br  0  0  0  0  0  0  0  0  0  0  0  0
    3.7290   -8.1161   28.2111 Cl  0  0  0  0  0  0  0  0  0  0  0  0
    6.2270   -8.4685   25.8652 O   0  0  0  0  0  0  0  0  0  0  0  0
    7.0541   -7.5938   28.4778 N   0  0  0  0  0  0  0  0  0  0  0  0
    5.0703   -8.0392   28.7361 N   0  0  0  0  0  0  0  0  0  0  0  0
    6.7124  -11.0882   27.7984 He  0  0  0  0  0  0  0  0  0  0  0  0
    0.9043   -6.6008   27.4773 He  0  0  0  0  0  0  0  0  0  0  0  0
    1.7487   -9.9029   15.6544 He  0  0  0  0  0  0  0  0  0  0  0  0
    0.0395   -6.6889   26.1687 He  0  0  0  0  0  0  0  0  0  0  0  0
    4.4890   -7.6881   27.3001 He  0  0  0  0  0  0  0  0  0  0  0  0
    3.9241  -11.4181   18.5360 He  0  0  0  0  0  0  0  0  0  0  0  0
    1.3227   -9.5150   29.1856 He  0  0  0  0  0  0  0  0  0  0  0  0
    2.1670   -5.8156   29.3217 He  0  0  0  0  0  0  0  0  0  0  0  0
    1.1694   -4.4768   25.6604 He  0  0  0  0  0  0  0  0  0  0  0  0
    0.1570   -7.1400   28.7289 He  0  0  0  0  0  0  0  0  0  0  0  0
   -1.8198  -10.6453   17.4322 He  0  0  0  0  0  0  0  0  0  0  0  0
    2.0804  -11.2944   17.9235 He  0  0  0  0  0  0  0  0  0  0  0  0
    2.6573   -8.4282   26.4345 He  0  0  0  0  0  0  0  0  0  0  0  0
    6.7294   -9.7445   15.5161 He  0  0  0  0  0  0  0  0  0  0  0  0
    1.2178  -10.7616   15.6495 He  0  0  0  0  0  0  0  0  0  0  0  0
    1.4260   -5.0707   26.0298 He  0  0  0  0  0  0  0  0  0  0  0  0
  1  2  4  0
  1  4  3  0
  1  6  4  0
  1  8  2  0
  2  3  4  0
  2  6  2  0
  2 10  2  0
  2 11  3  0
  3  4  4  0
  3  5  2  0
  3  6  3  0
  3  7  1  0
  3  9  4  0
  3 11  4  0
  4  9  2  0
  4 10  1  0
  4 12  1  0
  5 10  3  0
  5 12  4  0
  6  7  3  0
  6  9  2  0
  6 10  1  0
  6 11  2  0
  7  8  1  0
  7 11  3  0
  7 12  2  0
  8  9  2  0
  8 10  1  0
  8 11  1  0
  9 12  4  0
M  END
$$$$

 Created by Python create_sdf_string function

 28  6  0  0  0  0  0  0  0  0999 V2000
    6.3012   -9.3580   28.5136 O   0  0  0  0  0  0  0  0  0  0  0  0
    1.0364   -6.6683   28.0478 C   0  0  0  0  0  0  0  0  0  0  0  0
    1.9919  -10.2601   16.1850 C   0  0  0  0  0  0  0  0  0  0  0  0
    2.0175   -5.0598   26.5762 C   0  0  0  0  0  0  0  0  0  0  0  0
    0.5421   -6.0305   26.9675 C   0  0  0  0  0  0  0  0  0  0  0  0
    2.3619  -11.2931   16.9444 C   0  0  0  0  0  0  0  0  0  0  0  0
    4.8383   -7.7431   26.8568 C   0  0  0  0  0  0  0  0  0  0  0  0
    4.4722   -7.6568   27.4380 C   0  0  0  0  0  0  0  0  0  0  0  0
    4.0091  -10.8471   17.8466 C   0  0  0  0  0  0  0  0  0  0  0  0
    5.4715   -8.7639   28.1641 C   0  0  0  0  0  0  0  0  0  0  0  0
    1.6942   -7.4084   27.3356 C   0  0  0  0  0  0  0  0  0  0  0  0
    2.4976  -11.0079   17.9158 C   0  0  0  0  0  0  0  0  0  0  0  0
    4.4986  -11.3001   16.5819 C   0  0  0  0  0  0  0  0  0  0  0  0
    1.7073   -8.6961   28.9142 C   0  0  0  0  0  0  0  0  0  0  0  0
    2.0875   -6.4136   28.9196 C   0  0  0  0  0  0  0  0  0  0  0  0
    4.1627   -9.2178   29.8002 C   0  0  0  0  0  0  0  0  0  0  0  0
    1.1727   -4.5651   26.7866 C   0  0  0  0  0  0  0  0  0  0  0  0
    0.4793   -7.0663   28.7372 C   0  0  0  0  0  0  0  0  0  0  0  0
   -0.1391  -10.5368   17.3078 C   0  0  0  0  0  0  0  0  0  0  0  0
    1.5114  -10.8120   17.7250 C   0  0  0  0  0  0  0  0  0  0  0  0
    3.7416   -8.1266   28.2144 C   0  0  0  0  0  0  0  0  0  0  0  0
    2.7348   -8.0309   26.9191 C   0  0  0  0  0  0  0  0  0  0  0  0
    5.1681  -10.7204   16.5155 C   0  0  0  0  0  0  0  0  0  0  0  0
    1.3658  -10.5915   16.2215 C   0  0  0  0  0  0  0  0  0  0  0  0
    1.5126   -4.9353   26.7688 C   0  0  0  0  0  0  0  0  0  0  0  0
    5.8978   -7.8822   26.5344 C   0  0  0  0  0  0  0  0  0  0  0  0
    6.9271   -7.8952   28.0624 C   0  0  0  0  0  0  0  0  0  0  0  0
    5.2574   -8.3609   28.6453 C   0  0  0  0  0  0  0  0  0  0  0  0
  3 24  4  0
  4 25  1  0
  8 21  1  0
 10 28  1  0
 13 23  4  0
 17 25  1  0
M  END
$$$$

 Created by Python create_sdf_string function

 28 34  0  0  0  0  0  0  0  0999 V2000
    5.4520   -9.7916   27.4899 N   0  0  0  0  0  0  0  0  0  0  0  0
    1.6623   -4.2950   28.0885 N   0  0  0  0  0  0  0  0  0  0  0  0
    2.8252   -6.2572   27.5353 C   0  0  0  0  0  0  0  0  0  0  0  0
    4.9452  -11.6725   16.1648 F   0  0  0  0  0  0  0  0  0  0  0  0
    3.6035   -7.9819   28.0366 C   0  0  0  0  0  0  0  0  0  0  0  0
    2.5266   -6.6994   31.6055 Cl  0  0  0  0  0  0  0  0  0  0  0  0
    3.0956   -7.9026   31.2043 F   0  0  0  0  0  0  0  0  0  0  0  0
    0.1024   -7.1985   28.4023 C   0  0  0  0  0  0  0  0  0  0  0  0
    3.8864   -7.0970   29.1232 S   0  0  0  0  0  0  0  0  0  0  0  0
    3.3093   -8.0371   26.6717 O   0  0  0  0  0  0  0  0  0  0  0  0
    0.9665  -10.2839   13.4734 F   0  0  0  0  0  0  0  0  0  0  0  0
   -0.6424   -5.0533   26.9835 Br  0  0  0  0  0  0  0  0  0  0  0  0
    6.9866   -7.0607   25.3583 Cl  0  0  0  0  0  0  0  0  0  0  0  0
    5.5856   -8.7871   28.5164 C   0  0  0  0  0  0  0  0  0  0  0  0
    0.4014   -6.9673   25.9521 He  0  0  0  0  0  0  0  0  0  0  0  0
    0.0674  -10.1674   17.5520 He  0  0  0  0  0  0  0  0  0  0  0  0
    1.9788   -6.3727   25.9913 He  0  0  0  0  0  0  0  0  0  0  0  0
    2.5447  -10.7346   16.6663 He  0  0  0  0  0  0  0  0  0  0  0  0
    4.6852   -7.2293   26.5885 He  0  0  0  0  0  0  0  0  0  0  0  0
    2.8864   -6.5174   27.7230 He  0  0  0  0  0  0  0  0  0  0  0  0
    3.8902  -10.2138   16.7163 He  0  0  0  0  0  0  0  0  0  0  0  0
    4.6403   -8.6633   28.2361 He  0  0  0  0  0  0  0  0  0  0  0  0
    1.9835  -12.3540   18.6174 He  0  0  0  0  0  0  0  0  0  0  0  0
    2.1979   -3.9987   27.2718 He  0  0  0  0  0  0  0  0  0  0  0  0
   -0.0250  -10.7208   16.7183 He  0  0  0  0  0  0  0  0  0  0  0  0
    1.5150   -8.9284   17.2970 He  0  0  0  0  0  0  0  0  0  0  0  0
    3.5187  -11.0100   16.3994 He  0  0  0  0  0  0  0  0  0  0  0  0
    7.2702   -8.4966   26.4717 He  0  0  0  0  0  0  0  0  0  0  0  0
  1  2  3  0
  1  4  3  0
  1  5  2  0
  1  6  1  0
  1 10  2  0
  1 12  4  0
  2  7  2  0
  2  8  3  0
  2  9  1  0
  2 12  2  0
  2 13  4  0
  3  4  4  0
  3  5  3  0
  3  8  2  0
  3  9  3  0
  3 11  4  0
  3 12  2  0
  4  7  3  0
  4  9  1  0
  4 14  1  0
  5  7  1  0
  6 10  3  0
  6 13  4  0
  7  9  3  0
  7 12  4  0
  7 13  2  0
  8  9  1  0
  8 10  1  0
  8 11  2  0
  8 13  2  0
  9 11  1  0
 10 12  4  0
 11 12  4  0
 12 13  2  0
M  END
$$$$

 Created by Python create_sdf_string function

 28  5  0  0  0  0  0  0  0  0999 V2000
    5.4704   -8.8881   27.7633 C   0  0  0  0  0  0  0  0  0  0  0  0
    0.6179   -6.1249   26.8875 C   0  0  0  0  0  0  0  0  0  0  0  0
    0.4278  -10.2055   17.3289 C   0  0  0  0  0  0  0  0  0  0  0  0
    1.3553   -4.5354   27.8527 C   0  0  0  0  0  0  0  0  0  0  0  0
    2.0141   -6.0587   26.7953 C   0  0  0  0  0  0  0  0  0  0  0  0
    2.4653  -10.6233   16.4941 C   0  0  0  0  0  0  0  0  0  0  0  0
    4.6042   -7.2978   26.7645 C   0  0  0  0  0  0  0  0  0  0  0  0
    2.6156   -6.4901   27.9661 C   0  0  0  0  0  0  0  0  0  0  0  0
    3.5154  -10.5240   16.8072 C   0  0  0  0  0  0  0  0  0  0  0  0
    4.7206   -8.3846   28.3871 C   0  0  0  0  0  0  0  0  0  0  0  0
    2.5610   -6.1545   27.7504 C   0  0  0  0  0  0  0  0  0  0  0  0
    2.0647  -11.1589   17.8241 C   0  0  0  0  0  0  0  0  0  0  0  0
    4.2732  -11.2967   16.3741 C   0  0  0  0  0  0  0  0  0  0  0  0
    3.6915   -7.7607   28.3123 C   0  0  0  0  0  0  0  0  0  0  0  0
    2.6183   -6.9618   30.7638 C   0  0  0  0  0  0  0  0  0  0  0  0
    3.2511   -7.7322   30.6084 C   0  0  0  0  0  0  0  0  0  0  0  0
    1.7231   -4.2651   27.2430 C   0  0  0  0  0  0  0  0  0  0  0  0
    0.7432   -6.5774   28.3956 C   0  0  0  0  0  0  0  0  0  0  0  0
    0.4472  -10.3363   16.6642 C   0  0  0  0  0  0  0  0  0  0  0  0
    1.4154   -9.5955   16.8418 C   0  0  0  0  0  0  0  0  0  0  0  0
    3.4696   -7.3382   29.5925 C   0  0  0  0  0  0  0  0  0  0  0  0
    3.4334   -7.6507   26.8109 C   0  0  0  0  0  0  0  0  0  0  0  0
    3.4188  -11.0611   16.3903 C   0  0  0  0  0  0  0  0  0  0  0  0
    1.4742  -10.3358   15.0127 C   0  0  0  0  0  0  0  0  0  0  0  0
   -0.1416   -5.0216   27.0807 C   0  0  0  0  0  0  0  0  0  0  0  0
    5.8934   -7.5813   26.3695 C   0  0  0  0  0  0  0  0  0  0  0  0
    6.6632   -7.8629   27.1292 C   0  0  0  0  0  0  0  0  0  0  0  0
    5.5486   -8.6181   28.5456 C   0  0  0  0  0  0  0  0  0  0  0  0
  2 25  1  0
  3 19  1  0
  4 17  1  0
 13 23  1  0
 26 27  1  0
M  END
$$$$

 Created by Python create_sdf_string function

 28 32  0  0  0  0  0  0  0  0999 V2000
    2.9798   -5.3593   27.5709 Cl  0  0  0  0  0  0  0  0  0  0  0  0
    0.6014  -10.8708   18.1087 S   0  0  0  0  0  0  0  0  0  0  0  0
    1.8512   -3.9461   27.4936 S   0  0  0  0  0  0  0  0  0  0  0  0
    2.1511   -6.5310   28.2572 C   0  0  0  0  0  0  0  0  0  0  0  0
    2.3353   -6.8980   28.1702 Cl  0  0  0  0  0  0  0  0  0  0  0  0
    5.0542   -7.1676   27.7957 N   0  0  0  0  0  0  0  0  0  0  0  0
    3.4221   -9.5890   17.4290 F   0  0  0  0  0  0  0  0  0  0  0  0
    4.3218  -11.2743   17.5018 O   0  0  0  0  0  0  0  0  0  0  0  0
    2.2640   -8.6172   27.4169 I   0  0  0  0  0  0  0  0  0  0  0  0
    1.7746   -5.1899   26.4645 C   0  0  0  0  0  0  0  0  0  0  0  0
    2.4598   -8.0564   28.6791 Cl  0  0  0  0  0  0  0  0  0  0  0  0
    4.4548   -7.9316   28.5190 Cl  0  0  0  0  0  0  0  0  0  0  0  0
    2.4233   -6.5085   26.3169 Br  0  0  0  0  0  0  0  0  0  0  0  0
    1.9353  -11.6950   15.2003 N   0  0  0  0  0  0  0  0  0  0  0  0
    4.8252   -6.9250   26.9768 He  0  0  0  0  0  0  0  0  0  0  0  0
    3.2507  -11.0209   17.4374 He  0  0  0  0  0  0  0  0  0  0  0  0
    5.3295   -6.4922   25.0864 He  0  0  0  0  0  0  0  0  0  0  0  0
    4.0564   -9.6758   16.1678 He  0  0  0  0  0  0  0  0  0  0  0  0
    2.8356   -5.4920   28.9134 He  0  0  0  0  0  0  0  0  0  0  0  0
    3.2549   -6.3453   30.5932 He  0  0  0  0  0  0  0  0  0  0  0  0
    3.1563   -7.6162   30.1512 He  0  0  0  0  0  0  0  0  0  0  0  0
    1.1172   -9.1566   17.6462 He  0  0  0  0  0  0  0  0  0  0  0  0
    1.6650   -9.5311   15.1358 He  0  0  0  0  0  0  0  0  0  0  0  0
    3.3762  -12.6026   14.6822 He  0  0  0  0  0  0  0  0  0  0  0  0
   -0.7412   -4.4218   26.0432 He  0  0  0  0  0  0  0  0  0  0  0  0
    6.0460   -6.9827   27.3756 He  0  0  0  0  0  0  0  0  0  0  0  0
    7.5959   -7.9062   27.2303 He  0  0  0  0  0  0  0  0  0  0  0  0
    5.2957   -9.1538   29.3816 He  0  0  0  0  0  0  0  0  0  0  0  0
  1  4  1  0
  1 11  1  0
  2  3  4  0
  2  9  4  0
  2 12  2  0
  2 13  2  0
  2 14  3  0
  3  4  2  0
  3  6  2  0
  3  7  3  0
  3 14  2  0
  4  5  2  0
  4 10  1  0
  5  7  2  0
  5  8  4  0
  5  9  4  0
  5 10  4  0
  5 11  3  0
  5 12  2  0
  6  9  4  0
  6 12  4  0
  6 13  3  0
  6 14  4  0
  7  9  4  0
  7 10  1  0
  7 13  4  0
  9 10  2  0
  9 11  4  0
 10 11  4  0
 10 13  3  0
 11 14  4  0
 12 14  3  0
M  END
$$$$

 Created by Python create_sdf_string function

 28  1  0  0  0  0  0  0  0  0999 V2000
    5.1151   -7.1566   27.1912 C   0  0  0  0  0  0  0  0  0  0  0  0
    2.6018   -5.2954   27.6981 C   0  0  0  0  0  0  0  0  0  0  0  0
    1.1623  -10.5406   17.5877 C   0  0  0  0  0  0  0  0  0  0  0  0
    1.5276   -4.0383   27.4802 C   0  0  0  0  0  0  0  0  0  0  0  0
    1.9410   -6.2504   28.1662 C   0  0  0  0  0  0  0  0  0  0  0  0
    3.0712  -10.9034   16.9517 C   0  0  0  0  0  0  0  0  0  0  0  0
    5.1304   -7.4563   26.0772 C   0  0  0  0  0  0  0  0  0  0  0  0
    2.1870   -6.7123   28.2090 C   0  0  0  0  0  0  0  0  0  0  0  0
    3.6031  -10.2796   16.2609 C   0  0  0  0  0  0  0  0  0  0  0  0
    5.2696   -7.4425   27.7424 C   0  0  0  0  0  0  0  0  0  0  0  0
    2.5812   -5.5427   28.8409 C   0  0  0  0  0  0  0  0  0  0  0  0
    2.9029   -9.8158   16.9254 C   0  0  0  0  0  0  0  0  0  0  0  0
    4.0110  -11.0174   16.9295 C   0  0  0  0  0  0  0  0  0  0  0  0
    2.4866   -8.1180   27.7595 C   0  0  0  0  0  0  0  0  0  0  0  0
    3.1750   -6.6102   30.3081 C   0  0  0  0  0  0  0  0  0  0  0  0
    3.2406   -7.6411   30.0869 C   0  0  0  0  0  0  0  0  0  0  0  0
    1.3275   -5.1090   26.9652 C   0  0  0  0  0  0  0  0  0  0  0  0
    2.6032   -7.9244   28.9504 C   0  0  0  0  0  0  0  0  0  0  0  0
    1.1622   -9.6931   17.1581 C   0  0  0  0  0  0  0  0  0  0  0  0
    1.9048  -10.2314   15.8347 C   0  0  0  0  0  0  0  0  0  0  0  0
    4.7398   -7.9334   28.5908 C   0  0  0  0  0  0  0  0  0  0  0  0
    2.3542   -6.1736   26.7479 C   0  0  0  0  0  0  0  0  0  0  0  0
    3.3117  -12.0805   15.2805 C   0  0  0  0  0  0  0  0  0  0  0  0
    2.2805  -11.6246   15.6802 C   0  0  0  0  0  0  0  0  0  0  0  0
    0.0928   -4.7484   26.7363 C   0  0  0  0  0  0  0  0  0  0  0  0
    6.1595   -7.2947   27.4187 C   0  0  0  0  0  0  0  0  0  0  0  0
    7.0116   -7.6528   27.5600 C   0  0  0  0  0  0  0  0  0  0  0  0
    5.3198   -8.6329   29.1318 C   0  0  0  0  0  0  0  0  0  0  0  0
  3 19  4  0
M  END
$$$$

 Created by Python create_sdf_string function

 28 33  0  0  0  0  0  0  0  0999 V2000
    1.7266  -10.3431   17.9509 C   0  0  0  0  0  0  0  0  0  0  0  0
    0.7860   -3.3560   28.2058 Br  0  0  0  0  0  0  0  0  0  0  0  0
    2.4163  -10.8536   15.6792 N   0  0  0  0  0  0  0  0  0  0  0  0
    1.5075   -5.7810   28.8898 Cl  0  0  0  0  0  0  0  0  0  0  0  0
    2.4029  -11.0485   17.4084 Se  0  0  0  0  0  0  0  0  0  0  0  0
    2.8145   -5.9228   28.6920 N   0  0  0  0  0  0  0  0  0  0  0  0
    2.3992   -8.6870   17.9152 N   0  0  0  0  0  0  0  0  0  0  0  0
    4.8888  -11.0844   16.4047 S   0  0  0  0  0  0  0  0  0  0  0  0
    1.3013   -7.1386   27.9196 C   0  0  0  0  0  0  0  0  0  0  0  0
    3.6936   -7.4920   31.1365 P   0  0  0  0  0  0  0  0  0  0  0  0
    3.3137   -8.1182   32.2421 P   0  0  0  0  0  0  0  0  0  0  0  0
    0.3282   -4.3247   27.9065 C   0  0  0  0  0  0  0  0  0  0  0  0
    1.3593   -7.2499   26.9951 C   0  0  0  0  0  0  0  0  0  0  0  0
    2.2889  -12.7840   15.8652 N   0  0  0  0  0  0  0  0  0  0  0  0
    6.0889   -8.0097   26.5247 C   0  0  0  0  0  0  0  0  0  0  0  0
    3.5326   -9.1971   27.1066 He  0  0  0  0  0  0  0  0  0  0  0  0
    2.8851   -4.1891   28.8481 He  0  0  0  0  0  0  0  0  0  0  0  0
    2.4502   -6.7761   28.4926 He  0  0  0  0  0  0  0  0  0  0  0  0
    5.5517   -6.7007   25.6826 He  0  0  0  0  0  0  0  0  0  0  0  0
    5.3845   -8.4042   26.9489 He  0  0  0  0  0  0  0  0  0  0  0  0
    2.8709   -7.1708   28.0593 He  0  0  0  0  0  0  0  0  0  0  0  0
    0.3629   -9.9601   17.4697 He  0  0  0  0  0  0  0  0  0  0  0  0
    0.7420  -10.6628   15.6150 He  0  0  0  0  0  0  0  0  0  0  0  0
    5.3724   -9.6524   29.7322 He  0  0  0  0  0  0  0  0  0  0  0  0
    3.3486  -11.8883   16.4308 He  0  0  0  0  0  0  0  0  0  0  0  0
    1.5562   -4.1889   26.4335 He  0  0  0  0  0  0  0  0  0  0  0  0
    8.5667   -7.7519   26.4607 He  0  0  0  0  0  0  0  0  0  0  0  0
    5.3128   -7.9647   29.0386 He  0  0  0  0  0  0  0  0  0  0  0  0
  1  3  2  0
  1  5  1  0
  1  6  3  0
  2  6  2  0
  2  7  3  0
  2 10  3  0
  2 12  3  0
  2 15  2  0
  3  4  3  0
  3  5  3  0
  3 14  2  0
  4  8  2  0
  4  9  1  0
  4 13  3  0
  4 15  3  0
  5 12  2  0
  5 15  4  0
  6  7  3  0
  6 11  4  0
  6 13  4  0
  7  9  4  0
  7 15  2  0
  8 12  4  0
  8 13  3  0
  8 15  4  0
  9 10  3  0
  9 14  1  0
  9 15  1  0
 10 14  2  0
 10 15  2  0
 11 14  4  0
 12 15  4  0
 14 15  4  0
M  END
$$$$

 Created by Python create_sdf_string function

 28  8  0  0  0  0  0  0  0  0999 V2000
    3.5240   -8.3068   27.0715 C   0  0  0  0  0  0  0  0  0  0  0  0
    2.4487   -4.3259   28.5164 C   0  0  0  0  0  0  0  0  0  0  0  0
    1.3311  -10.2257   17.4327 C   0  0  0  0  0  0  0  0  0  0  0  0
    0.8930   -3.5255   27.9690 C   0  0  0  0  0  0  0  0  0  0  0  0
    2.9006   -7.0760   28.6386 C   0  0  0  0  0  0  0  0  0  0  0  0
    2.4363  -11.3367   15.8491 C   0  0  0  0  0  0  0  0  0  0  0  0
    5.3630   -7.4378   26.3444 C   0  0  0  0  0  0  0  0  0  0  0  0
    1.5415   -6.0080   28.6054 C   0  0  0  0  0  0  0  0  0  0  0  0
    2.3036  -10.9888   16.9406 C   0  0  0  0  0  0  0  0  0  0  0  0
    5.3549   -8.1096   27.5588 C   0  0  0  0  0  0  0  0  0  0  0  0
    2.8215   -5.9243   28.5657 C   0  0  0  0  0  0  0  0  0  0  0  0
    2.3558   -9.7223   17.3258 C   0  0  0  0  0  0  0  0  0  0  0  0
    4.4207  -11.2380   16.6617 C   0  0  0  0  0  0  0  0  0  0  0  0
    1.5071   -6.6441   28.1197 C   0  0  0  0  0  0  0  0  0  0  0  0
    3.7649   -7.7559   30.4286 C   0  0  0  0  0  0  0  0  0  0  0  0
    3.5662   -7.9169   31.0855 O   0  0  0  0  0  0  0  0  0  0  0  0
    0.4594   -4.4003   27.6401 C   0  0  0  0  0  0  0  0  0  0  0  0
    3.3998   -7.3411   28.2143 C   0  0  0  0  0  0  0  0  0  0  0  0
    0.4966   -9.8803   17.3712 C   0  0  0  0  0  0  0  0  0  0  0  0
    1.0077  -10.9012   15.9870 C   0  0  0  0  0  0  0  0  0  0  0  0
    5.2652   -8.9857   29.5873 C   0  0  0  0  0  0  0  0  0  0  0  0
    1.8781   -6.8330   27.2234 C   0  0  0  0  0  0  0  0  0  0  0  0
    3.4207  -11.7367   16.3095 C   0  0  0  0  0  0  0  0  0  0  0  0
    2.5360  -12.5791   15.7571 C   0  0  0  0  0  0  0  0  0  0  0  0
    1.3561   -4.3567   27.0918 C   0  0  0  0  0  0  0  0  0  0  0  0
    6.0408   -7.8138   26.9189 C   0  0  0  0  0  0  0  0  0  0  0  0
    7.1234   -7.8363   27.2539 C   0  0  0  0  0  0  0  0  0  0  0  0
    5.2299   -8.2364   28.7546 C   0  0  0  0  0  0  0  0  0  0  0  0
  3 19  1  0
  4 17  1  0
  7 26  1  0
  8 14  1  0
 13 23  4  0
 15 16  1  0
 17 25  1  0
 26 27  1  0
M  END
$$$$

 Created by Python create_sdf_string function

 28 28  0  0  0  0  0  0  0  0999 V2000
    2.5839   -2.9656   27.4094 F   0  0  0  0  0  0  0  0  0  0  0  0
    0.1389   -9.5514   17.6418 C   0  0  0  0  0  0  0  0  0  0  0  0
    4.3379   -8.3364   28.4296 C   0  0  0  0  0  0  0  0  0  0  0  0
    2.0467  -11.8735   15.3300 F   0  0  0  0  0  0  0  0  0  0  0  0
    1.4976   -4.4926   29.5289 F   0  0  0  0  0  0  0  0  0  0  0  0
    4.6202  -10.8820   17.8339 O   0  0  0  0  0  0  0  0  0  0  0  0
    1.0716   -7.2752   28.2307 N   0  0  0  0  0  0  0  0  0  0  0  0
    4.7890   -8.6996   31.8630 F   0  0  0  0  0  0  0  0  0  0  0  0
    1.9205   -7.6420   26.2437 P   0  0  0  0  0  0  0  0  0  0  0  0
    2.8497  -12.8800   14.0378 B   0  0  0  0  0  0  0  0  0  0  0  0
    2.3618   -4.3597   25.9762 F   0  0  0  0  0  0  0  0  0  0  0  0
    5.6987   -8.6765   27.8124 O   0  0  0  0  0  0  0  0  0  0  0  0
    3.0006   -8.1776   26.6958 He  0  0  0  0  0  0  0  0  0  0  0  0
   -0.1864   -3.7431   28.0122 He  0  0  0  0  0  0  0  0  0  0  0  0
    5.9753   -8.7689   26.2612 He  0  0  0  0  0  0  0  0  0  0  0  0
    1.7679  -10.1552   17.1544 He  0  0  0  0  0  0  0  0  0  0  0  0
    4.1816   -7.7611   26.6040 He  0  0  0  0  0  0  0  0  0  0  0  0
    1.3731   -5.9127   27.8152 He  0  0  0  0  0  0  0  0  0  0  0  0
    3.3794   -9.7550   17.5091 He  0  0  0  0  0  0  0  0  0  0  0  0
    4.0483  -10.0627   30.0476 He  0  0  0  0  0  0  0  0  0  0  0  0
    1.4709   -4.4988   24.9279 He  0  0  0  0  0  0  0  0  0  0  0  0
    1.9151   -7.7883   28.4030 He  0  0  0  0  0  0  0  0  0  0  0  0
   -1.3289   -9.3052   17.3660 He  0  0  0  0  0  0  0  0  0  0  0  0
    0.3359  -11.0990   16.5233 He  0  0  0  0  0  0  0  0  0  0  0  0
    3.5956   -7.8439   29.5099 He  0  0  0  0  0  0  0  0  0  0  0  0
    3.9087  -11.5552   16.2926 He  0  0  0  0  0  0  0  0  0  0  0  0
    6.6183   -6.6623   25.2644 He  0  0  0  0  0  0  0  0  0  0  0  0
    6.5339   -8.1178   28.1041 He  0  0  0  0  0  0  0  0  0  0  0  0
  1  2  3  0
  1  6  1  0
  1  7  4  0
  1  8  3  0
  1  9  3  0
  1 10  2  0
  1 12  3  0
  2  3  2  0
  2  6  4  0
  2  8  2  0
  2 11  2  0
  3  5  1  0
  3  8  1  0
  4  7  4  0
  4  8  4  0
  4 12  3  0
  5  6  3  0
  5  7  1  0
  5 11  4  0
  5 12  4  0
  6 10  4  0
  7  8  1  0
  7 10  4  0
  7 11  4  0
  7 12  1  0
  8 11  3  0
  9 10  3  0
  9 11  3  0
M  END
$$$$

 Created by Python create_sdf_string function

 28  6  0  0  0  0  0  0  0  0999 V2000
    3.2811   -7.7097   27.1283 C   0  0  0  0  0  0  0  0  0  0  0  0
    1.8053   -3.4077   27.4342 C   0  0  0  0  0  0  0  0  0  0  0  0
    0.4735   -9.7728   17.2376 C   0  0  0  0  0  0  0  0  0  0  0  0
    0.4974   -3.9959   27.8678 C   0  0  0  0  0  0  0  0  0  0  0  0
    4.5212   -8.3784   28.6625 C   0  0  0  0  0  0  0  0  0  0  0  0
    2.2571  -11.6874   15.7616 C   0  0  0  0  0  0  0  0  0  0  0  0
    5.8273   -7.9503   26.7727 C   0  0  0  0  0  0  0  0  0  0  0  0
    1.2434   -4.7521   28.7164 C   0  0  0  0  0  0  0  0  0  0  0  0
    1.3480  -10.0871   17.0720 C   0  0  0  0  0  0  0  0  0  0  0  0
    4.1671   -7.5773   26.8295 C   0  0  0  0  0  0  0  0  0  0  0  0
    1.4367   -5.7591   27.6321 C   0  0  0  0  0  0  0  0  0  0  0  0
    2.7515  -10.3259   17.3583 C   0  0  0  0  0  0  0  0  0  0  0  0
    3.7380  -10.6460   17.2481 C   0  0  0  0  0  0  0  0  0  0  0  0
    1.5749   -7.0240   28.2960 C   0  0  0  0  0  0  0  0  0  0  0  0
    4.4099   -9.2953   29.9290 C   0  0  0  0  0  0  0  0  0  0  0  0
    4.6114   -8.9236   30.6896 C   0  0  0  0  0  0  0  0  0  0  0  0
    1.6905   -4.7272   26.6141 C   0  0  0  0  0  0  0  0  0  0  0  0
    2.3210   -7.7594   28.5886 C   0  0  0  0  0  0  0  0  0  0  0  0
   -0.3617   -9.6219   17.2246 C   0  0  0  0  0  0  0  0  0  0  0  0
    0.7273  -10.8383   16.2790 C   0  0  0  0  0  0  0  0  0  0  0  0
    3.5695   -8.1829   29.4356 C   0  0  0  0  0  0  0  0  0  0  0  0
    2.3659   -7.1090   26.8221 C   0  0  0  0  0  0  0  0  0  0  0  0
    3.6657  -11.5124   16.3331 C   0  0  0  0  0  0  0  0  0  0  0  0
    2.7385  -12.2716   15.2498 C   0  0  0  0  0  0  0  0  0  0  0  0
    2.0410   -4.6899   26.8105 C   0  0  0  0  0  0  0  0  0  0  0  0
    5.5594   -7.3869   26.2682 C   0  0  0  0  0  0  0  0  0  0  0  0
    5.6595   -8.3929   28.0878 C   0  0  0  0  0  0  0  0  0  0  0  0
    6.2774   -8.2321   28.1089 C   0  0  0  0  0  0  0  0  0  0  0  0
  3  9  1  0
  6 24  1  0
  7 26  1  0
 12 13  4  0
 13 23  4  0
 17 25  1  0
M  END
$$$$

 Created by Python create_sdf_string function

 28 39  0  0  0  0  0  0  0  0999 V2000
    3.6350   -7.0105   27.2906 O   0  0  0  0  0  0  0  0  0  0  0  0
    2.4506   -4.4301   26.6427 O   0  0  0  0  0  0  0  0  0  0  0  0
    0.4317  -10.5054   17.6461 Br  0  0  0  0  0  0  0  0  0  0  0  0
    4.3232  -10.0203   29.3492 C   0  0  0  0  0  0  0  0  0  0  0  0
    3.0430  -12.3717   16.5968 F   0  0  0  0  0  0  0  0  0  0  0  0
    5.8523   -7.7276   26.4930 O   0  0  0  0  0  0  0  0  0  0  0  0
    1.7376   -5.3646   28.9506 F   0  0  0  0  0  0  0  0  0  0  0  0
    0.7862  -10.8394   15.7581 P   0  0  0  0  0  0  0  0  0  0  0  0
    0.2482   -5.3221   27.7308 P   0  0  0  0  0  0  0  0  0  0  0  0
    4.4105  -10.0542   16.1874 S   0  0  0  0  0  0  0  0  0  0  0  0
    3.4474   -9.9798   30.7793 Cl  0  0  0  0  0  0  0  0  0  0  0  0
    1.0760   -4.1453   25.4915 N   0  0  0  0  0  0  0  0  0  0  0  0
    2.7348   -7.6852   28.5150 Br  0  0  0  0  0  0  0  0  0  0  0  0
   -0.5332  -10.9687   17.0729 N   0  0  0  0  0  0  0  0  0  0  0  0
    3.9952  -12.0157   14.8774 O   0  0  0  0  0  0  0  0  0  0  0  0
    6.8104  -10.3178   28.0746 O   0  0  0  0  0  0  0  0  0  0  0  0
   -0.4280   -3.1484   26.4998 He  0  0  0  0  0  0  0  0  0  0  0  0
    4.8227  -10.4998   26.8609 He  0  0  0  0  0  0  0  0  0  0  0  0
    3.0899  -10.4086   18.0183 He  0  0  0  0  0  0  0  0  0  0  0  0
    4.4132   -7.2937   28.6258 He  0  0  0  0  0  0  0  0  0  0  0  0
    4.2837  -10.3194   30.6968 He  0  0  0  0  0  0  0  0  0  0  0  0
    0.6607  -11.6141   16.8529 He  0  0  0  0  0  0  0  0  0  0  0  0
    3.0272   -8.3629   27.4596 He  0  0  0  0  0  0  0  0  0  0  0  0
    2.5640   -7.4698   26.0079 He  0  0  0  0  0  0  0  0  0  0  0  0
    2.5521  -12.9440   16.3852 He  0  0  0  0  0  0  0  0  0  0  0  0
    0.6741   -6.0011   25.9654 He  0  0  0  0  0  0  0  0  0  0  0  0
    4.4506   -7.4464   26.6669 He  0  0  0  0  0  0  0  0  0  0  0  0
    5.6224   -9.9411   26.5490 He  0  0  0  0  0  0  0  0  0  0  0  0
  1  2  1  0
  1  4  1  0
  1  7  2  0
  1  8  1  0
  1  9  4  0
  1 11  3  0
  1 13  2  0
  1 15  4  0
  2  6  2  0
  2  7  1  0
  2 10  3  0
  2 12  3  0
  2 13  3  0
  3  7  4  0
  3  8  4  0
  3 11  4  0
  4  5  3  0
  4  6  3  0
  4 11  1  0
  4 14  2  0
  4 16  1  0
  5  8  3  0
  5  9  4  0
  5 10  2  0
  5 15  1  0
  6  9  3  0
  6 15  1  0
  6 16  4  0
  7 12  3  0
  8 10  4  0
  8 12  4  0
  9 11  1  0
  9 15  4  0
  9 16  1  0
 10 16  4  0
 11 12  3  0
 12 14  1  0
 13 15  4  0
 13 16  2  0
M  END
$$$$

 Created by Python create_sdf_string function

 28 10  0  0  0  0  0  0  0  0999 V2000
    3.1433   -6.5779   27.3255 C   0  0  0  0  0  0  0  0  0  0  0  0
    2.0821   -4.7497   26.9542 C   0  0  0  0  0  0  0  0  0  0  0  0
    0.6292  -10.3776   17.5205 C   0  0  0  0  0  0  0  0  0  0  0  0
   -0.0000   -3.7623   26.9418 O   0  0  0  0  0  0  0  0  0  0  0  0
    4.2510   -9.6528   29.4474 C   0  0  0  0  0  0  0  0  0  0  0  0
    3.1270  -12.0896   16.1532 C   0  0  0  0  0  0  0  0  0  0  0  0
    5.4794   -7.6123   26.6089 O   0  0  0  0  0  0  0  0  0  0  0  0
    1.6514   -5.2805   28.3843 C   0  0  0  0  0  0  0  0  0  0  0  0
    0.9444  -11.0704   16.3544 C   0  0  0  0  0  0  0  0  0  0  0  0
    4.8598   -9.4339   27.6658 C   0  0  0  0  0  0  0  0  0  0  0  0
    0.2461   -5.1046   27.4724 C   0  0  0  0  0  0  0  0  0  0  0  0
    2.5837  -10.3879   17.4113 C   0  0  0  0  0  0  0  0  0  0  0  0
    3.8775  -10.8037   16.7374 C   0  0  0  0  0  0  0  0  0  0  0  0
    4.0501   -7.6166   28.7242 O   0  0  0  0  0  0  0  0  0  0  0  0
    3.7895   -9.8257   30.2863 C   0  0  0  0  0  0  0  0  0  0  0  0
    4.3488  -10.1784   30.4369 O   0  0  0  0  0  0  0  0  0  0  0  0
    1.0986   -4.0241   26.7504 C   0  0  0  0  0  0  0  0  0  0  0  0
    2.5672   -7.4011   28.4489 C   0  0  0  0  0  0  0  0  0  0  0  0
   -0.2006  -10.6821   17.1699 C   0  0  0  0  0  0  0  0  0  0  0  0
    0.9942  -11.4410   16.9281 C   0  0  0  0  0  0  0  0  0  0  0  0
    3.2067   -8.1881   27.5806 C   0  0  0  0  0  0  0  0  0  0  0  0
    2.7350   -6.9846   26.5945 C   0  0  0  0  0  0  0  0  0  0  0  0
    3.8147  -12.1691   15.3786 O   0  0  0  0  0  0  0  0  0  0  0  0
    2.5102  -12.4784   16.2010 C   0  0  0  0  0  0  0  0  0  0  0  0
    0.9864   -5.8265   26.8449 C   0  0  0  0  0  0  0  0  0  0  0  0
    4.3657   -7.3403   26.6586 C   0  0  0  0  0  0  0  0  0  0  0  0
    5.2138   -8.8866   27.1332 C   0  0  0  0  0  0  0  0  0  0  0  0
    5.9176   -9.6298   28.6199 O   0  0  0  0  0  0  0  0  0  0  0  0
  3 12  4  0
  4 11  1  0
  4 17  1  0
  5 15  1  0
  6 23  1  0
  6 24  1  0
 10 27  1  0
 11 25  1  0
 12 13  4  0
 15 16  1  0
M  END
$$$$

 Created by Python create_sdf_string function

 28 11  0  0  0  0  0  0  0  0999 V2000
    2.1063   -4.6503   27.1051 F   0  0  0  0  0  0  0  0  0  0  0  0
    4.0266  -11.8709   16.0248 S   0  0  0  0  0  0  0  0  0  0  0  0
    5.7338   -8.3522   26.6775 O   0  0  0  0  0  0  0  0  0  0  0  0
    5.4870   -6.4349   27.7905 S   0  0  0  0  0  0  0  0  0  0  0  0
    1.2536  -11.2111   15.4945 I   0  0  0  0  0  0  0  0  0  0  0  0
    5.4718   -7.5218   27.0806 O   0  0  0  0  0  0  0  0  0  0  0  0
    4.8287  -11.9077   13.5518 C   0  0  0  0  0  0  0  0  0  0  0  0
    3.3020  -12.2014   15.7065 C   0  0  0  0  0  0  0  0  0  0  0  0
    5.3360   -9.8984   25.7707 N   0  0  0  0  0  0  0  0  0  0  0  0
    1.5617   -8.4805   28.3078 He  0  0  0  0  0  0  0  0  0  0  0  0
   -0.4792  -10.3155   16.9499 He  0  0  0  0  0  0  0  0  0  0  0  0
    0.2227   -4.1478   26.7436 He  0  0  0  0  0  0  0  0  0  0  0  0
    3.2700  -10.7483   29.8439 He  0  0  0  0  0  0  0  0  0  0  0  0
    1.5198   -4.6709   28.7775 He  0  0  0  0  0  0  0  0  0  0  0  0
    1.1245  -12.6937   17.0608 He  0  0  0  0  0  0  0  0  0  0  0  0
    5.4797   -9.7294   26.1074 He  0  0  0  0  0  0  0  0  0  0  0  0
    0.4775   -5.9800   27.5314 He  0  0  0  0  0  0  0  0  0  0  0  0
    3.1653  -10.3733   16.0118 He  0  0  0  0  0  0  0  0  0  0  0  0
    3.9600  -10.9720   17.1570 He  0  0  0  0  0  0  0  0  0  0  0  0
    4.2901   -9.7214   29.1164 He  0  0  0  0  0  0  0  0  0  0  0  0
    3.3924   -8.8508   30.6735 He  0  0  0  0  0  0  0  0  0  0  0  0
   -1.5135   -3.8507   27.4008 He  0  0  0  0  0  0  0  0  0  0  0  0
    2.8429   -6.9244   28.7680 He  0  0  0  0  0  0  0  0  0  0  0  0
   -0.0808  -10.3038   18.2054 He  0  0  0  0  0  0  0  0  0  0  0  0
    0.4059   -5.8857   27.2698 He  0  0  0  0  0  0  0  0  0  0  0  0
    1.4486   -6.5445   27.6408 He  0  0  0  0  0  0  0  0  0  0  0  0
    2.0628   -7.8077   27.2804 He  0  0  0  0  0  0  0  0  0  0  0  0
    6.7432  -10.2256   27.7221 He  0  0  0  0  0  0  0  0  0  0  0  0
  1  7  3  0
  2  3  2  0
  2  4  1  0
  3  4  1  0
  3  5  1  0
  3  8  4  0
  3  9  2  0
  4  7  3  0
  5  6  4  0
  6  7  4  0
  6  9  4  0
M  END
$$$$

 Created by Python create_sdf_string function

 28  8  0  0  0  0  0  0  0  0999 V2000
    2.0296   -8.4448   28.2812 O   0  0  0  0  0  0  0  0  0  0  0  0
    2.0097   -5.1004   27.1590 C   0  0  0  0  0  0  0  0  0  0  0  0
    0.3135  -10.5811   17.1064 C   0  0  0  0  0  0  0  0  0  0  0  0
    0.0407   -4.3262   27.1064 C   0  0  0  0  0  0  0  0  0  0  0  0
    3.4949  -10.0643   29.5693 C   0  0  0  0  0  0  0  0  0  0  0  0
    4.0853  -11.6839   15.9191 C   0  0  0  0  0  0  0  0  0  0  0  0
    5.4833   -7.7083   27.0192 C   0  0  0  0  0  0  0  0  0  0  0  0
    1.2461   -4.7501   28.1815 C   0  0  0  0  0  0  0  0  0  0  0  0
    1.1723  -11.6526   17.1063 C   0  0  0  0  0  0  0  0  0  0  0  0
    5.2872   -8.6734   26.9193 C   0  0  0  0  0  0  0  0  0  0  0  0
    0.5360   -5.8215   27.5457 C   0  0  0  0  0  0  0  0  0  0  0  0
    2.8024  -10.8450   16.3982 C   0  0  0  0  0  0  0  0  0  0  0  0
    3.4885  -11.0086   16.8740 C   0  0  0  0  0  0  0  0  0  0  0  0
    4.7609   -6.5263   27.5227 C   0  0  0  0  0  0  0  0  0  0  0  0
    4.0102   -9.2846   28.8519 C   0  0  0  0  0  0  0  0  0  0  0  0
    3.3983   -9.0133   29.7757 C   0  0  0  0  0  0  0  0  0  0  0  0
   -0.9734   -4.3017   27.1820 O   0  0  0  0  0  0  0  0  0  0  0  0
    2.8789   -7.0465   28.2316 C   0  0  0  0  0  0  0  0  0  0  0  0
    0.6226  -10.4716   17.6864 C   0  0  0  0  0  0  0  0  0  0  0  0
    1.7120  -11.1608   15.8588 C   0  0  0  0  0  0  0  0  0  0  0  0
    4.9411   -7.2453   27.1590 C   0  0  0  0  0  0  0  0  0  0  0  0
    0.2718   -5.5577   27.2374 C   0  0  0  0  0  0  0  0  0  0  0  0
    4.1747  -11.8426   14.5737 C   0  0  0  0  0  0  0  0  0  0  0  0
    3.3763  -12.0794   15.4394 C   0  0  0  0  0  0  0  0  0  0  0  0
    1.6620   -6.2815   27.4876 C   0  0  0  0  0  0  0  0  0  0  0  0
    2.4453   -7.6211   27.5609 C   0  0  0  0  0  0  0  0  0  0  0  0
    5.1038   -8.7356   26.5234 O   0  0  0  0  0  0  0  0  0  0  0  0
    5.8620   -9.2934   28.1781 O   0  0  0  0  0  0  0  0  0  0  0  0
  3 19  1  0
  4 17  1  0
  5 16  1  0
  6 13  4  0
 10 27  1  0
 12 13  4  0
 15 16  1  0
 23 24  1  0
M  END
$$$$

 Created by Python create_sdf_string function

 28 16  0  0  0  0  0  0  0  0999 V2000
   -0.3851   -3.2741   27.9502 S   0  0  0  0  0  0  0  0  0  0  0  0
    3.5150  -10.5432   29.6163 N   0  0  0  0  0  0  0  0  0  0  0  0
    5.1850  -11.3262   14.9645 O   0  0  0  0  0  0  0  0  0  0  0  0
    5.0797   -8.8285   27.0105 Cl  0  0  0  0  0  0  0  0  0  0  0  0
    0.0396   -8.4222   27.7579 N   0  0  0  0  0  0  0  0  0  0  0  0
    6.0511   -5.6672   27.9239 F   0  0  0  0  0  0  0  0  0  0  0  0
    3.1642   -5.7621   27.7429 N   0  0  0  0  0  0  0  0  0  0  0  0
    4.7598   -9.0016   26.7263 N   0  0  0  0  0  0  0  0  0  0  0  0
    6.1554   -7.6159   28.6917 O   0  0  0  0  0  0  0  0  0  0  0  0
    1.9651   -8.4419   28.1702 He  0  0  0  0  0  0  0  0  0  0  0  0
    2.2965   -5.3366   26.0679 He  0  0  0  0  0  0  0  0  0  0  0  0
    0.4732   -9.8161   16.0404 He  0  0  0  0  0  0  0  0  0  0  0  0
    3.3432   -8.0081   25.9767 He  0  0  0  0  0  0  0  0  0  0  0  0
    1.1386   -4.5514   28.3268 He  0  0  0  0  0  0  0  0  0  0  0  0
    0.1704  -13.1228   19.3015 He  0  0  0  0  0  0  0  0  0  0  0  0
    1.3168  -10.5257   17.5289 He  0  0  0  0  0  0  0  0  0  0  0  0
    3.6330  -10.8364   17.5252 He  0  0  0  0  0  0  0  0  0  0  0  0
    4.5721   -6.9999   27.6819 He  0  0  0  0  0  0  0  0  0  0  0  0
    3.4975   -8.8541   28.6085 He  0  0  0  0  0  0  0  0  0  0  0  0
    3.6248   -8.2210   29.9794 He  0  0  0  0  0  0  0  0  0  0  0  0
   -2.0731   -4.7697   26.2170 He  0  0  0  0  0  0  0  0  0  0  0  0
    3.2478   -8.5506   27.6664 He  0  0  0  0  0  0  0  0  0  0  0  0
    0.2576  -10.9468   17.5375 He  0  0  0  0  0  0  0  0  0  0  0  0
    2.2955  -11.2849   15.1260 He  0  0  0  0  0  0  0  0  0  0  0  0
    0.5352   -6.1212   27.2987 He  0  0  0  0  0  0  0  0  0  0  0  0
    3.9607  -10.5120   14.8829 He  0  0  0  0  0  0  0  0  0  0  0  0
    3.3184  -12.9278   16.2019 He  0  0  0  0  0  0  0  0  0  0  0  0
    2.3722   -6.2804   28.2325 He  0  0  0  0  0  0  0  0  0  0  0  0
  1  5  4  0
  1  6  1  0
  1  7  2  0
  2  4  2  0
  2  7  2  0
  3  7  4  0
  3  9  4  0
  4  8  4  0
  5  6  2  0
  5  7  1  0
  5  8  2  0
  5  9  3  0
  6  7  4  0
  6  8  1  0
  6  9  2  0
  7  8  4  0
M  END
$$$$

 Created by Python create_sdf_string function

 28  3  0  0  0  0  0  0  0  0999 V2000
    2.1559   -8.1292   28.2082 C   0  0  0  0  0  0  0  0  0  0  0  0
    1.8635   -5.4829   26.8062 C   0  0  0  0  0  0  0  0  0  0  0  0
    1.2581  -10.4009   16.5344 C   0  0  0  0  0  0  0  0  0  0  0  0
   -0.0661   -4.0585   27.4953 C   0  0  0  0  0  0  0  0  0  0  0  0
    3.4507  -10.0030   29.3743 C   0  0  0  0  0  0  0  0  0  0  0  0
    4.4199  -11.3703   15.5104 C   0  0  0  0  0  0  0  0  0  0  0  0
    3.4984   -7.4383   26.5132 C   0  0  0  0  0  0  0  0  0  0  0  0
    0.7897   -4.7334   27.6843 C   0  0  0  0  0  0  0  0  0  0  0  0
    0.8481  -11.7618   18.1307 C   0  0  0  0  0  0  0  0  0  0  0  0
    5.2477   -8.1902   27.2309 C   0  0  0  0  0  0  0  0  0  0  0  0
    0.7968   -7.4409   27.9414 C   0  0  0  0  0  0  0  0  0  0  0  0
    1.2357  -10.6241   17.4659 C   0  0  0  0  0  0  0  0  0  0  0  0
    3.2066  -10.8557   17.0790 C   0  0  0  0  0  0  0  0  0  0  0  0
    4.7032   -6.9852   27.6480 C   0  0  0  0  0  0  0  0  0  0  0  0
    3.5590   -8.7624   28.8591 C   0  0  0  0  0  0  0  0  0  0  0  0
    3.6449   -8.4899   29.5788 C   0  0  0  0  0  0  0  0  0  0  0  0
   -1.0322   -4.9822   26.8640 O   0  0  0  0  0  0  0  0  0  0  0  0
    3.2346   -8.2995   27.8507 C   0  0  0  0  0  0  0  0  0  0  0  0
    0.5893  -10.8751   17.6919 C   0  0  0  0  0  0  0  0  0  0  0  0
    2.5558  -11.3263   15.6310 C   0  0  0  0  0  0  0  0  0  0  0  0
    5.7740   -6.2027   27.7436 C   0  0  0  0  0  0  0  0  0  0  0  0
    0.2561   -5.6526   27.3004 C   0  0  0  0  0  0  0  0  0  0  0  0
    3.7788  -11.0259   15.5100 C   0  0  0  0  0  0  0  0  0  0  0  0
    3.0144  -12.0960   16.2939 C   0  0  0  0  0  0  0  0  0  0  0  0
    2.8176   -5.9548   27.5718 C   0  0  0  0  0  0  0  0  0  0  0  0
    2.1406   -6.2515   27.8061 C   0  0  0  0  0  0  0  0  0  0  0  0
    4.7585   -8.3051   27.1258 C   0  0  0  0  0  0  0  0  0  0  0  0
    6.0449   -7.4985   28.3256 C   0  0  0  0  0  0  0  0  0  0  0  0
  6 23  1  0
 10 27  1  0
 15 16  1  0
M  END
$$$$

 Created by Python create_sdf_string function

 28 26  0  0  0  0  0  0  0  0999 V2000
    0.3106   -3.2404   27.5795 C   0  0  0  0  0  0  0  0  0  0  0  0
    3.1542   -9.5406   27.8340 F   0  0  0  0  0  0  0  0  0  0  0  0
    2.4902   -5.7637   26.1211 P   0  0  0  0  0  0  0  0  0  0  0  0
   -0.1277   -4.9509   26.7023 Br  0  0  0  0  0  0  0  0  0  0  0  0
    0.6262  -12.3671   17.4648 C   0  0  0  0  0  0  0  0  0  0  0  0
    5.5914   -7.7699   25.9323 F   0  0  0  0  0  0  0  0  0  0  0  0
    1.5284   -9.6954   29.2607 F   0  0  0  0  0  0  0  0  0  0  0  0
    4.8241   -8.8196   28.2784 F   0  0  0  0  0  0  0  0  0  0  0  0
    3.2943  -11.8681   15.0999 O   0  0  0  0  0  0  0  0  0  0  0  0
    0.4812   -5.7350   26.3001 N   0  0  0  0  0  0  0  0  0  0  0  0
    2.6448  -10.3026   15.8365 S   0  0  0  0  0  0  0  0  0  0  0  0
    2.5266  -11.9302   16.3100 C   0  0  0  0  0  0  0  0  0  0  0  0
    6.5000   -8.2928   28.4204 C   0  0  0  0  0  0  0  0  0  0  0  0
    1.4254   -9.3986   29.4646 He  0  0  0  0  0  0  0  0  0  0  0  0
    1.1118   -7.1992   26.5043 He  0  0  0  0  0  0  0  0  0  0  0  0
    1.2408  -10.8402   17.2542 He  0  0  0  0  0  0  0  0  0  0  0  0
    4.6876  -12.1131   13.9561 He  0  0  0  0  0  0  0  0  0  0  0  0
    2.9299  -10.0603   16.0119 He  0  0  0  0  0  0  0  0  0  0  0  0
    2.6865  -11.4940   16.3663 He  0  0  0  0  0  0  0  0  0  0  0  0
    4.3088   -6.9165   27.6201 He  0  0  0  0  0  0  0  0  0  0  0  0
    2.2766   -9.3992   29.8007 He  0  0  0  0  0  0  0  0  0  0  0  0
   -2.0005   -3.6196   26.8447 He  0  0  0  0  0  0  0  0  0  0  0  0
    2.3372   -7.6891   27.9365 He  0  0  0  0  0  0  0  0  0  0  0  0
    0.6433   -9.6431   18.5964 He  0  0  0  0  0  0  0  0  0  0  0  0
    6.7197   -5.2249   28.0006 He  0  0  0  0  0  0  0  0  0  0  0  0
    3.7571   -5.4444   28.2307 He  0  0  0  0  0  0  0  0  0  0  0  0
    1.4740   -7.1438   28.8965 He  0  0  0  0  0  0  0  0  0  0  0  0
    4.4028   -6.8255   26.5494 He  0  0  0  0  0  0  0  0  0  0  0  0
  1  2  1  0
  1 10  2  0
  1 13  4  0
  2  5  4  0
  2  7  1  0
  2 13  3  0
  3  6  4  0
  3  7  1  0
  3  8  3  0
  3 11  3  0
  4  5  1  0
  4  7  4  0
  4 11  2  0
  4 13  4  0
  5  7  4  0
  5  8  1  0
  5 10  2  0
  6  7  3  0
  6  8  4  0
  6 12  3  0
  7 13  3  0
  8 10  1  0
  8 13  1  0
  9 11  3  0
  9 13  1  0
 10 13  1  0
M  END
$$$$

 Created by Python create_sdf_string function

 28  9  0  0  0  0  0  0  0  0999 V2000
    1.3307   -9.2642   29.3206 C   0  0  0  0  0  0  0  0  0  0  0  0
    1.3847   -6.6913   27.2082 C   0  0  0  0  0  0  0  0  0  0  0  0
    1.1830  -10.6205   17.2989 C   0  0  0  0  0  0  0  0  0  0  0  0
    0.3552   -3.8742   27.2861 C   0  0  0  0  0  0  0  0  0  0  0  0
    3.0385   -8.9967   28.2234 C   0  0  0  0  0  0  0  0  0  0  0  0
    4.1643  -11.8600   14.5347 C   0  0  0  0  0  0  0  0  0  0  0  0
    2.1287   -5.7555   26.7815 C   0  0  0  0  0  0  0  0  0  0  0  0
   -0.1102   -4.7741   26.9871 C   0  0  0  0  0  0  0  0  0  0  0  0
    1.0003  -11.6923   17.5003 C   0  0  0  0  0  0  0  0  0  0  0  0
    5.3700   -7.4632   26.5135 C   0  0  0  0  0  0  0  0  0  0  0  0
    1.6501   -9.2942   29.3149 C   0  0  0  0  0  0  0  0  0  0  0  0
    2.8159  -10.3251   15.9628 C   0  0  0  0  0  0  0  0  0  0  0  0
    2.3891  -11.6610   16.3638 C   0  0  0  0  0  0  0  0  0  0  0  0
    4.4799   -7.1462   27.4387 C   0  0  0  0  0  0  0  0  0  0  0  0
    5.0055   -8.3291   28.0075 C   0  0  0  0  0  0  0  0  0  0  0  0
    2.2974   -9.3895   29.5158 C   0  0  0  0  0  0  0  0  0  0  0  0
   -1.1443   -4.3928   26.7662 O   0  0  0  0  0  0  0  0  0  0  0  0
    2.3198   -7.7518   27.8843 C   0  0  0  0  0  0  0  0  0  0  0  0
    0.9643  -10.2274   17.7130 C   0  0  0  0  0  0  0  0  0  0  0  0
    3.6158  -12.0963   14.8462 C   0  0  0  0  0  0  0  0  0  0  0  0
    6.2504   -6.1965   27.6263 C   0  0  0  0  0  0  0  0  0  0  0  0
    0.6049   -5.4969   26.7971 C   0  0  0  0  0  0  0  0  0  0  0  0
    2.8097  -10.4929   15.8076 C   0  0  0  0  0  0  0  0  0  0  0  0
    2.4405  -11.8709   16.2459 C   0  0  0  0  0  0  0  0  0  0  0  0
    3.6760   -5.6266   27.6195 C   0  0  0  0  0  0  0  0  0  0  0  0
    1.3523   -7.2086   28.3212 C   0  0  0  0  0  0  0  0  0  0  0  0
    4.7366   -6.9644   27.0157 C   0  0  0  0  0  0  0  0  0  0  0  0
    6.1388   -7.8018   28.0067 C   0  0  0  0  0  0  0  0  0  0  0  0
  1 11  1  0
  3 19  4  0
  4  8  1  0
  6 20  1  0
  8 17  1  0
 11 16  1  0
 12 23  4  0
 13 24  4  0
 15 28  1  0
M  END
$$$$

 Created by Python create_sdf_string function

 28 72  0  0  0  0  0  0  0  0999 V2000
    2.4672  -10.5059   29.0505 C   0  0  0  0  0  0  0  0  0  0  0  0
   -1.3467   -5.9466   27.4932 C   0  0  0  0  0  0  0  0  0  0  0  0
   -0.2486  -10.2850   18.1097 F   0  0  0  0  0  0  0  0  0  0  0  0
   -2.0854   -2.9939   26.8194 S   0  0  0  0  0  0  0  0  0  0  0  0
    2.4586   -9.6068   29.2418 O   0  0  0  0  0  0  0  0  0  0  0  0
    4.6134  -12.4859   15.3742 F   0  0  0  0  0  0  0  0  0  0  0  0
    1.1828   -6.5938   26.8964 N   0  0  0  0  0  0  0  0  0  0  0  0
    5.6955   -7.3265   27.8063 Se  0  0  0  0  0  0  0  0  0  0  0  0
    1.0847   -8.9245   30.5537 F   0  0  0  0  0  0  0  0  0  0  0  0
    3.2647   -7.8969   26.6853 O   0  0  0  0  0  0  0  0  0  0  0  0
    5.6101   -8.4832   26.2648 Cl  0  0  0  0  0  0  0  0  0  0  0  0
    1.9403   -8.8162   29.0232 C   0  0  0  0  0  0  0  0  0  0  0  0
    3.3701   -7.0466   28.2391 F   0  0  0  0  0  0  0  0  0  0  0  0
    1.0737   -9.8526   17.6553 Cl  0  0  0  0  0  0  0  0  0  0  0  0
    2.8180  -10.8739   14.7717 Cl  0  0  0  0  0  0  0  0  0  0  0  0
    1.2167   -6.3920   25.4435 C   0  0  0  0  0  0  0  0  0  0  0  0
    2.4163  -12.2659   16.7320 Se  0  0  0  0  0  0  0  0  0  0  0  0
    6.2870   -4.7362   27.1247 C   0  0  0  0  0  0  0  0  0  0  0  0
    3.5310   -7.4962   27.5161 C   0  0  0  0  0  0  0  0  0  0  0  0
    6.7129   -7.6094   28.5532 Cl  0  0  0  0  0  0  0  0  0  0  0  0
   -0.3630   -4.4788   27.3603 He  0  0  0  0  0  0  0  0  0  0  0  0
    0.6358  -11.5993   17.7145 He  0  0  0  0  0  0  0  0  0  0  0  0
    3.2946  -11.1657   15.7268 He  0  0  0  0  0  0  0  0  0  0  0  0
    1.0355  -11.6938   14.7865 He  0  0  0  0  0  0  0  0  0  0  0  0
   -0.7464   -3.8280   26.8085 He  0  0  0  0  0  0  0  0  0  0  0  0
    7.3628   -4.8852   27.4778 He  0  0  0  0  0  0  0  0  0  0  0  0
    4.4214   -9.8686   15.1944 He  0  0  0  0  0  0  0  0  0  0  0  0
    0.5777   -6.8014   27.4248 He  0  0  0  0  0  0  0  0  0  0  0  0
  1  2  1  0
  1  4  2  0
  1  5  4  0
  1  9  1  0
  1 10  2  0
  1 11  4  0
  1 13  1  0
  1 18  3  0
  2  5  4  0
  2  7  2  0
  2 12  1  0
  2 16  1  0
  2 17  4  0
  2 19  3  0
  3  4  4  0
  3  6  1  0
  3  7  4  0
  3  9  2  0
  3 11  4  0
  3 12  1  0
  3 14  1  0
  3 16  3  0
  3 18  3  0
  4  5  1  0
  4  8  2  0
  4  9  4  0
  4 12  1  0
  4 14  1  0
  4 17  4  0
  4 18  3  0
  5  6  1  0
  5 11  1  0
  5 12  4  0
  5 20  1  0
  6  7  1  0
  6  8  3  0
  6 11  3  0
  6 19  3  0
  7 10  4  0
  7 11  3  0
  7 13  3  0
  7 15  3  0
  7 17  1  0
  7 18  1  0
  8  9  2  0
  8 16  1  0
  8 20  4  0
  9 10  3  0
  9 11  3  0
  9 12  1  0
  9 13  3  0
  9 17  4  0
  9 19  3  0
 10 11  3  0
 10 12  4  0
 10 13  1  0
 10 17  4  0
 10 18  4  0
 11 13  1  0
 11 14  1  0
 11 15  1  0
 11 17  1  0
 12 16  2  0
 12 17  1  0
 13 18  1  0
 14 18  4  0
 14 20  3  0
 15 16  4  0
 16 18  4  0
 16 20  4  0
 17 18  3  0
 19 20  2  0
M  END
$$$$

 Created by Python create_sdf_string function

 28 10  0  0  0  0  0  0  0  0999 V2000
    2.3074   -9.5651   29.2684 C   0  0  0  0  0  0  0  0  0  0  0  0
   -0.7297   -5.3198   27.5107 C   0  0  0  0  0  0  0  0  0  0  0  0
    0.1624  -10.3058   17.7688 C   0  0  0  0  0  0  0  0  0  0  0  0
   -1.6137   -3.8079   26.7736 C   0  0  0  0  0  0  0  0  0  0  0  0
    2.4764   -9.5388   29.0232 C   0  0  0  0  0  0  0  0  0  0  0  0
    4.2588  -11.8591   15.2901 C   0  0  0  0  0  0  0  0  0  0  0  0
    1.1830   -6.3826   27.2908 C   0  0  0  0  0  0  0  0  0  0  0  0
   -0.4804   -4.6975   27.0222 C   0  0  0  0  0  0  0  0  0  0  0  0
    0.7671  -11.0786   17.6113 C   0  0  0  0  0  0  0  0  0  0  0  0
    5.6556   -7.4299   27.5067 C   0  0  0  0  0  0  0  0  0  0  0  0
    1.1539   -8.9106   29.8472 C   0  0  0  0  0  0  0  0  0  0  0  0
    3.5926  -11.2089   16.0816 C   0  0  0  0  0  0  0  0  0  0  0  0
    1.5333  -11.2685   15.7340 C   0  0  0  0  0  0  0  0  0  0  0  0
    3.1427   -7.6147   27.0241 C   0  0  0  0  0  0  0  0  0  0  0  0
    5.3868   -7.6053   26.6985 C   0  0  0  0  0  0  0  0  0  0  0  0
    1.8890   -8.5077   28.8266 C   0  0  0  0  0  0  0  0  0  0  0  0
   -0.4948   -4.1427   26.7751 C   0  0  0  0  0  0  0  0  0  0  0  0
    3.5120   -7.5269   27.6937 C   0  0  0  0  0  0  0  0  0  0  0  0
    0.8839  -10.0546   17.3579 C   0  0  0  0  0  0  0  0  0  0  0  0
    2.3636  -11.1622   15.3137 C   0  0  0  0  0  0  0  0  0  0  0  0
    6.9933   -5.6978   27.4905 C   0  0  0  0  0  0  0  0  0  0  0  0
    1.3156   -5.8545   26.7717 C   0  0  0  0  0  0  0  0  0  0  0  0
    4.2116  -10.6631   15.6181 C   0  0  0  0  0  0  0  0  0  0  0  0
    2.3118  -11.6323   16.6694 C   0  0  0  0  0  0  0  0  0  0  0  0
    6.2971   -5.7406   27.3424 C   0  0  0  0  0  0  0  0  0  0  0  0
    0.7741   -6.5217   27.6929 C   0  0  0  0  0  0  0  0  0  0  0  0
    3.5255   -7.4903   27.4796 C   0  0  0  0  0  0  0  0  0  0  0  0
    6.5377   -7.0895   27.6843 C   0  0  0  0  0  0  0  0  0  0  0  0
  1  5  4  0
  2  8  1  0
  3 19  1  0
  8 17  1  0
  9 19  4  0
 10 28  4  0
 11 16  1  0
 12 23  4  0
 13 20  4  0
 21 25  4  0
M  END
$$$$

 Created by Python create_sdf_string function

 28 35  0  0  0  0  0  0  0  0999 V2000
    2.0154  -10.1670   28.2588 O   0  0  0  0  0  0  0  0  0  0  0  0
   -1.4133   -3.8664   27.0894 Cl  0  0  0  0  0  0  0  0  0  0  0  0
    1.8620  -10.4955   28.5665 N   0  0  0  0  0  0  0  0  0  0  0  0
    0.4129  -12.8131   16.5346 P   0  0  0  0  0  0  0  0  0  0  0  0
    2.9733  -10.8101   30.0638 C   0  0  0  0  0  0  0  0  0  0  0  0
   -0.2111   -4.1193   27.2555 N   0  0  0  0  0  0  0  0  0  0  0  0
    2.0944   -7.1077   27.0560 P   0  0  0  0  0  0  0  0  0  0  0  0
   -0.1029   -9.9467   15.9984 C   0  0  0  0  0  0  0  0  0  0  0  0
    1.9244  -11.3654   15.1120 Cl  0  0  0  0  0  0  0  0  0  0  0  0
    8.1562   -4.6320   27.9883 F   0  0  0  0  0  0  0  0  0  0  0  0
    1.3968   -6.3867   25.8489 F   0  0  0  0  0  0  0  0  0  0  0  0
    3.4984  -11.3929   14.1804 F   0  0  0  0  0  0  0  0  0  0  0  0
    6.0926   -4.9090   26.3881 O   0  0  0  0  0  0  0  0  0  0  0  0
    3.5850   -6.9281   27.4402 N   0  0  0  0  0  0  0  0  0  0  0  0
   -1.3061   -4.2834   27.2070 He  0  0  0  0  0  0  0  0  0  0  0  0
   -0.2084   -8.7177   18.4247 He  0  0  0  0  0  0  0  0  0  0  0  0
    4.6147  -11.3012   15.5020 He  0  0  0  0  0  0  0  0  0  0  0  0
    1.3777   -5.3666   27.6815 He  0  0  0  0  0  0  0  0  0  0  0  0
   -0.1289   -4.4786   26.2379 He  0  0  0  0  0  0  0  0  0  0  0  0
    6.8677   -6.7521   27.6588 He  0  0  0  0  0  0  0  0  0  0  0  0
    5.1707  -12.7067   15.4963 He  0  0  0  0  0  0  0  0  0  0  0  0
    0.5508  -11.2544   17.6858 He  0  0  0  0  0  0  0  0  0  0  0  0
    3.0510   -7.1682   26.4376 He  0  0  0  0  0  0  0  0  0  0  0  0
    5.4308   -7.7783   27.7678 He  0  0  0  0  0  0  0  0  0  0  0  0
    0.7417   -8.9770   29.3172 He  0  0  0  0  0  0  0  0  0  0  0  0
    3.3115  -12.1083   15.6728 He  0  0  0  0  0  0  0  0  0  0  0  0
    0.5772   -6.0779   28.4383 He  0  0  0  0  0  0  0  0  0  0  0  0
    7.3647   -5.7735   27.8518 He  0  0  0  0  0  0  0  0  0  0  0  0
  1  3  1  0
  1  6  3  0
  1  8  4  0
  1  9  2  0
  1 11  3  0
  1 12  4  0
  2  4  1  0
  2  5  1  0
  2  7  4  0
  2  8  4  0
  2 10  3  0
  3  5  2  0
  3  7  4  0
  3 12  1  0
  4  6  1  0
  4  7  4  0
  4 14  2  0
  5 11  4  0
  6  9  1  0
  6 10  3  0
  6 11  1  0
  6 12  2  0
  6 14  4  0
  7 10  3  0
  8 11  1  0
  8 12  4  0
  8 14  3  0
  9 11  1  0
  9 13  3  0
 10 11  3  0
 10 12  2  0
 10 14  2  0
 11 12  2  0
 12 14  3  0
 13 14  2  0
M  END
$$$$

 Created by Python create_sdf_string function

 28  5  0  0  0  0  0  0  0  0999 V2000
    2.3008   -9.5359   28.1349 C   0  0  0  0  0  0  0  0  0  0  0  0
   -0.9052   -4.7224   27.2643 C   0  0  0  0  0  0  0  0  0  0  0  0
    0.4536   -9.9371   17.4430 C   0  0  0  0  0  0  0  0  0  0  0  0
   -1.1686   -4.1734   27.0776 C   0  0  0  0  0  0  0  0  0  0  0  0
    2.1824   -9.6452   28.5280 C   0  0  0  0  0  0  0  0  0  0  0  0
    4.1061  -11.5414   15.7700 C   0  0  0  0  0  0  0  0  0  0  0  0
    1.2226   -5.8560   27.1947 C   0  0  0  0  0  0  0  0  0  0  0  0
   -0.1107   -4.6219   26.8729 C   0  0  0  0  0  0  0  0  0  0  0  0
    0.9824  -11.8873   16.6319 C   0  0  0  0  0  0  0  0  0  0  0  0
    6.4585   -6.9177   27.5867 C   0  0  0  0  0  0  0  0  0  0  0  0
    2.6991  -10.0531   29.1378 C   0  0  0  0  0  0  0  0  0  0  0  0
    4.4076  -11.8439   15.3481 C   0  0  0  0  0  0  0  0  0  0  0  0
    0.8020  -10.8915   17.3142 C   0  0  0  0  0  0  0  0  0  0  0  0
    3.6152   -7.2284   27.0483 C   0  0  0  0  0  0  0  0  0  0  0  0
    5.3426   -7.3426   27.4357 C   0  0  0  0  0  0  0  0  0  0  0  0
    1.2972   -8.7430   28.8200 C   0  0  0  0  0  0  0  0  0  0  0  0
   -0.2382   -4.4945   27.1265 C   0  0  0  0  0  0  0  0  0  0  0  0
    2.3247   -7.4734   27.3595 C   0  0  0  0  0  0  0  0  0  0  0  0
    0.5494  -10.2232   16.2647 C   0  0  0  0  0  0  0  0  0  0  0  0
    2.3436  -11.3315   15.6236 C   0  0  0  0  0  0  0  0  0  0  0  0
    7.2958   -5.5537   27.6072 C   0  0  0  0  0  0  0  0  0  0  0  0
    1.6810   -6.1009   26.8038 C   0  0  0  0  0  0  0  0  0  0  0  0
    3.3536  -11.7076   14.7455 C   0  0  0  0  0  0  0  0  0  0  0  0
    2.8510  -11.8594   15.8630 C   0  0  0  0  0  0  0  0  0  0  0  0
    5.8109   -5.5310   27.1523 C   0  0  0  0  0  0  0  0  0  0  0  0
    0.6478   -6.5440   27.9608 C   0  0  0  0  0  0  0  0  0  0  0  0
    3.9741   -7.0525   27.2219 C   0  0  0  0  0  0  0  0  0  0  0  0
    6.9201   -6.0209   27.6326 C   0  0  0  0  0  0  0  0  0  0  0  0
  1  5  1  0
  5 11  1  0
  7 22  1  0
 14 27  1  0
 21 28  4  0
M  END
$$$$

 Created by Python create_sdf_string function

 28 37  0  0  0  0  0  0  0  0999 V2000
    1.1264  -10.8822   28.5137 C   0  0  0  0  0  0  0  0  0  0  0  0
   -0.3365   -5.2152   26.3205 P   0  0  0  0  0  0  0  0  0  0  0  0
    4.4036  -11.4525   16.7421 C   0  0  0  0  0  0  0  0  0  0  0  0
    0.2857   -6.6499   27.4582 O   0  0  0  0  0  0  0  0  0  0  0  0
    0.1947   -4.9803   27.0226 N   0  0  0  0  0  0  0  0  0  0  0  0
    2.4729  -10.8758   15.6587 P   0  0  0  0  0  0  0  0  0  0  0  0
    6.8573   -7.3346   27.2292 F   0  0  0  0  0  0  0  0  0  0  0  0
    1.9052  -11.6041   16.2786 B   0  0  0  0  0  0  0  0  0  0  0  0
    5.3194   -7.0212   27.9591 F   0  0  0  0  0  0  0  0  0  0  0  0
    1.8028   -9.1476   27.8623 F   0  0  0  0  0  0  0  0  0  0  0  0
   -0.4971   -3.9356   25.4381 C   0  0  0  0  0  0  0  0  0  0  0  0
    7.8366   -6.3756   28.5206 S   0  0  0  0  0  0  0  0  0  0  0  0
    1.9869  -12.0545   16.8834 N   0  0  0  0  0  0  0  0  0  0  0  0
    1.5471   -7.4926   26.0279 N   0  0  0  0  0  0  0  0  0  0  0  0
    4.0920   -4.6408   27.9185 N   0  0  0  0  0  0  0  0  0  0  0  0
   -0.4753  -10.9169   16.0359 He  0  0  0  0  0  0  0  0  0  0  0  0
   -0.0965   -3.9504   26.5883 He  0  0  0  0  0  0  0  0  0  0  0  0
    2.2175  -10.5004   28.6052 He  0  0  0  0  0  0  0  0  0  0  0  0
    2.6873   -9.1823   28.7608 He  0  0  0  0  0  0  0  0  0  0  0  0
    3.2015  -12.3961   15.4049 He  0  0  0  0  0  0  0  0  0  0  0  0
    5.0052   -6.9071   26.1285 He  0  0  0  0  0  0  0  0  0  0  0  0
    3.3338   -5.8329   26.9963 He  0  0  0  0  0  0  0  0  0  0  0  0
    1.4556   -9.1795   15.5869 He  0  0  0  0  0  0  0  0  0  0  0  0
    3.2940  -11.3428   15.9722 He  0  0  0  0  0  0  0  0  0  0  0  0
    1.8175   -5.4664   27.7794 He  0  0  0  0  0  0  0  0  0  0  0  0
    3.2841  -13.0818   15.0248 He  0  0  0  0  0  0  0  0  0  0  0  0
    5.8116   -4.4962   26.6975 He  0  0  0  0  0  0  0  0  0  0  0  0
    6.7652   -6.6249   27.2113 He  0  0  0  0  0  0  0  0  0  0  0  0
  1  2  2  0
  1  3  1  0
  1  4  2  0
  1  5  4  0
  1  7  2  0
  1 10  2  0
  1 11  2  0
  1 14  3  0
  2  3  1  0
  2  4  4  0
  2  6  1  0
  2  7  2  0
  2  8  4  0
  2 10  1  0
  2 11  3  0
  3  8  3  0
  3  9  4  0
  3 10  3  0
  3 15  3  0
  4  8  2  0
  4  9  3  0
  4 12  3  0
  4 13  4  0
  4 14  2  0
  4 15  2  0
  5 15  1  0
  6  8  3  0
  6 11  4  0
  7 12  1  0
  8  9  1  0
  8 13  4  0
  8 14  4  0
  9 11  4  0
 10 12  1  0
 11 15  2  0
 12 15  1  0
 13 15  2  0
M  END
$$$$

 Created by Python create_sdf_string function

 28 10  0  0  0  0  0  0  0  0999 V2000
    1.2765   -9.9159   28.3675 C   0  0  0  0  0  0  0  0  0  0  0  0
   -0.2288   -5.1644   26.9009 C   0  0  0  0  0  0  0  0  0  0  0  0
    0.2781  -10.6036   16.2053 C   0  0  0  0  0  0  0  0  0  0  0  0
   -0.0141   -4.1698   26.9112 C   0  0  0  0  0  0  0  0  0  0  0  0
    1.8884   -9.8522   28.4184 C   0  0  0  0  0  0  0  0  0  0  0  0
    4.1114  -11.2761   16.5486 C   0  0  0  0  0  0  0  0  0  0  0  0
    0.7401   -6.7337   27.5436 C   0  0  0  0  0  0  0  0  0  0  0  0
    0.4833   -4.8938   27.0648 C   0  0  0  0  0  0  0  0  0  0  0  0
    2.2219  -10.4739   15.8682 C   0  0  0  0  0  0  0  0  0  0  0  0
    6.7837   -7.1234   27.4292 C   0  0  0  0  0  0  0  0  0  0  0  0
    2.5541   -9.2027   28.3528 C   0  0  0  0  0  0  0  0  0  0  0  0
    3.2626  -12.4639   15.4791 C   0  0  0  0  0  0  0  0  0  0  0  0
    1.8116  -11.5981   16.2030 C   0  0  0  0  0  0  0  0  0  0  0  0
    4.8008   -7.0193   26.8625 C   0  0  0  0  0  0  0  0  0  0  0  0
    5.2599   -7.2572   27.4163 C   0  0  0  0  0  0  0  0  0  0  0  0
    1.8551   -8.7176   27.7079 C   0  0  0  0  0  0  0  0  0  0  0  0
   -0.5291   -4.1273   26.4112 C   0  0  0  0  0  0  0  0  0  0  0  0
    3.3031   -6.0172   27.1377 C   0  0  0  0  0  0  0  0  0  0  0  0
    1.3454   -9.5875   15.9111 C   0  0  0  0  0  0  0  0  0  0  0  0
    3.5639  -11.3373   16.1040 C   0  0  0  0  0  0  0  0  0  0  0  0
    7.3547   -6.3767   27.8583 C   0  0  0  0  0  0  0  0  0  0  0  0
    1.7893   -5.8190   27.1170 C   0  0  0  0  0  0  0  0  0  0  0  0
    3.2403  -12.9567   15.3036 C   0  0  0  0  0  0  0  0  0  0  0  0
    1.7396  -11.6779   16.5175 C   0  0  0  0  0  0  0  0  0  0  0  0
    5.5356   -5.2590   27.4829 C   0  0  0  0  0  0  0  0  0  0  0  0
    1.8772   -7.5688   27.0539 C   0  0  0  0  0  0  0  0  0  0  0  0
    4.3816   -5.0312   27.6033 C   0  0  0  0  0  0  0  0  0  0  0  0
    6.5031   -6.5081   27.4534 C   0  0  0  0  0  0  0  0  0  0  0  0
  1  5  4  0
  2  4  1  0
  4 17  1  0
  6 20  4  0
  9 19  1  0
 10 21  1  0
 12 23  4  0
 13 24  4  0
 14 15  1  0
 25 27  1  0
M  END
$$$$

 Created by Python create_sdf_string function

 28 22  0  0  0  0  0  0  0  0999 V2000
    0.5570  -10.6947   29.3752 O   0  0  0  0  0  0  0  0  0  0  0  0
   -0.4384   -5.2352   26.2493 C   0  0  0  0  0  0  0  0  0  0  0  0
    3.1862  -11.4120   15.1476 P   0  0  0  0  0  0  0  0  0  0  0  0
    0.6733   -6.0028   26.4819 C   0  0  0  0  0  0  0  0  0  0  0  0
    2.6726   -9.4623   16.5442 N   0  0  0  0  0  0  0  0  0  0  0  0
    4.1119   -8.2695   28.6136 F   0  0  0  0  0  0  0  0  0  0  0  0
    2.4035  -10.1494   28.8213 C   0  0  0  0  0  0  0  0  0  0  0  0
   -0.2634   -3.9061   26.4694 C   0  0  0  0  0  0  0  0  0  0  0  0
    8.6597   -5.7593   27.2723 C   0  0  0  0  0  0  0  0  0  0  0  0
    2.2565   -7.7691   27.2270 C   0  0  0  0  0  0  0  0  0  0  0  0
    3.4993   -4.7499   28.4453 P   0  0  0  0  0  0  0  0  0  0  0  0
   -0.3500  -11.2525   16.3189 He  0  0  0  0  0  0  0  0  0  0  0  0
    0.8882   -3.2094   26.3840 He  0  0  0  0  0  0  0  0  0  0  0  0
    2.0748   -9.1602   28.1814 He  0  0  0  0  0  0  0  0  0  0  0  0
    0.3398   -4.5632   26.6941 He  0  0  0  0  0  0  0  0  0  0  0  0
    7.2436   -7.4268   27.5998 He  0  0  0  0  0  0  0  0  0  0  0  0
    2.3111   -8.2048   28.9514 He  0  0  0  0  0  0  0  0  0  0  0  0
    2.4968  -11.3467   15.7318 He  0  0  0  0  0  0  0  0  0  0  0  0
    1.5750  -10.3729   17.1082 He  0  0  0  0  0  0  0  0  0  0  0  0
    5.5879   -6.8489   27.1942 He  0  0  0  0  0  0  0  0  0  0  0  0
    2.3743   -6.2944   27.6770 He  0  0  0  0  0  0  0  0  0  0  0  0
    0.8533   -9.1797   14.9515 He  0  0  0  0  0  0  0  0  0  0  0  0
    3.5766  -10.6510   17.0536 He  0  0  0  0  0  0  0  0  0  0  0  0
    2.2370   -5.3082   28.1587 He  0  0  0  0  0  0  0  0  0  0  0  0
    3.5501  -12.7279   15.2595 He  0  0  0  0  0  0  0  0  0  0  0  0
    1.1014  -11.7569   17.2221 He  0  0  0  0  0  0  0  0  0  0  0  0
    6.9096   -4.7453   27.8441 He  0  0  0  0  0  0  0  0  0  0  0  0
    7.0962   -6.8273   27.6661 He  0  0  0  0  0  0  0  0  0  0  0  0
  1  3  2  0
  1  5  1  0
  1  9  4  0
  1 11  2  0
  2  3  4  0
  2  8  3  0
  2  9  2  0
  2 10  1  0
  3 10  4  0
  4 10  2  0
  5  7  4  0
  5  8  4  0
  5  9  4  0
  5 10  4  0
  5 11  2  0
  6  9  2  0
  6 10  1  0
  6 11  2  0
  7 10  4  0
  7 11  2  0
  8  9  1  0
  8 11  2  0
M  END
$$$$

 Created by Python create_sdf_string function

 28  7  0  0  0  0  0  0  0  0999 V2000
    1.2163   -9.8397   28.8626 C   0  0  0  0  0  0  0  0  0  0  0  0
   -0.1141   -5.2078   26.8387 C   0  0  0  0  0  0  0  0  0  0  0  0
    0.3825  -10.9356   16.3084 C   0  0  0  0  0  0  0  0  0  0  0  0
    1.0222   -3.5141   27.0618 C   0  0  0  0  0  0  0  0  0  0  0  0
    2.1451   -9.0511   28.3191 C   0  0  0  0  0  0  0  0  0  0  0  0
    3.1951  -11.4354   15.4273 C   0  0  0  0  0  0  0  0  0  0  0  0
    0.9364   -5.8909   27.0136 C   0  0  0  0  0  0  0  0  0  0  0  0
    0.5256   -4.4560   27.0346 C   0  0  0  0  0  0  0  0  0  0  0  0
    2.3801   -9.4686   16.3322 C   0  0  0  0  0  0  0  0  0  0  0  0
    7.1376   -7.3499   27.5174 C   0  0  0  0  0  0  0  0  0  0  0  0
    2.2590   -8.2176   28.4264 C   0  0  0  0  0  0  0  0  0  0  0  0
    2.4443  -11.4898   15.8000 C   0  0  0  0  0  0  0  0  0  0  0  0
    1.1734  -10.2952   17.1001 C   0  0  0  0  0  0  0  0  0  0  0  0
    5.4468   -6.6453   27.5126 C   0  0  0  0  0  0  0  0  0  0  0  0
    4.2759   -7.7572   27.6189 C   0  0  0  0  0  0  0  0  0  0  0  0
    2.2951   -9.5689   28.6264 C   0  0  0  0  0  0  0  0  0  0  0  0
   -0.0866   -3.9011   26.8183 C   0  0  0  0  0  0  0  0  0  0  0  0
    2.4794   -6.6220   27.4584 C   0  0  0  0  0  0  0  0  0  0  0  0
    1.3445   -9.6903   15.4736 C   0  0  0  0  0  0  0  0  0  0  0  0
    3.3340  -10.6743   16.7012 C   0  0  0  0  0  0  0  0  0  0  0  0
    7.5432   -6.1051   27.5209 C   0  0  0  0  0  0  0  0  0  0  0  0
    2.4812   -5.4327   27.4117 C   0  0  0  0  0  0  0  0  0  0  0  0
    3.3567  -12.4263   15.4062 C   0  0  0  0  0  0  0  0  0  0  0  0
    1.2448  -11.3401   16.8865 C   0  0  0  0  0  0  0  0  0  0  0  0
    6.4499   -5.3616   27.5891 C   0  0  0  0  0  0  0  0  0  0  0  0
    2.6512   -7.5883   27.5626 C   0  0  0  0  0  0  0  0  0  0  0  0
    4.0661   -5.3292   27.7008 C   0  0  0  0  0  0  0  0  0  0  0  0
    6.7180   -7.2966   27.5014 C   0  0  0  0  0  0  0  0  0  0  0  0
  4 17  1  0
  6 23  1  0
  9 19  1  0
 10 21  4  0
 10 28  4  0
 14 25  4  0
 21 25  4  0
M  END
$$$$

 Created by Python create_sdf_string function

 28 35  0  0  0  0  0  0  0  0999 V2000
    3.1223  -10.0858   28.6853 C   0  0  0  0  0  0  0  0  0  0  0  0
    0.8778  -11.4726   17.1366 Cl  0  0  0  0  0  0  0  0  0  0  0  0
    2.6450   -3.2560   25.7121 C   0  0  0  0  0  0  0  0  0  0  0  0
    2.4706  -12.0404   14.5129 P   0  0  0  0  0  0  0  0  0  0  0  0
    0.9115   -6.9974   26.3505 C   0  0  0  0  0  0  0  0  0  0  0  0
    0.4362   -5.1298   27.4271 S   0  0  0  0  0  0  0  0  0  0  0  0
    1.8142   -8.5685   14.8229 C   0  0  0  0  0  0  0  0  0  0  0  0
    1.9720   -8.0945   27.8827 C   0  0  0  0  0  0  0  0  0  0  0  0
   -0.3172   -5.3452   26.2418 B   0  0  0  0  0  0  0  0  0  0  0  0
    2.3375   -4.9162   28.8752 C   0  0  0  0  0  0  0  0  0  0  0  0
    1.3099   -8.7386   15.6165 C   0  0  0  0  0  0  0  0  0  0  0  0
    7.6259   -7.9890   28.6049 P   0  0  0  0  0  0  0  0  0  0  0  0
    8.2147   -4.7090   27.2473 C   0  0  0  0  0  0  0  0  0  0  0  0
    5.6423   -7.3375   26.7971 C   0  0  0  0  0  0  0  0  0  0  0  0
    0.2314   -4.9320   27.0673 He  0  0  0  0  0  0  0  0  0  0  0  0
    3.6582   -8.7253   27.9935 He  0  0  0  0  0  0  0  0  0  0  0  0
    7.8696   -6.7781   28.0974 He  0  0  0  0  0  0  0  0  0  0  0  0
    0.9902   -9.8469   16.4872 He  0  0  0  0  0  0  0  0  0  0  0  0
    2.0573  -10.2544   17.4770 He  0  0  0  0  0  0  0  0  0  0  0  0
    6.7407   -6.4424   27.9302 He  0  0  0  0  0  0  0  0  0  0  0  0
    3.9434   -6.9295   29.1270 He  0  0  0  0  0  0  0  0  0  0  0  0
    2.0972   -9.4605   28.4397 He  0  0  0  0  0  0  0  0  0  0  0  0
    3.2063  -11.4076   16.1953 He  0  0  0  0  0  0  0  0  0  0  0  0
    3.2209   -4.7767   27.2802 He  0  0  0  0  0  0  0  0  0  0  0  0
    4.0679  -12.1227   16.5005 He  0  0  0  0  0  0  0  0  0  0  0  0
    2.2951  -11.8677   17.1389 He  0  0  0  0  0  0  0  0  0  0  0  0
    1.8044   -6.0141   26.5737 He  0  0  0  0  0  0  0  0  0  0  0  0
    2.0353   -5.3380   27.7358 He  0  0  0  0  0  0  0  0  0  0  0  0
  1  3  4  0
  1  5  2  0
  1  8  2  0
  1 10  3  0
  1 11  3  0
  1 12  2  0
  1 14  2  0
  2  8  4  0
  2 10  2  0
  2 11  3  0
  2 12  1  0
  3  4  2  0
  3  7  1  0
  3  8  2  0
  3  9  3  0
  3 10  3  0
  3 11  1  0
  3 12  2  0
  4  6  3  0
  4 10  2  0
  4 11  1  0
  5  6  4  0
  5  7  2  0
  5 10  1  0
  5 11  1  0
  5 12  1  0
  6  9  4  0
  6 11  2  0
  7 10  1  0
  8 11  4  0
  8 12  2  0
  9 10  4  0
  9 11  4  0
 10 13  4  0
 12 13  4  0
M  END
$$$$

 Created by Python create_sdf_string function

 28  5  0  0  0  0  0  0  0  0999 V2000
    3.1626   -9.3133   28.3272 C   0  0  0  0  0  0  0  0  0  0  0  0
    0.1824   -4.8078   27.0597 C   0  0  0  0  0  0  0  0  0  0  0  0
    1.1950  -10.9065   17.1766 C   0  0  0  0  0  0  0  0  0  0  0  0
    2.2558   -3.8504   26.9127 C   0  0  0  0  0  0  0  0  0  0  0  0
    3.9799   -8.3313   27.8704 C   0  0  0  0  0  0  0  0  0  0  0  0
    2.7831  -11.7231   15.0918 C   0  0  0  0  0  0  0  0  0  0  0  0
    1.2381   -6.7544   27.1183 C   0  0  0  0  0  0  0  0  0  0  0  0
    0.4291   -5.2827   27.3704 C   0  0  0  0  0  0  0  0  0  0  0  0
    1.7872   -9.2586   15.1646 C   0  0  0  0  0  0  0  0  0  0  0  0
    7.5181   -6.9420   27.8287 C   0  0  0  0  0  0  0  0  0  0  0  0
    2.3306   -8.1849   27.7548 C   0  0  0  0  0  0  0  0  0  0  0  0
    0.9083   -9.5917   16.5450 C   0  0  0  0  0  0  0  0  0  0  0  0
    2.0156  -10.2837   16.9695 C   0  0  0  0  0  0  0  0  0  0  0  0
    6.5842   -6.4963   27.7098 C   0  0  0  0  0  0  0  0  0  0  0  0
    4.5373   -7.2555   28.0907 C   0  0  0  0  0  0  0  0  0  0  0  0
    2.4220   -9.2077   28.1904 C   0  0  0  0  0  0  0  0  0  0  0  0
   -0.1849   -5.2047   26.7719 C   0  0  0  0  0  0  0  0  0  0  0  0
    2.3745   -5.2622   28.3624 C   0  0  0  0  0  0  0  0  0  0  0  0
    1.4242   -9.1519   15.6841 C   0  0  0  0  0  0  0  0  0  0  0  0
    3.0831  -11.4827   15.7604 C   0  0  0  0  0  0  0  0  0  0  0  0
    7.2972   -7.5572   28.0152 C   0  0  0  0  0  0  0  0  0  0  0  0
    3.3873   -5.2728   27.3530 C   0  0  0  0  0  0  0  0  0  0  0  0
    3.6776  -11.8244   16.3638 C   0  0  0  0  0  0  0  0  0  0  0  0
    2.3388  -11.5757   17.0485 C   0  0  0  0  0  0  0  0  0  0  0  0
    7.6319   -5.7595   27.5198 C   0  0  0  0  0  0  0  0  0  0  0  0
    2.1397   -6.2492   27.0860 C   0  0  0  0  0  0  0  0  0  0  0  0
    2.2436   -5.4344   27.6106 C   0  0  0  0  0  0  0  0  0  0  0  0
    5.6635   -7.1155   27.3608 C   0  0  0  0  0  0  0  0  0  0  0  0
  1 16  1  0
  2 17  1  0
  6 20  1  0
  9 19  1  0
 12 19  1  0
M  END
$$$$

 Created by Python create_sdf_string function

 28 42  0  0  0  0  0  0  0  0999 V2000
    3.3039   -8.7453   28.9208 C   0  0  0  0  0  0  0  0  0  0  0  0
    1.7738  -12.1107   17.0874 C   0  0  0  0  0  0  0  0  0  0  0  0
    1.9101   -3.9828   26.5549 O   0  0  0  0  0  0  0  0  0  0  0  0
    4.8836   -8.2780   27.7828 N   0  0  0  0  0  0  0  0  0  0  0  0
    2.1592   -8.6576   15.5779 F   0  0  0  0  0  0  0  0  0  0  0  0
    7.3348   -9.0341   28.2312 C   0  0  0  0  0  0  0  0  0  0  0  0
    2.0746   -9.2230   16.5500 C   0  0  0  0  0  0  0  0  0  0  0  0
    3.2347   -8.7254   29.1425 C   0  0  0  0  0  0  0  0  0  0  0  0
    0.0926   -5.1821   25.9093 C   0  0  0  0  0  0  0  0  0  0  0  0
    4.3969   -4.8100   26.7012 C   0  0  0  0  0  0  0  0  0  0  0  0
    2.2410   -9.6962   16.2553 C   0  0  0  0  0  0  0  0  0  0  0  0
    2.2093  -10.4912   15.4722 Cl  0  0  0  0  0  0  0  0  0  0  0  0
    5.8113   -7.6588   27.0743 C   0  0  0  0  0  0  0  0  0  0  0  0
    2.8139  -11.9560   17.1192 B   0  0  0  0  0  0  0  0  0  0  0  0
    9.6315   -6.9615   27.1326 N   0  0  0  0  0  0  0  0  0  0  0  0
    1.3151   -6.2328   28.4484 Cl  0  0  0  0  0  0  0  0  0  0  0  0
    4.1859   -5.5017   27.3074 C   0  0  0  0  0  0  0  0  0  0  0  0
    0.4428   -5.1248   27.5336 He  0  0  0  0  0  0  0  0  0  0  0  0
    4.1272  -12.0283   16.3495 He  0  0  0  0  0  0  0  0  0  0  0  0
    1.0340   -6.3450   26.2397 He  0  0  0  0  0  0  0  0  0  0  0  0
   -0.2346   -5.8097   25.7584 He  0  0  0  0  0  0  0  0  0  0  0  0
    2.2509   -8.5350   27.7748 He  0  0  0  0  0  0  0  0  0  0  0  0
    1.8433   -9.6969   17.2359 He  0  0  0  0  0  0  0  0  0  0  0  0
    3.9227   -6.3917   27.0926 He  0  0  0  0  0  0  0  0  0  0  0  0
    5.3127   -6.2274   29.0302 He  0  0  0  0  0  0  0  0  0  0  0  0
    3.8102   -5.7680   25.2996 He  0  0  0  0  0  0  0  0  0  0  0  0
    1.6806  -12.2296   15.2848 He  0  0  0  0  0  0  0  0  0  0  0  0
    0.5054   -6.4572   25.3848 He  0  0  0  0  0  0  0  0  0  0  0  0
  1  3  4  0
  1  8  3  0
  1 10  1  0
  1 11  2  0
  1 17  1  0
  2  5  1  0
  2 14  3  0
  2 15  2  0
  2 16  1  0
  3  5  1  0
  3  7  3  0
  3 14  2  0
  3 16  2  0
  3 17  4  0
  4  5  3  0
  4  8  1  0
  4 10  2  0
  5  7  1  0
  5 10  4  0
  5 12  2  0
  5 14  3  0
  6  7  2  0
  6  9  4  0
  6 10  2  0
  6 11  1  0
  6 14  2  0
  6 17  4  0
  7  9  1  0
  7 14  2  0
  7 15  3  0
  8  9  4  0
  8 10  4  0
  8 16  3  0
  9 13  4  0
  9 17  3  0
 10 14  3  0
 10 16  4  0
 11 13  4  0
 11 15  1  0
 12 15  4  0
 12 16  3  0
 15 16  3  0
M  END
$$$$

 Created by Python create_sdf_string function

 28 12  0  0  0  0  0  0  0  0999 V2000
    3.3067   -8.3626   28.4519 C   0  0  0  0  0  0  0  0  0  0  0  0
    0.3914   -5.0347   27.6737 C   0  0  0  0  0  0  0  0  0  0  0  0
    2.0831  -11.7894   16.8949 C   0  0  0  0  0  0  0  0  0  0  0  0
    2.0597   -4.1937   26.9387 O   0  0  0  0  0  0  0  0  0  0  0  0
    5.4760   -8.2239   27.9898 C   0  0  0  0  0  0  0  0  0  0  0  0
    3.6344  -11.8807   16.1073 C   0  0  0  0  0  0  0  0  0  0  0  0
    1.7879   -6.5350   26.9126 C   0  0  0  0  0  0  0  0  0  0  0  0
   -0.2082   -5.3865   26.5648 C   0  0  0  0  0  0  0  0  0  0  0  0
    1.9636   -8.5511   15.6412 C   0  0  0  0  0  0  0  0  0  0  0  0
    7.0912   -8.1092   28.0171 C   0  0  0  0  0  0  0  0  0  0  0  0
    2.3930   -8.2437   27.5249 C   0  0  0  0  0  0  0  0  0  0  0  0
    1.9448   -8.9064   16.2127 C   0  0  0  0  0  0  0  0  0  0  0  0
    1.4914   -9.4622   16.7882 C   0  0  0  0  0  0  0  0  0  0  0  0
    4.0881   -6.7781   27.5120 C   0  0  0  0  0  0  0  0  0  0  0  0
    5.4352   -6.5499   28.5250 C   0  0  0  0  0  0  0  0  0  0  0  0
    3.8953   -8.5518   28.8725 C   0  0  0  0  0  0  0  0  0  0  0  0
   -0.2760   -5.0805   26.6734 C   0  0  0  0  0  0  0  0  0  0  0  0
    4.0334   -5.1341   27.1729 C   0  0  0  0  0  0  0  0  0  0  0  0
    2.0804   -9.7575   16.3093 C   0  0  0  0  0  0  0  0  0  0  0  0
    2.2439  -10.4178   15.5827 C   0  0  0  0  0  0  0  0  0  0  0  0
    5.8808   -7.3026   27.2140 C   0  0  0  0  0  0  0  0  0  0  0  0
    3.4947   -6.2842   26.2684 C   0  0  0  0  0  0  0  0  0  0  0  0
    2.5133  -12.0584   17.0832 C   0  0  0  0  0  0  0  0  0  0  0  0
    2.2911  -12.2974   15.5896 C   0  0  0  0  0  0  0  0  0  0  0  0
    8.0060   -7.5683   27.5401 C   0  0  0  0  0  0  0  0  0  0  0  0
    0.9033   -6.2012   26.7161 C   0  0  0  0  0  0  0  0  0  0  0  0
    1.3453   -6.1546   28.3340 C   0  0  0  0  0  0  0  0  0  0  0  0
    4.2688   -6.1452   27.7050 C   0  0  0  0  0  0  0  0  0  0  0  0
  1 11  1  0
  1 16  1  0
  3 23  4  0
  5 10  1  0
  5 16  1  0
  7 26  1  0
  8 17  1  0
  9 12  1  0
 10 25  1  0
 14 28  1  0
 15 28  1  0
 19 20  4  0
M  END
$$$$

 Created by Python create_sdf_string function

 28 46  0  0  0  0  0  0  0  0999 V2000
    2.9605   -9.4728   29.7807 C   0  0  0  0  0  0  0  0  0  0  0  0
    1.6860   -4.9762   26.4054 N   0  0  0  0  0  0  0  0  0  0  0  0
    2.4620  -11.4306   16.8629 C   0  0  0  0  0  0  0  0  0  0  0  0
    1.3255   -3.6880   27.5927 S   0  0  0  0  0  0  0  0  0  0  0  0
    4.7912  -11.5923   16.3630 C   0  0  0  0  0  0  0  0  0  0  0  0
   -1.6858   -5.1676   27.0801 F   0  0  0  0  0  0  0  0  0  0  0  0
    2.2443   -8.4274   17.3206 C   0  0  0  0  0  0  0  0  0  0  0  0
    2.4176   -9.5753   27.5567 P   0  0  0  0  0  0  0  0  0  0  0  0
    0.0969  -10.3198   16.3923 I   0  0  0  0  0  0  0  0  0  0  0  0
    6.0229   -5.7194   27.7307 Br  0  0  0  0  0  0  0  0  0  0  0  0
    3.8224   -5.4890   26.9458 C   0  0  0  0  0  0  0  0  0  0  0  0
    1.3101  -10.1752   16.4503 N   0  0  0  0  0  0  0  0  0  0  0  0
    1.6163  -11.2271   13.9293 C   0  0  0  0  0  0  0  0  0  0  0  0
    2.9965   -7.0306   26.4900 N   0  0  0  0  0  0  0  0  0  0  0  0
    3.4001  -12.6722   16.4349 C   0  0  0  0  0  0  0  0  0  0  0  0
    7.5437   -7.4128   27.9877 F   0  0  0  0  0  0  0  0  0  0  0  0
    1.1037   -7.4095   25.9955 Cl  0  0  0  0  0  0  0  0  0  0  0  0
    4.8069   -6.1293   28.8780 Br  0  0  0  0  0  0  0  0  0  0  0  0
    5.7672   -7.8561   30.5113 He  0  0  0  0  0  0  0  0  0  0  0  0
    0.4010   -8.2994   26.8558 He  0  0  0  0  0  0  0  0  0  0  0  0
    8.7107   -7.2191   27.5999 He  0  0  0  0  0  0  0  0  0  0  0  0
    1.7607   -9.7956   14.6212 He  0  0  0  0  0  0  0  0  0  0  0  0
    3.7796   -7.9395   27.5602 He  0  0  0  0  0  0  0  0  0  0  0  0
    3.7615   -7.2004   29.5963 He  0  0  0  0  0  0  0  0  0  0  0  0
   -0.4818   -4.5391   27.2926 He  0  0  0  0  0  0  0  0  0  0  0  0
    7.1570   -7.4491   29.2858 He  0  0  0  0  0  0  0  0  0  0  0  0
    2.7387  -11.1006   17.3201 He  0  0  0  0  0  0  0  0  0  0  0  0
    0.7210   -5.8812   28.1382 He  0  0  0  0  0  0  0  0  0  0  0  0
  1  5  2  0
  1  7  2  0
  1  8  1  0
  1 10  4  0
  1 11  1  0
  1 18  1  0
  2  3  4  0
  2  4  1  0
  2  5  1  0
  2  7  3  0
  2  8  2  0
  3  8  4  0
  3 13  3  0
  3 15  1  0
  3 16  1  0
  4  5  3  0
  4  8  2  0
  4 11  3  0
  4 13  3  0
  4 15  1  0
  4 18  1  0
  5 10  4  0
  5 16  3  0
  6  7  2  0
  6 10  4  0
  6 11  3  0
  6 17  3  0
  7  9  3  0
  7 14  4  0
  7 15  4  0
  7 16  3  0
  8 11  1  0
  8 12  3  0
  8 14  2  0
 10 11  2  0
 10 14  1  0
 11 14  2  0
 12 14  2  0
 13 15  2  0
 13 16  1  0
 14 16  1  0
 14 17  1  0
 15 18  1  0
 16 17  3  0
 16 18  3  0
 17 18  4  0
M  END
$$$$

 Created by Python create_sdf_string function

 28 14  0  0  0  0  0  0  0  0999 V2000
    3.0739   -8.9650   29.0106 C   0  0  0  0  0  0  0  0  0  0  0  0
    1.5327   -5.1210   26.7324 C   0  0  0  0  0  0  0  0  0  0  0  0
    2.7748  -11.3653   16.4628 C   0  0  0  0  0  0  0  0  0  0  0  0
    1.1224   -4.0253   27.2630 C   0  0  0  0  0  0  0  0  0  0  0  0
    6.2000   -7.8990   29.6097 C   0  0  0  0  0  0  0  0  0  0  0  0
    4.5682  -11.5011   16.3593 C   0  0  0  0  0  0  0  0  0  0  0  0
    1.2553   -8.1403   27.3597 C   0  0  0  0  0  0  0  0  0  0  0  0
   -1.0166   -5.0145   27.0995 O   0  0  0  0  0  0  0  0  0  0  0  0
    1.8930   -9.5106   16.9429 C   0  0  0  0  0  0  0  0  0  0  0  0
    8.2928   -7.3211   27.9463 C   0  0  0  0  0  0  0  0  0  0  0  0
    2.4995   -8.8159   27.8173 C   0  0  0  0  0  0  0  0  0  0  0  0
    1.7866  -10.2796   14.9269 C   0  0  0  0  0  0  0  0  0  0  0  0
    0.4686   -9.8663   16.4612 C   0  0  0  0  0  0  0  0  0  0  0  0
    4.1049   -7.4428   28.0334 C   0  0  0  0  0  0  0  0  0  0  0  0
    5.7863   -6.3429   27.6302 C   0  0  0  0  0  0  0  0  0  0  0  0
    3.9749   -7.5300   29.1025 C   0  0  0  0  0  0  0  0  0  0  0  0
   -0.2434   -4.6845   27.1525 C   0  0  0  0  0  0  0  0  0  0  0  0
    3.5527   -5.9158   27.0790 C   0  0  0  0  0  0  0  0  0  0  0  0
    0.9925   -9.9537   16.4053 C   0  0  0  0  0  0  0  0  0  0  0  0
    2.0349  -11.1035   14.9325 C   0  0  0  0  0  0  0  0  0  0  0  0
    7.1921   -7.5599   28.8137 C   0  0  0  0  0  0  0  0  0  0  0  0
    2.8345   -6.9590   26.8204 N   0  0  0  0  0  0  0  0  0  0  0  0
    2.9146  -10.9029   17.3927 C   0  0  0  0  0  0  0  0  0  0  0  0
    3.4514  -11.9873   16.2016 C   0  0  0  0  0  0  0  0  0  0  0  0
    7.4569   -7.3032   28.2318 C   0  0  0  0  0  0  0  0  0  0  0  0
    1.5970   -7.0252   26.9379 C   0  0  0  0  0  0  0  0  0  0  0  0
    0.6974   -5.8176   27.4858 C   0  0  0  0  0  0  0  0  0  0  0  0
    5.1294   -6.9773   28.4492 C   0  0  0  0  0  0  0  0  0  0  0  0
  1 11  1  0
  2  4  1  0
  3 23  4  0
  3 24  1  0
  5 21  4  0
  6 24  1  0
  8 17  1  0
 10 25  4  0
 12 20  1  0
 13 19  1  0
 15 28  4  0
 18 22  1  0
 21 25  4  0
 22 26  1  0
M  END
$$$$

 Created by Python create_sdf_string function

 28 39  0  0  0  0  0  0  0  0999 V2000
    4.6159   -9.0693   29.4621 C   0  0  0  0  0  0  0  0  0  0  0  0
    3.3752  -10.3684   15.7793 C   0  0  0  0  0  0  0  0  0  0  0  0
   -0.4454   -3.9607   27.5771 Cl  0  0  0  0  0  0  0  0  0  0  0  0
    2.8636  -12.3936   16.8931 Br  0  0  0  0  0  0  0  0  0  0  0  0
    7.6819   -6.4056   27.2505 F   0  0  0  0  0  0  0  0  0  0  0  0
    2.8481  -10.0211   27.5622 C   0  0  0  0  0  0  0  0  0  0  0  0
    1.5550   -9.6733   13.9177 C   0  0  0  0  0  0  0  0  0  0  0  0
    4.0717   -7.8933   27.7808 F   0  0  0  0  0  0  0  0  0  0  0  0
    6.3530   -6.7421   29.6149 C   0  0  0  0  0  0  0  0  0  0  0  0
    2.9847   -8.5377   29.0373 S   0  0  0  0  0  0  0  0  0  0  0  0
   -0.4998   -4.0032   28.4617 C   0  0  0  0  0  0  0  0  0  0  0  0
    0.9900  -10.4980   16.0147 C   0  0  0  0  0  0  0  0  0  0  0  0
    3.9039   -5.2387   27.9603 N   0  0  0  0  0  0  0  0  0  0  0  0
    0.9190  -12.9440   18.1129 Cl  0  0  0  0  0  0  0  0  0  0  0  0
    7.3041   -7.4810   28.6582 N   0  0  0  0  0  0  0  0  0  0  0  0
    1.2721   -7.5037   26.9710 Se  0  0  0  0  0  0  0  0  0  0  0  0
    3.9258   -7.1358   26.8246 C   0  0  0  0  0  0  0  0  0  0  0  0
    1.3391   -5.5180   26.7041 He  0  0  0  0  0  0  0  0  0  0  0  0
    6.2234   -6.7461   28.9608 He  0  0  0  0  0  0  0  0  0  0  0  0
    1.6109   -9.4959   27.1296 He  0  0  0  0  0  0  0  0  0  0  0  0
    0.0337   -5.0343   25.6579 He  0  0  0  0  0  0  0  0  0  0  0  0
    3.5079   -9.7909   16.7690 He  0  0  0  0  0  0  0  0  0  0  0  0
    0.3845   -9.0825   15.8928 He  0  0  0  0  0  0  0  0  0  0  0  0
    3.9220   -7.3232   26.0509 He  0  0  0  0  0  0  0  0  0  0  0  0
    2.0592   -9.3426   17.3807 He  0  0  0  0  0  0  0  0  0  0  0  0
    6.2723   -7.1354   29.6775 He  0  0  0  0  0  0  0  0  0  0  0  0
    2.5974  -11.2730   17.0797 He  0  0  0  0  0  0  0  0  0  0  0  0
    0.5635   -5.7622   27.0887 He  0  0  0  0  0  0  0  0  0  0  0  0
  1  4  1  0
  1  5  1  0
  1  7  3  0
  2  7  4  0
  2  9  1  0
  2 10  2  0
  2 14  4  0
  2 17  3  0
  3  5  3  0
  3  9  3  0
  3 16  1  0
  4  5  2  0
  4  7  3  0
  4  8  3  0
  4 10  1  0
  4 12  2  0
  4 14  4  0
  5  8  2  0
  5 13  1  0
  6 12  1  0
  6 17  1  0
  7  9  1  0
  7 11  3  0
  7 16  1  0
  8  9  1  0
  8 12  4  0
  8 14  4  0
  9 11  3  0
  9 15  4  0
 11 15  4  0
 12 13  4  0
 12 15  2  0
 12 16  1  0
 12 17  3  0
 13 16  1  0
 13 17  2  0
 14 15  1  0
 15 17  1  0
 16 17  3  0
M  END
$$$$

 Created by Python create_sdf_string function

 28 10  0  0  0  0  0  0  0  0999 V2000
    4.7797   -8.6114   29.1460 C   0  0  0  0  0  0  0  0  0  0  0  0
    1.2076   -5.4326   26.8674 C   0  0  0  0  0  0  0  0  0  0  0  0
    3.1498  -10.3101   15.9399 C   0  0  0  0  0  0  0  0  0  0  0  0
   -0.3095   -4.2061   27.4778 C   0  0  0  0  0  0  0  0  0  0  0  0
    6.2379   -7.1389   28.5725 C   0  0  0  0  0  0  0  0  0  0  0  0
    2.6382  -12.0765   17.2721 C   0  0  0  0  0  0  0  0  0  0  0  0
    1.9282   -8.7827   27.1886 C   0  0  0  0  0  0  0  0  0  0  0  0
   -0.0303   -4.9117   26.5324 C   0  0  0  0  0  0  0  0  0  0  0  0
    3.2808  -10.1603   16.5807 C   0  0  0  0  0  0  0  0  0  0  0  0
    7.2471   -6.5645   27.6580 C   0  0  0  0  0  0  0  0  0  0  0  0
    2.6537   -9.1691   27.6224 C   0  0  0  0  0  0  0  0  0  0  0  0
    1.8007   -9.5330   14.9548 C   0  0  0  0  0  0  0  0  0  0  0  0
    0.6311   -9.1994   15.9190 C   0  0  0  0  0  0  0  0  0  0  0  0
    4.1896   -7.7036   27.8418 C   0  0  0  0  0  0  0  0  0  0  0  0
    6.5059   -7.3059   29.2006 C   0  0  0  0  0  0  0  0  0  0  0  0
    3.3361   -8.8272   28.6782 C   0  0  0  0  0  0  0  0  0  0  0  0
   -0.3368   -4.5822   27.9175 C   0  0  0  0  0  0  0  0  0  0  0  0
    3.6835   -7.2742   26.5364 C   0  0  0  0  0  0  0  0  0  0  0  0
    1.2050   -9.8794   16.9585 C   0  0  0  0  0  0  0  0  0  0  0  0
    0.8542  -10.3688   16.3748 C   0  0  0  0  0  0  0  0  0  0  0  0
    6.4746   -7.3276   29.3782 C   0  0  0  0  0  0  0  0  0  0  0  0
    3.8354   -5.8618   27.4464 O   0  0  0  0  0  0  0  0  0  0  0  0
    2.5182  -11.2619   17.1401 C   0  0  0  0  0  0  0  0  0  0  0  0
    1.0813  -11.9348   17.7501 C   0  0  0  0  0  0  0  0  0  0  0  0
    7.3350   -7.1612   28.5035 C   0  0  0  0  0  0  0  0  0  0  0  0
    1.5566   -6.9260   27.2059 C   0  0  0  0  0  0  0  0  0  0  0  0
    0.8109   -6.0026   27.3892 C   0  0  0  0  0  0  0  0  0  0  0  0
    3.4588   -6.9633   26.9480 C   0  0  0  0  0  0  0  0  0  0  0  0
  2  8  1  0
  2 27  1  0
  3  9  4  0
  4 17  1  0
  6 23  4  0
  7 11  4  0
 10 25  4  0
 15 21  4  0
 15 25  4  0
 26 27  1  0
M  END
$$$$

 Created by Python create_sdf_string function

 28 71  0  0  0  0  0  0  0  0999 V2000
    0.6189   -3.9205   28.2041 P   0  0  0  0  0  0  0  0  0  0  0  0
    3.4439  -10.2224   13.8726 C   0  0  0  0  0  0  0  0  0  0  0  0
   -0.1626   -5.2735   26.9035 F   0  0  0  0  0  0  0  0  0  0  0  0
    2.9302  -12.3207   16.7282 N   0  0  0  0  0  0  0  0  0  0  0  0
    2.0077   -8.7416   26.5541 C   0  0  0  0  0  0  0  0  0  0  0  0
   -0.3601   -4.5599   26.1962 F   0  0  0  0  0  0  0  0  0  0  0  0
    4.2358   -9.2730   27.3181 I   0  0  0  0  0  0  0  0  0  0  0  0
    1.3018   -7.8628   15.1431 S   0  0  0  0  0  0  0  0  0  0  0  0
    3.0568  -10.4960   28.8731 S   0  0  0  0  0  0  0  0  0  0  0  0
    0.7048   -4.4226   27.2198 O   0  0  0  0  0  0  0  0  0  0  0  0
    4.4983   -6.4496   26.4973 S   0  0  0  0  0  0  0  0  0  0  0  0
    0.3005  -11.4072   16.3586 N   0  0  0  0  0  0  0  0  0  0  0  0
    1.4806  -10.0238   15.9130 O   0  0  0  0  0  0  0  0  0  0  0  0
    6.2096   -6.5882   29.9464 C   0  0  0  0  0  0  0  0  0  0  0  0
    2.3854  -10.6113   16.6383 C   0  0  0  0  0  0  0  0  0  0  0  0
    1.2734  -12.0534   18.5912 S   0  0  0  0  0  0  0  0  0  0  0  0
    5.9376   -7.2212   28.2387 Cl  0  0  0  0  0  0  0  0  0  0  0  0
    2.9262   -6.1321   26.0670 O   0  0  0  0  0  0  0  0  0  0  0  0
    2.2141   -7.0925   28.9473 N   0  0  0  0  0  0  0  0  0  0  0  0
    4.5439   -8.8231   28.7275 He  0  0  0  0  0  0  0  0  0  0  0  0
    5.9439   -7.3552   27.6322 He  0  0  0  0  0  0  0  0  0  0  0  0
    4.7352  -10.8680   13.9568 He  0  0  0  0  0  0  0  0  0  0  0  0
    6.7162   -6.3963   28.2631 He  0  0  0  0  0  0  0  0  0  0  0  0
    0.9746   -8.5709   16.1623 He  0  0  0  0  0  0  0  0  0  0  0  0
    4.5461   -6.8514   28.3972 He  0  0  0  0  0  0  0  0  0  0  0  0
    6.1068   -8.7007   29.3306 He  0  0  0  0  0  0  0  0  0  0  0  0
    3.1833   -4.7743   27.4699 He  0  0  0  0  0  0  0  0  0  0  0  0
    1.8498   -5.1765   27.3357 He  0  0  0  0  0  0  0  0  0  0  0  0
  1  4  1  0
  1  5  1  0
  1 15  3  0
  1 16  4  0
  1 17  4  0
  1 19  4  0
  2  4  4  0
  2  5  3  0
  2  6  4  0
  2  8  2  0
  2 15  4  0
  2 17  1  0
  3  6  1  0
  3  7  3  0
  3 12  3  0
  3 16  3  0
  3 17  3  0
  4  5  1  0
  4  7  3  0
  4 13  1  0
  4 15  4  0
  4 16  3  0
  5  7  3  0
  5 11  2  0
  5 12  1  0
  5 18  1  0
  5 19  3  0
  6  7  4  0
  6  8  1  0
  6 13  3  0
  6 16  3  0
  7  9  3  0
  7 11  1  0
  7 16  1  0
  7 17  2  0
  7 18  4  0
  7 19  1  0
  8 10  4  0
  8 13  3  0
  8 17  4  0
  8 18  2  0
  8 19  4  0
  9 11  3  0
  9 12  1  0
  9 13  1  0
  9 14  1  0
  9 15  3  0
  9 16  3  0
 10 12  1  0
 10 14  4  0
 10 15  1  0
 10 16  2  0
 10 17  3  0
 10 19  1  0
 11 13  4  0
 11 14  2  0
 11 15  1  0
 11 16  3  0
 12 13  4  0
 12 19  3  0
 13 15  4  0
 13 16  4  0
 13 17  4  0
 13 18  3  0
 14 16  4  0
 14 19  3  0
 15 16  3  0
 15 17  1  0
 15 18  3  0
 15 19  2  0
 17 19  3  0
M  END
$$$$

 Created by Python create_sdf_string function

 28 13  0  0  0  0  0  0  0  0999 V2000
    4.5373   -8.8122   28.5353 C   0  0  0  0  0  0  0  0  0  0  0  0
    0.5831   -4.0435   27.9848 C   0  0  0  0  0  0  0  0  0  0  0  0
    3.3099  -10.1717   14.7538 C   0  0  0  0  0  0  0  0  0  0  0  0
    0.1294   -5.1631   27.0392 C   0  0  0  0  0  0  0  0  0  0  0  0
    5.9775   -7.3144   27.5370 C   0  0  0  0  0  0  0  0  0  0  0  0
    3.0560  -11.7809   16.4366 C   0  0  0  0  0  0  0  0  0  0  0  0
    2.6138   -8.0492   26.9895 C   0  0  0  0  0  0  0  0  0  0  0  0
   -0.3033   -4.6766   26.8403 C   0  0  0  0  0  0  0  0  0  0  0  0
    3.7800  -10.8504   14.7385 C   0  0  0  0  0  0  0  0  0  0  0  0
    6.8847   -6.4969   28.3895 C   0  0  0  0  0  0  0  0  0  0  0  0
    3.7993   -8.9496   27.4138 C   0  0  0  0  0  0  0  0  0  0  0  0
    1.6778   -8.7017   15.3596 C   0  0  0  0  0  0  0  0  0  0  0  0
    0.8430   -8.7888   16.1623 C   0  0  0  0  0  0  0  0  0  0  0  0
    4.7244   -7.3836   28.1649 C   0  0  0  0  0  0  0  0  0  0  0  0
    6.0242   -8.5182   29.4030 C   0  0  0  0  0  0  0  0  0  0  0  0
    3.3582   -9.9116   28.5959 C   0  0  0  0  0  0  0  0  0  0  0  0
    1.2942   -4.3010   27.3441 C   0  0  0  0  0  0  0  0  0  0  0  0
    4.1836   -6.7526   26.7952 C   0  0  0  0  0  0  0  0  0  0  0  0
    0.6523  -10.4345   17.1967 C   0  0  0  0  0  0  0  0  0  0  0  0
    1.6328  -10.1575   16.3461 C   0  0  0  0  0  0  0  0  0  0  0  0
    6.4984   -7.0612   29.3734 C   0  0  0  0  0  0  0  0  0  0  0  0
    2.7757   -4.7558   27.2751 C   0  0  0  0  0  0  0  0  0  0  0  0
    2.5026  -10.8002   16.1451 C   0  0  0  0  0  0  0  0  0  0  0  0
    1.2887  -11.5219   17.8689 C   0  0  0  0  0  0  0  0  0  0  0  0
    6.3230   -7.0571   28.1317 C   0  0  0  0  0  0  0  0  0  0  0  0
    2.5041   -6.6064   26.5380 C   0  0  0  0  0  0  0  0  0  0  0  0
    1.8565   -5.5264   27.0431 C   0  0  0  0  0  0  0  0  0  0  0  0
    2.2764   -7.0980   28.2706 C   0  0  0  0  0  0  0  0  0  0  0  0
  3  9  4  0
  4  8  1  0
  6 23  4  0
  7 26  1  0
 10 21  4  0
 10 25  4  0
 12 13  4  0
 17 22  1  0
 19 20  4  0
 19 24  4  0
 20 23  4  0
 22 27  1  0
 26 27  1  0
M  END
$$$$

 Created by Python create_sdf_string function

 28 22  0  0  0  0  0  0  0  0999 V2000
   -0.1770   -5.0202   26.7023 Br  0  0  0  0  0  0  0  0  0  0  0  0
    5.0211   -5.2980   29.0144 C   0  0  0  0  0  0  0  0  0  0  0  0
   -0.0880   -3.2632   28.5797 N   0  0  0  0  0  0  0  0  0  0  0  0
    3.4985  -11.3482   14.9517 O   0  0  0  0  0  0  0  0  0  0  0  0
    2.8555   -9.0365   26.5880 C   0  0  0  0  0  0  0  0  0  0  0  0
    6.0123   -8.6579   29.6775 Cl  0  0  0  0  0  0  0  0  0  0  0  0
    4.3992  -10.7865   28.0217 C   0  0  0  0  0  0  0  0  0  0  0  0
    2.4133  -10.4981   19.6660 C   0  0  0  0  0  0  0  0  0  0  0  0
    0.4851  -11.2692   15.3342 Se  0  0  0  0  0  0  0  0  0  0  0  0
    6.3035   -5.8647   28.7431 C   0  0  0  0  0  0  0  0  0  0  0  0
    3.0096   -7.0189   27.6630 O   0  0  0  0  0  0  0  0  0  0  0  0
    1.6816   -9.7977   15.5402 C   0  0  0  0  0  0  0  0  0  0  0  0
    1.1626   -5.0918   27.3962 C   0  0  0  0  0  0  0  0  0  0  0  0
    6.4670   -9.0671   28.0609 He  0  0  0  0  0  0  0  0  0  0  0  0
    0.8574   -3.5726   28.9684 He  0  0  0  0  0  0  0  0  0  0  0  0
    2.9704  -10.7090   13.3993 He  0  0  0  0  0  0  0  0  0  0  0  0
    2.6244  -12.2969   14.5204 He  0  0  0  0  0  0  0  0  0  0  0  0
    2.7152   -7.7380   27.4921 He  0  0  0  0  0  0  0  0  0  0  0  0
    6.0790   -6.6177   27.9406 He  0  0  0  0  0  0  0  0  0  0  0  0
    2.2862   -9.0509   14.4376 He  0  0  0  0  0  0  0  0  0  0  0  0
    0.8178   -7.6067   17.6121 He  0  0  0  0  0  0  0  0  0  0  0  0
    4.4929   -7.3265   28.8433 He  0  0  0  0  0  0  0  0  0  0  0  0
    1.3677   -3.5773   28.2894 He  0  0  0  0  0  0  0  0  0  0  0  0
    2.7083   -5.4713   26.2350 He  0  0  0  0  0  0  0  0  0  0  0  0
    2.2090  -10.3442   17.4691 He  0  0  0  0  0  0  0  0  0  0  0  0
    6.9521   -6.5625   28.3570 He  0  0  0  0  0  0  0  0  0  0  0  0
    2.2647   -6.2252   25.9526 He  0  0  0  0  0  0  0  0  0  0  0  0
    0.7442   -6.4931   27.8411 He  0  0  0  0  0  0  0  0  0  0  0  0
  1  4  3  0
  1  6  1  0
  1 11  4  0
  2  3  2  0
  2  9  3  0
  2 10  4  0
  3  4  3  0
  3 11  1  0
  3 12  4  0
  5 10  2  0
  6  7  3  0
  6  9  1  0
  6 10  2  0
  6 11  4  0
  7  9  2  0
  8  9  3  0
  8 10  4  0
  8 12  4  0
  8 13  1  0
  9 10  1  0
  9 13  3  0
 10 12  3  0
M  END
$$$$

 Created by Python create_sdf_string function

 28 13  0  0  0  0  0  0  0  0999 V2000
    6.3649   -8.7185   28.5150 C   0  0  0  0  0  0  0  0  0  0  0  0
    0.5564   -3.9659   28.3164 C   0  0  0  0  0  0  0  0  0  0  0  0
    3.0538  -11.0065   14.0199 C   0  0  0  0  0  0  0  0  0  0  0  0
   -0.1537   -4.9936   27.1180 C   0  0  0  0  0  0  0  0  0  0  0  0
    5.4776   -5.5843   28.3809 C   0  0  0  0  0  0  0  0  0  0  0  0
    2.5613  -12.0167   14.4794 C   0  0  0  0  0  0  0  0  0  0  0  0
    3.2406   -7.9829   27.4300 C   0  0  0  0  0  0  0  0  0  0  0  0
    0.1620   -3.4978   28.3070 C   0  0  0  0  0  0  0  0  0  0  0  0
    3.5078  -11.3460   14.6636 C   0  0  0  0  0  0  0  0  0  0  0  0
    5.5717   -6.8963   28.1001 C   0  0  0  0  0  0  0  0  0  0  0  0
    2.8862   -8.5325   26.7823 C   0  0  0  0  0  0  0  0  0  0  0  0
    2.0360   -9.5512   15.0701 C   0  0  0  0  0  0  0  0  0  0  0  0
    0.9916   -8.8250   16.8140 C   0  0  0  0  0  0  0  0  0  0  0  0
    4.8987   -7.7734   28.1314 C   0  0  0  0  0  0  0  0  0  0  0  0
    6.1366   -8.7081   28.8004 C   0  0  0  0  0  0  0  0  0  0  0  0
    4.5162   -9.6944   28.0837 C   0  0  0  0  0  0  0  0  0  0  0  0
    1.1230   -3.7714   27.8675 C   0  0  0  0  0  0  0  0  0  0  0  0
    2.6562   -6.0849   26.5067 C   0  0  0  0  0  0  0  0  0  0  0  0
    1.7354  -10.3226   17.8312 C   0  0  0  0  0  0  0  0  0  0  0  0
    1.5143  -10.7967   15.5933 C   0  0  0  0  0  0  0  0  0  0  0  0
    6.3731   -5.7147   28.5642 C   0  0  0  0  0  0  0  0  0  0  0  0
    3.4027   -7.1121   27.5452 C   0  0  0  0  0  0  0  0  0  0  0  0
    1.7843  -10.0806   15.7219 C   0  0  0  0  0  0  0  0  0  0  0  0
    1.5548  -10.0619   17.4341 C   0  0  0  0  0  0  0  0  0  0  0  0
    6.9716   -6.7821   28.4174 C   0  0  0  0  0  0  0  0  0  0  0  0
    2.1722   -6.2907   26.6379 C   0  0  0  0  0  0  0  0  0  0  0  0
    1.6001   -4.6426   27.3299 C   0  0  0  0  0  0  0  0  0  0  0  0
    0.6537   -6.0613   27.3841 C   0  0  0  0  0  0  0  0  0  0  0  0
  1 15  1  0
  2  8  4  0
  3  9  4  0
  4 28  4  0
  5 21  4  0
  8 17  4  0
 12 23  4  0
 13 24  4  0
 17 27  4  0
 18 26  1  0
 19 24  4  0
 20 23  4  0
 21 25  4  0
M  END
$$$$

 Created by Python create_sdf_string function

 28 55  0  0  0  0  0  0  0  0999 V2000
    5.9964   -9.4864   28.9451 C   0  0  0  0  0  0  0  0  0  0  0  0
    1.2222   -2.9080   28.5930 C   0  0  0  0  0  0  0  0  0  0  0  0
    2.4638  -10.4953   14.1479 C   0  0  0  0  0  0  0  0  0  0  0  0
    0.7245   -4.9396   27.8425 C   0  0  0  0  0  0  0  0  0  0  0  0
    5.4596   -5.1683   27.2756 C   0  0  0  0  0  0  0  0  0  0  0  0
    1.9017  -11.0136   14.2750 C   0  0  0  0  0  0  0  0  0  0  0  0
    3.3474   -7.1907   27.7839 C   0  0  0  0  0  0  0  0  0  0  0  0
    0.3760   -2.4618   28.3796 C   0  0  0  0  0  0  0  0  0  0  0  0
    3.1989  -11.9607   13.0370 Se  0  0  0  0  0  0  0  0  0  0  0  0
    4.5576   -6.2840   28.2453 C   0  0  0  0  0  0  0  0  0  0  0  0
    3.5656  -10.0848   25.4645 I   0  0  0  0  0  0  0  0  0  0  0  0
    0.3109  -10.4810   16.0668 C   0  0  0  0  0  0  0  0  0  0  0  0
    4.9849   -7.7307   27.2718 N   0  0  0  0  0  0  0  0  0  0  0  0
    5.0589  -10.5672   28.1002 P   0  0  0  0  0  0  0  0  0  0  0  0
    0.5546  -12.3329   15.2683 F   0  0  0  0  0  0  0  0  0  0  0  0
    7.1290   -6.1765   28.5567 O   0  0  0  0  0  0  0  0  0  0  0  0
    4.3333   -7.0387   27.9653 C   0  0  0  0  0  0  0  0  0  0  0  0
    1.8122  -10.8592   16.3796 O   0  0  0  0  0  0  0  0  0  0  0  0
    1.1111   -9.8471   17.9582 F   0  0  0  0  0  0  0  0  0  0  0  0
    1.5502   -4.3305   26.9952 O   0  0  0  0  0  0  0  0  0  0  0  0
    2.3028   -9.6627   15.3749 He  0  0  0  0  0  0  0  0  0  0  0  0
    6.8232   -9.0660   27.6610 He  0  0  0  0  0  0  0  0  0  0  0  0
    2.2744   -1.5639   26.4818 He  0  0  0  0  0  0  0  0  0  0  0  0
    2.4016   -6.5205   26.7758 He  0  0  0  0  0  0  0  0  0  0  0  0
    2.3476  -10.3637   17.6229 He  0  0  0  0  0  0  0  0  0  0  0  0
    7.6462   -6.3625   28.2805 He  0  0  0  0  0  0  0  0  0  0  0  0
    2.1073   -6.4999   25.2485 He  0  0  0  0  0  0  0  0  0  0  0  0
    1.1460   -6.6893   28.2557 He  0  0  0  0  0  0  0  0  0  0  0  0
  1  4  2  0
  1  7  2  0
  1  8  1  0
  1 13  3  0
  1 15  1  0
  2  3  3  0
  2 10  2  0
  2 13  3  0
  2 17  3  0
  3  4  1  0
  3  7  4  0
  3  9  1  0
  3 11  1  0
  3 19  4  0
  4  5  1  0
  4  6  4  0
  4 10  1  0
  4 15  4  0
  5  9  4  0
  5 11  2  0
  5 12  3  0
  5 13  4  0
  6  7  1  0
  6 12  3  0
  6 19  1  0
  6 20  4  0
  7 10  2  0
  7 13  2  0
  7 17  3  0
  7 20  4  0
  8 12  2  0
  8 13  2  0
  8 15  3  0
  8 18  1  0
  9 13  2  0
  9 16  2  0
  9 20  1  0
 10 14  1  0
 10 16  1  0
 10 20  2  0
 11 12  1  0
 11 17  4  0
 12 13  3  0
 12 14  1  0
 12 18  3  0
 12 19  2  0
 13 15  4  0
 13 17  4  0
 13 18  4  0
 14 18  2  0
 15 18  1  0
 15 20  2  0
 16 17  1  0
 17 18  1  0
 19 20  3  0
M  END
$$$$

 Created by Python create_sdf_string function

 28 18  0  0  0  0  0  0  0  0999 V2000
    5.8110   -9.2473   28.2683 C   0  0  0  0  0  0  0  0  0  0  0  0
    1.0426   -3.0428   28.2239 C   0  0  0  0  0  0  0  0  0  0  0  0
    2.6764  -10.7020   14.0103 C   0  0  0  0  0  0  0  0  0  0  0  0
    1.2645   -4.6067   27.3679 C   0  0  0  0  0  0  0  0  0  0  0  0
    5.9526   -5.6867   27.4619 C   0  0  0  0  0  0  0  0  0  0  0  0
    1.5438  -11.3747   14.5504 C   0  0  0  0  0  0  0  0  0  0  0  0
    3.1833   -7.1206   27.5255 C   0  0  0  0  0  0  0  0  0  0  0  0
    0.9433   -2.7447   27.9752 C   0  0  0  0  0  0  0  0  0  0  0  0
    2.8317  -11.5370   13.3538 C   0  0  0  0  0  0  0  0  0  0  0  0
    4.4478   -6.4111   27.9934 C   0  0  0  0  0  0  0  0  0  0  0  0
    3.5750   -9.0316   26.6531 N   0  0  0  0  0  0  0  0  0  0  0  0
    2.4306   -9.9134   15.2673 C   0  0  0  0  0  0  0  0  0  0  0  0
    0.9224  -10.3628   16.6772 C   0  0  0  0  0  0  0  0  0  0  0  0
    5.2890   -7.4857   27.6393 C   0  0  0  0  0  0  0  0  0  0  0  0
    6.6676   -8.6070   28.2373 C   0  0  0  0  0  0  0  0  0  0  0  0
    4.9334   -9.8452   27.8710 C   0  0  0  0  0  0  0  0  0  0  0  0
    1.7718   -2.4622   26.9637 C   0  0  0  0  0  0  0  0  0  0  0  0
    2.3293   -6.5582   26.9539 C   0  0  0  0  0  0  0  0  0  0  0  0
    1.9107   -9.8537   17.1665 C   0  0  0  0  0  0  0  0  0  0  0  0
    0.9831  -11.9879   15.1318 C   0  0  0  0  0  0  0  0  0  0  0  0
    7.2809   -6.1598   27.8675 C   0  0  0  0  0  0  0  0  0  0  0  0
    4.4356   -7.5400   27.4134 C   0  0  0  0  0  0  0  0  0  0  0  0
    1.3339  -11.1365   15.9359 C   0  0  0  0  0  0  0  0  0  0  0  0
    0.6544   -9.9089   17.5964 C   0  0  0  0  0  0  0  0  0  0  0  0
    7.2616   -6.2494   27.8880 C   0  0  0  0  0  0  0  0  0  0  0  0
    2.1301   -6.1318   26.3801 C   0  0  0  0  0  0  0  0  0  0  0  0
    1.7379   -3.9031   26.8871 C   0  0  0  0  0  0  0  0  0  0  0  0
    1.3305   -5.8888   27.8394 C   0  0  0  0  0  0  0  0  0  0  0  0
  1 15  4  0
  1 16  4  0
  2  8  4  0
  3  9  1  0
  3 12  4  0
  4 27  4  0
  5 14  4  0
  5 25  4  0
  6 20  4  0
  7 18  4  0
  8 17  1  0
 13 19  1  0
 13 24  2  0
 14 22  4  0
 17 27  4  0
 18 26  1  0
 20 23  4  0
 21 25  4  0
M  END
$$$$

 Created by Python create_sdf_string function

 28 78  0  0  0  0  0  0  0  0999 V2000
    0.9798   -2.8097   29.1317 C   0  0  0  0  0  0  0  0  0  0  0  0
    2.9399  -10.2014   14.5540 O   0  0  0  0  0  0  0  0  0  0  0  0
    1.0720   -4.8673   27.9242 C   0  0  0  0  0  0  0  0  0  0  0  0
    5.3359   -5.0437   27.5509 N   0  0  0  0  0  0  0  0  0  0  0  0
    2.5690  -11.7347   14.6644 N   0  0  0  0  0  0  0  0  0  0  0  0
    3.8196   -7.2523   28.2863 O   0  0  0  0  0  0  0  0  0  0  0  0
    1.1403   -3.8929   28.2341 N   0  0  0  0  0  0  0  0  0  0  0  0
    2.1147  -10.9072   12.4176 C   0  0  0  0  0  0  0  0  0  0  0  0
    2.7824   -7.8739   25.7225 N   0  0  0  0  0  0  0  0  0  0  0  0
    3.1871  -10.4603   14.4171 O   0  0  0  0  0  0  0  0  0  0  0  0
    5.6137   -7.5021   27.4693 C   0  0  0  0  0  0  0  0  0  0  0  0
    6.1576   -9.8895   27.2933 N   0  0  0  0  0  0  0  0  0  0  0  0
    1.5616   -2.4556   26.4144 P   0  0  0  0  0  0  0  0  0  0  0  0
    2.2314   -5.9007   26.8262 C   0  0  0  0  0  0  0  0  0  0  0  0
    1.7334   -9.8836   16.8810 C   0  0  0  0  0  0  0  0  0  0  0  0
    6.3556   -6.8578   28.5260 C   0  0  0  0  0  0  0  0  0  0  0  0
    4.4964   -8.6226   27.2905 Br  0  0  0  0  0  0  0  0  0  0  0  0
    1.6576  -11.5241   15.5013 C   0  0  0  0  0  0  0  0  0  0  0  0
    1.4710   -9.9845   17.7235 F   0  0  0  0  0  0  0  0  0  0  0  0
    6.3440   -5.7986   29.1840 F   0  0  0  0  0  0  0  0  0  0  0  0
    1.5193   -5.5632   25.1837 Se  0  0  0  0  0  0  0  0  0  0  0  0
    1.6013   -4.2516   27.9281 C   0  0  0  0  0  0  0  0  0  0  0  0
    2.2626   -7.3336   26.7441 C   0  0  0  0  0  0  0  0  0  0  0  0
    5.6339   -9.5990   27.3998 He  0  0  0  0  0  0  0  0  0  0  0  0
    5.0268   -6.2567   27.7132 He  0  0  0  0  0  0  0  0  0  0  0  0
   -0.5652  -11.3748   17.8659 He  0  0  0  0  0  0  0  0  0  0  0  0
    8.4010   -7.7038   28.0634 He  0  0  0  0  0  0  0  0  0  0  0  0
    1.5803  -12.7780   14.7199 He  0  0  0  0  0  0  0  0  0  0  0  0
  1  7  4  0
  1  9  1  0
  1 11  2  0
  1 16  2  0
  1 17  2  0
  1 18  2  0
  1 19  2  0
  1 23  2  0
  2  5  1  0
  2 10  4  0
  2 11  3  0
  2 13  1  0
  2 20  3  0
  2 23  2  0
  3  9  1  0
  3 12  2  0
  3 13  1  0
  3 14  3  0
  3 17  3  0
  3 23  4  0
  4  6  2  0
  4  7  3  0
  4 11  3  0
  4 14  4  0
  4 18  4  0
  4 20  2  0
  4 21  2  0
  4 22  4  0
  5  6  3  0
  5 12  4  0
  5 14  4  0
  5 18  2  0
  5 19  3  0
  5 23  2  0
  6  9  1  0
  6 12  4  0
  6 14  4  0
  6 17  3  0
  6 21  3  0
  7  9  1  0
  7 11  2  0
  7 13  4  0
  7 14  2  0
  7 19  2  0
  7 21  1  0
  8 13  1  0
  8 14  3  0
  8 17  2  0
  8 20  3  0
  8 22  4  0
  9 18  1  0
  9 20  1  0
  9 21  3  0
 10 14  1  0
 10 22  2  0
 10 23  3  0
 11 17  4  0
 11 19  4  0
 11 22  1  0
 12 13  2  0
 12 14  3  0
 12 23  1  0
 13 15  1  0
 13 21  4  0
 13 22  4  0
 14 16  1  0
 14 17  3  0
 14 20  2  0
 15 17  3  0
 15 19  1  0
 16 17  4  0
 16 23  1  0
 17 20  2  0
 17 23  4  0
 19 21  1  0
 20 21  2  0
 20 23  1  0
 21 23  2  0
M  END
$$$$

 Created by Python create_sdf_string function

 28 11  0  0  0  0  0  0  0  0999 V2000
    5.8182   -8.8787   27.4217 C   0  0  0  0  0  0  0  0  0  0  0  0
    1.0638   -3.2767   28.6094 C   0  0  0  0  0  0  0  0  0  0  0  0
    2.6447  -10.1139   14.6899 C   0  0  0  0  0  0  0  0  0  0  0  0
    1.3414   -5.0288   27.8695 C   0  0  0  0  0  0  0  0  0  0  0  0
    5.3487   -5.3764   28.0302 C   0  0  0  0  0  0  0  0  0  0  0  0
    2.2403  -12.0019   14.4031 C   0  0  0  0  0  0  0  0  0  0  0  0
    3.9395   -7.2115   27.7365 C   0  0  0  0  0  0  0  0  0  0  0  0
    1.3006   -3.3897   28.1645 C   0  0  0  0  0  0  0  0  0  0  0  0
    2.4898  -11.3161   13.1524 C   0  0  0  0  0  0  0  0  0  0  0  0
    5.0891   -6.2836   27.7142 C   0  0  0  0  0  0  0  0  0  0  0  0
    3.1315   -7.7085   26.2675 N   0  0  0  0  0  0  0  0  0  0  0  0
    2.5857  -10.1575   14.9768 C   0  0  0  0  0  0  0  0  0  0  0  0
    0.1237  -11.0543   17.4676 O   0  0  0  0  0  0  0  0  0  0  0  0
    5.6621   -7.5605   27.5517 C   0  0  0  0  0  0  0  0  0  0  0  0
    8.0839   -7.6947   28.0786 C   0  0  0  0  0  0  0  0  0  0  0  0
    6.0286   -9.0729   27.4983 N   0  0  0  0  0  0  0  0  0  0  0  0
    1.3520   -3.1302   26.7750 C   0  0  0  0  0  0  0  0  0  0  0  0
    2.2419   -5.7897   27.1249 C   0  0  0  0  0  0  0  0  0  0  0  0
    1.3042  -10.2202   16.8744 C   0  0  0  0  0  0  0  0  0  0  0  0
    1.5569  -12.2832   14.7927 C   0  0  0  0  0  0  0  0  0  0  0  0
    6.9256   -6.9691   28.1039 C   0  0  0  0  0  0  0  0  0  0  0  0
    4.4669   -8.4379   26.9358 C   0  0  0  0  0  0  0  0  0  0  0  0
    1.4736  -11.4433   15.6877 C   0  0  0  0  0  0  0  0  0  0  0  0
    1.4304   -9.6386   17.2195 O   0  0  0  0  0  0  0  0  0  0  0  0
    6.7674   -5.8884   28.5137 C   0  0  0  0  0  0  0  0  0  0  0  0
    1.7586   -5.3292   26.4728 C   0  0  0  0  0  0  0  0  0  0  0  0
    1.5718   -3.9303   27.7827 C   0  0  0  0  0  0  0  0  0  0  0  0
    2.3274   -7.0093   26.8250 C   0  0  0  0  0  0  0  0  0  0  0  0
  1 16  4  0
  2  8  4  0
  3 12  4  0
  6 20  4  0
  8 17  4  0
 11 28  1  0
 13 19  1  0
 15 21  4  0
 17 27  4  0
 19 24  1  0
 20 23  4  0
M  END
$$$$

 Created by Python create_sdf_string function

 28 65  0  0  0  0  0  0  0  0999 V2000
    5.7277   -8.1524   28.4999 C   0  0  0  0  0  0  0  0  0  0  0  0
    1.0171   -3.8462   28.8079 N   0  0  0  0  0  0  0  0  0  0  0  0
    2.2957  -10.0830   14.4369 C   0  0  0  0  0  0  0  0  0  0  0  0
    3.4002   -5.4839   28.3915 C   0  0  0  0  0  0  0  0  0  0  0  0
    3.6569   -9.2461   27.8992 C   0  0  0  0  0  0  0  0  0  0  0  0
    2.7907   -1.9911   28.5148 C   0  0  0  0  0  0  0  0  0  0  0  0
    2.1608  -10.4704   13.4931 N   0  0  0  0  0  0  0  0  0  0  0  0
    4.3877   -9.1967   26.6491 N   0  0  0  0  0  0  0  0  0  0  0  0
    3.5453  -10.5620   15.8310 F   0  0  0  0  0  0  0  0  0  0  0  0
    6.3934   -7.8408   26.8164 F   0  0  0  0  0  0  0  0  0  0  0  0
    6.8895   -7.5231   28.6888 C   0  0  0  0  0  0  0  0  0  0  0  0
    2.2839   -7.5013   27.0559 C   0  0  0  0  0  0  0  0  0  0  0  0
    1.9651  -10.8306   17.6601 C   0  0  0  0  0  0  0  0  0  0  0  0
    2.6373  -12.8934   14.2748 P   0  0  0  0  0  0  0  0  0  0  0  0
    7.3689   -5.9075   28.8415 O   0  0  0  0  0  0  0  0  0  0  0  0
    1.9278  -11.2087   16.0005 C   0  0  0  0  0  0  0  0  0  0  0  0
    0.1063   -9.6457   19.2004 F   0  0  0  0  0  0  0  0  0  0  0  0
    6.4782   -5.7497   27.3740 C   0  0  0  0  0  0  0  0  0  0  0  0
    1.4455   -2.8814   27.5838 C   0  0  0  0  0  0  0  0  0  0  0  0
    1.6105   -7.1103   26.0407 C   0  0  0  0  0  0  0  0  0  0  0  0
    1.2424   -3.8514   27.4055 He  0  0  0  0  0  0  0  0  0  0  0  0
    2.7998  -11.0870   14.8328 He  0  0  0  0  0  0  0  0  0  0  0  0
    4.8434   -5.9391   28.2738 He  0  0  0  0  0  0  0  0  0  0  0  0
   -0.3460  -11.3318   16.3198 He  0  0  0  0  0  0  0  0  0  0  0  0
    6.2049   -8.4773   26.7244 He  0  0  0  0  0  0  0  0  0  0  0  0
    2.9046   -2.9535   26.8280 He  0  0  0  0  0  0  0  0  0  0  0  0
    4.2535   -8.3122   25.4660 He  0  0  0  0  0  0  0  0  0  0  0  0
    1.5684   -5.6314   26.4774 He  0  0  0  0  0  0  0  0  0  0  0  0
  1  2  3  0
  1  5  4  0
  1  6  3  0
  1  7  4  0
  1 12  4  0
  1 14  3  0
  1 15  1  0
  1 19  3  0
  1 20  2  0
  2  9  2  0
  2 10  2  0
  2 11  4  0
  2 13  1  0
  2 14  2  0
  2 16  4  0
  2 17  3  0
  3  8  1  0
  3  9  1  0
  3 11  4  0
  3 15  1  0
  4  5  3  0
  4  6  2  0
  4  7  1  0
  4 11  2  0
  4 12  3  0
  4 13  4  0
  5  6  2  0
  5  7  4  0
  5 10  3  0
  5 13  3  0
  5 15  3  0
  5 17  4  0
  6 12  4  0
  6 15  2  0
  6 16  1  0
  6 19  4  0
  7 18  2  0
  7 19  4  0
  8 10  2  0
  8 12  1  0
  8 16  3  0
  8 17  3  0
  8 20  1  0
  9 11  1  0
  9 13  1  0
 10 12  2  0
 10 15  4  0
 10 17  2  0
 10 18  3  0
 11 16  3  0
 11 18  3  0
 11 19  3  0
 11 20  4  0
 12 18  1  0
 12 20  4  0
 13 14  2  0
 13 16  2  0
 13 17  2  0
 13 18  2  0
 13 19  1  0
 14 16  4  0
 14 19  1  0
 15 16  3  0
 15 17  1  0
 15 20  4  0
M  END
$$$$

 Created by Python create_sdf_string function

 28 16  0  0  0  0  0  0  0  0999 V2000
    5.8470   -8.0865   28.0980 C   0  0  0  0  0  0  0  0  0  0  0  0
    1.2647   -3.8235   28.2195 C   0  0  0  0  0  0  0  0  0  0  0  0
    2.1132  -10.3729   14.6277 C   0  0  0  0  0  0  0  0  0  0  0  0
    1.2060   -4.6008   27.1783 C   0  0  0  0  0  0  0  0  0  0  0  0
    3.1157   -4.9717   27.7478 C   0  0  0  0  0  0  0  0  0  0  0  0
    2.6247  -11.6343   14.9533 C   0  0  0  0  0  0  0  0  0  0  0  0
    4.0219   -8.6320   27.6955 C   0  0  0  0  0  0  0  0  0  0  0  0
    2.3752   -2.4298   27.9528 C   0  0  0  0  0  0  0  0  0  0  0  0
    2.3203  -10.6886   13.6794 C   0  0  0  0  0  0  0  0  0  0  0  0
    4.6585   -6.0443   27.8403 C   0  0  0  0  0  0  0  0  0  0  0  0
    3.7049   -8.3724   26.7992 N   0  0  0  0  0  0  0  0  0  0  0  0
    2.8229  -10.4350   16.1186 C   0  0  0  0  0  0  0  0  0  0  0  0
    0.2589  -10.9919   16.4922 C   0  0  0  0  0  0  0  0  0  0  0  0
    6.1171   -7.5607   27.1348 C   0  0  0  0  0  0  0  0  0  0  0  0
    7.3416   -6.8666   28.4625 C   0  0  0  0  0  0  0  0  0  0  0  0
    6.0870   -8.0549   27.1986 C   0  0  0  0  0  0  0  0  0  0  0  0
    3.1073   -3.3791   27.4568 C   0  0  0  0  0  0  0  0  0  0  0  0
    2.5293   -7.1928   27.0313 C   0  0  0  0  0  0  0  0  0  0  0  0
    1.5013  -10.3628   17.4526 C   0  0  0  0  0  0  0  0  0  0  0  0
    2.6295  -12.3808   14.4528 C   0  0  0  0  0  0  0  0  0  0  0  0
    7.5167   -6.4800   28.6317 C   0  0  0  0  0  0  0  0  0  0  0  0
    4.1268   -7.8151   25.9542 C   0  0  0  0  0  0  0  0  0  0  0  0
    1.6034  -11.1691   15.9050 C   0  0  0  0  0  0  0  0  0  0  0  0
    0.7467  -10.2756   18.0956 C   0  0  0  0  0  0  0  0  0  0  0  0
    6.4868   -6.1328   27.7849 C   0  0  0  0  0  0  0  0  0  0  0  0
    1.7252   -5.3859   26.9859 C   0  0  0  0  0  0  0  0  0  0  0  0
    1.5992   -2.7958   27.7526 C   0  0  0  0  0  0  0  0  0  0  0  0
    2.0826   -7.1884   26.8071 C   0  0  0  0  0  0  0  0  0  0  0  0
  1 16  4  0
  2 27  4  0
  3  9  4  0
  4 26  4  0
  5 17  4  0
  6 20  1  0
  7 11  1  0
  8 17  4  0
  8 27  4  0
 11 22  1  0
 13 23  1  0
 14 16  4  0
 15 21  4  0
 15 25  4  0
 18 28  1  0
 19 24  1  0
M  END
$$$$

 Created by Python create_sdf_string function

 28 23  0  0  0  0  0  0  0  0999 V2000
    1.2225   -4.7534   28.3587 N   0  0  0  0  0  0  0  0  0  0  0  0
    1.6195  -10.8454   13.8129 N   0  0  0  0  0  0  0  0  0  0  0  0
    3.1391   -4.6015   27.2243 S   0  0  0  0  0  0  0  0  0  0  0  0
    1.9081  -11.1157   15.6602 N   0  0  0  0  0  0  0  0  0  0  0  0
    2.1652  -11.2914   14.2697 C   0  0  0  0  0  0  0  0  0  0  0  0
   -0.6072  -10.7310   15.2350 N   0  0  0  0  0  0  0  0  0  0  0  0
    6.1766   -6.2637   26.3538 N   0  0  0  0  0  0  0  0  0  0  0  0
    6.1140   -7.8944   27.5759 C   0  0  0  0  0  0  0  0  0  0  0  0
    2.3903   -3.5877   28.3054 P   0  0  0  0  0  0  0  0  0  0  0  0
    1.0285  -10.4626   17.8112 C   0  0  0  0  0  0  0  0  0  0  0  0
    0.9288   -9.3163   17.6757 C   0  0  0  0  0  0  0  0  0  0  0  0
    1.7832   -5.2674   26.5804 C   0  0  0  0  0  0  0  0  0  0  0  0
    2.4591   -1.9572   26.8922 Cl  0  0  0  0  0  0  0  0  0  0  0  0
    5.4588   -8.5047   26.6518 He  0  0  0  0  0  0  0  0  0  0  0  0
    3.4229   -4.9973   26.5986 He  0  0  0  0  0  0  0  0  0  0  0  0
    4.8214   -8.8102   27.9123 He  0  0  0  0  0  0  0  0  0  0  0  0
    2.7358   -2.4251   27.9371 He  0  0  0  0  0  0  0  0  0  0  0  0
    2.6169   -7.0131   28.8165 He  0  0  0  0  0  0  0  0  0  0  0  0
    3.4550   -7.5505   27.4376 He  0  0  0  0  0  0  0  0  0  0  0  0
    3.1029  -11.3265   15.7655 He  0  0  0  0  0  0  0  0  0  0  0  0
    7.1882   -7.1177   29.5463 He  0  0  0  0  0  0  0  0  0  0  0  0
    3.0722   -6.0241   26.1681 He  0  0  0  0  0  0  0  0  0  0  0  0
    3.6363  -13.3902   14.1840 He  0  0  0  0  0  0  0  0  0  0  0  0
    7.5467   -6.2194   28.3987 He  0  0  0  0  0  0  0  0  0  0  0  0
    4.4355   -8.4709   27.2334 He  0  0  0  0  0  0  0  0  0  0  0  0
    1.4123  -11.8410   14.7125 He  0  0  0  0  0  0  0  0  0  0  0  0
    6.2542   -5.1630   27.8263 He  0  0  0  0  0  0  0  0  0  0  0  0
    2.1062   -5.9453   27.1248 He  0  0  0  0  0  0  0  0  0  0  0  0
  1  3  4  0
  1  7  3  0
  1 13  2  0
  2  5  1  0
  2  7  4  0
  3  6  4  0
  3  7  3  0
  3 10  1  0
  3 12  3  0
  4 11  4  0
  5  7  4  0
  5  8  4  0
  5  9  4  0
  5 11  2  0
  6 10  3  0
  6 11  2  0
  7 12  3  0
  7 13  3  0
  8  9  4  0
  8 13  1  0
  9 11  3  0
  9 13  4  0
 10 13  1  0
M  END
$$$$

 Created by Python create_sdf_string function

 28 10  0  0  0  0  0  0  0  0999 V2000
    5.4300   -8.1150   26.7211 C   0  0  0  0  0  0  0  0  0  0  0  0
    1.3027   -4.4297   27.9811 C   0  0  0  0  0  0  0  0  0  0  0  0
    1.6632  -11.3064   13.8554 C   0  0  0  0  0  0  0  0  0  0  0  0
    3.4331   -4.3339   27.0969 C   0  0  0  0  0  0  0  0  0  0  0  0
    2.7610   -4.4556   27.3418 C   0  0  0  0  0  0  0  0  0  0  0  0
    2.2068  -10.8535   16.2142 C   0  0  0  0  0  0  0  0  0  0  0  0
    4.7843   -8.5743   27.8517 C   0  0  0  0  0  0  0  0  0  0  0  0
    2.2596   -2.5419   27.8616 C   0  0  0  0  0  0  0  0  0  0  0  0
    2.2413  -11.4538   13.9587 C   0  0  0  0  0  0  0  0  0  0  0  0
    2.2532   -7.0535   28.2910 C   0  0  0  0  0  0  0  0  0  0  0  0
    3.4056   -7.6825   27.0229 C   0  0  0  0  0  0  0  0  0  0  0  0
    2.7676  -11.4281   15.8585 C   0  0  0  0  0  0  0  0  0  0  0  0
    0.0508  -10.6167   15.4176 N   0  0  0  0  0  0  0  0  0  0  0  0
    5.9092   -6.4830   27.1049 N   0  0  0  0  0  0  0  0  0  0  0  0
    7.2638   -6.9677   28.9022 O   0  0  0  0  0  0  0  0  0  0  0  0
    6.2324   -7.8329   27.5152 C   0  0  0  0  0  0  0  0  0  0  0  0
    2.3687   -2.8572   27.7918 C   0  0  0  0  0  0  0  0  0  0  0  0
    3.1730   -6.5039   26.4508 C   0  0  0  0  0  0  0  0  0  0  0  0
    0.9293  -10.1554   17.2076 C   0  0  0  0  0  0  0  0  0  0  0  0
    3.3242  -12.7904   14.3389 C   0  0  0  0  0  0  0  0  0  0  0  0
    7.2013   -6.4977   28.2123 C   0  0  0  0  0  0  0  0  0  0  0  0
    4.6729   -8.0761   26.9544 C   0  0  0  0  0  0  0  0  0  0  0  0
    1.5911  -11.5425   14.9126 C   0  0  0  0  0  0  0  0  0  0  0  0
    0.8482  -10.0317   17.0853 C   0  0  0  0  0  0  0  0  0  0  0  0
    6.3813   -5.4695   27.7037 C   0  0  0  0  0  0  0  0  0  0  0  0
    1.7574   -5.2806   27.0964 C   0  0  0  0  0  0  0  0  0  0  0  0
    2.6108   -2.2763   27.2189 C   0  0  0  0  0  0  0  0  0  0  0  0
    1.8893   -6.3715   27.3240 C   0  0  0  0  0  0  0  0  0  0  0  0
  1 16  1  0
  1 22  1  0
  3  9  1  0
  4  5  4  0
  6 12  4  0
  8 17  4  0
 10 28  1  0
 15 21  1  0
 17 27  4  0
 19 24  4  0
M  END
$$$$

 Created by Python create_sdf_string function

 28  8  0  0  0  0  0  0  0  0999 V2000
    2.3634  -10.1406   12.6011 C   0  0  0  0  0  0  0  0  0  0  0  0
    2.9985   -4.4815   27.4390 Cl  0  0  0  0  0  0  0  0  0  0  0  0
    1.7993   -6.6358   27.6027 O   0  0  0  0  0  0  0  0  0  0  0  0
    3.9063  -10.9389   14.8192 P   0  0  0  0  0  0  0  0  0  0  0  0
    6.7981   -7.0428   28.5660 N   0  0  0  0  0  0  0  0  0  0  0  0
    1.4128   -2.8925   27.1079 Cl  0  0  0  0  0  0  0  0  0  0  0  0
    3.7877   -8.1944   26.4149 P   0  0  0  0  0  0  0  0  0  0  0  0
    3.2787  -12.5709   13.4700 O   0  0  0  0  0  0  0  0  0  0  0  0
    5.7975   -9.2182   27.8889 C   0  0  0  0  0  0  0  0  0  0  0  0
    6.0770   -5.2030   27.6877 N   0  0  0  0  0  0  0  0  0  0  0  0
    2.2947   -6.8745   27.3046 O   0  0  0  0  0  0  0  0  0  0  0  0
    3.3389   -2.7907   26.6605 C   0  0  0  0  0  0  0  0  0  0  0  0
    6.0345   -8.7081   25.7775 He  0  0  0  0  0  0  0  0  0  0  0  0
    1.2365   -5.3500   28.0592 He  0  0  0  0  0  0  0  0  0  0  0  0
    2.4088   -4.8606   26.6914 He  0  0  0  0  0  0  0  0  0  0  0  0
    2.8056  -10.3764   15.8653 He  0  0  0  0  0  0  0  0  0  0  0  0
    4.9872   -8.9930   27.0963 He  0  0  0  0  0  0  0  0  0  0  0  0
    1.0638   -3.1626   27.8671 He  0  0  0  0  0  0  0  0  0  0  0  0
    1.7872  -11.3428   15.4123 He  0  0  0  0  0  0  0  0  0  0  0  0
    1.7567   -6.4867   25.6031 He  0  0  0  0  0  0  0  0  0  0  0  0
   -0.3910  -10.2088   15.5438 He  0  0  0  0  0  0  0  0  0  0  0  0
    7.4112   -7.0216   28.3477 He  0  0  0  0  0  0  0  0  0  0  0  0
    6.9683   -7.4596   27.0988 He  0  0  0  0  0  0  0  0  0  0  0  0
    0.3138   -8.5066   15.7776 He  0  0  0  0  0  0  0  0  0  0  0  0
    7.2010   -7.5267   28.3292 He  0  0  0  0  0  0  0  0  0  0  0  0
    2.2325  -12.4744   15.0341 He  0  0  0  0  0  0  0  0  0  0  0  0
   -0.7982  -10.0021   16.5869 He  0  0  0  0  0  0  0  0  0  0  0  0
    2.4463   -7.0353   28.8046 He  0  0  0  0  0  0  0  0  0  0  0  0
  1  4  2  0
  1  6  3  0
  2  5  2  0
  2  7  1  0
  3  9  3  0
  4  5  2  0
  4  7  3  0
  5  6  2  0
M  END
$$$$

 Created by Python create_sdf_string function

 28 16  0  0  0  0  0  0  0  0999 V2000
    5.6209   -8.1451   26.4932 C   0  0  0  0  0  0  0  0  0  0  0  0
    1.0633   -5.0346   27.8363 C   0  0  0  0  0  0  0  0  0  0  0  0
    2.2028  -10.7823   13.6745 C   0  0  0  0  0  0  0  0  0  0  0  0
    3.0557   -4.2855   27.0809 C   0  0  0  0  0  0  0  0  0  0  0  0
    2.2623   -4.6668   26.9323 C   0  0  0  0  0  0  0  0  0  0  0  0
    2.1144   -9.7860   15.9069 C   0  0  0  0  0  0  0  0  0  0  0  0
    4.8219   -8.5621   27.2773 C   0  0  0  0  0  0  0  0  0  0  0  0
    1.0932   -3.0956   27.4831 C   0  0  0  0  0  0  0  0  0  0  0  0
    1.2746  -10.9391   14.9844 C   0  0  0  0  0  0  0  0  0  0  0  0
    1.7773   -6.6240   27.5622 C   0  0  0  0  0  0  0  0  0  0  0  0
    2.2185   -6.1255   26.2916 C   0  0  0  0  0  0  0  0  0  0  0  0
    3.4137  -10.7402   14.8876 C   0  0  0  0  0  0  0  0  0  0  0  0
    0.0683  -10.4352   15.4786 C   0  0  0  0  0  0  0  0  0  0  0  0
    6.4682   -6.9604   28.4607 C   0  0  0  0  0  0  0  0  0  0  0  0
    7.6047   -6.5941   28.0116 C   0  0  0  0  0  0  0  0  0  0  0  0
    6.7794   -7.6031   27.3175 C   0  0  0  0  0  0  0  0  0  0  0  0
    1.3613   -2.6898   27.2666 C   0  0  0  0  0  0  0  0  0  0  0  0
    3.6543   -7.8100   26.5065 C   0  0  0  0  0  0  0  0  0  0  0  0
    0.6402   -9.0585   16.1141 C   0  0  0  0  0  0  0  0  0  0  0  0
    3.1090  -12.3745   13.7712 O   0  0  0  0  0  0  0  0  0  0  0  0
    7.2024   -7.4416   28.3787 C   0  0  0  0  0  0  0  0  0  0  0  0
    5.5116   -8.6323   27.5418 C   0  0  0  0  0  0  0  0  0  0  0  0
    2.3751  -11.9516   14.4510 C   0  0  0  0  0  0  0  0  0  0  0  0
   -0.1802   -9.8605   16.4021 C   0  0  0  0  0  0  0  0  0  0  0  0
    6.3775   -5.7903   27.8354 C   0  0  0  0  0  0  0  0  0  0  0  0
    2.8952   -7.3532   27.4320 C   0  0  0  0  0  0  0  0  0  0  0  0
    2.8501   -2.8862   27.0566 C   0  0  0  0  0  0  0  0  0  0  0  0
    2.5307   -7.0094   28.3707 C   0  0  0  0  0  0  0  0  0  0  0  0
  1 16  1  0
  1 22  1  0
  4  5  4  0
  4 27  4  0
  5 11  4  0
  6 19  4  0
  8 17  1  0
  9 13  4  0
 10 11  4  0
 10 28  4  0
 13 24  4  0
 14 21  1  0
 15 16  1  0
 19 24  4  0
 20 23  2  0
 26 28  1  0
M  END
$$$$

 Created by Python create_sdf_string function

 28 39  0  0  0  0  0  0  0  0999 V2000
    4.4595   -8.1788   25.2795 F   0  0  0  0  0  0  0  0  0  0  0  0
    1.4258   -3.8872   27.9181 C   0  0  0  0  0  0  0  0  0  0  0  0
    2.1423   -9.1645   15.8638 C   0  0  0  0  0  0  0  0  0  0  0  0
    0.6017   -3.1049   26.5987 F   0  0  0  0  0  0  0  0  0  0  0  0
    1.3767  -10.3537   14.1242 C   0  0  0  0  0  0  0  0  0  0  0  0
    2.2083   -6.1600   26.5945 F   0  0  0  0  0  0  0  0  0  0  0  0
    4.4711  -11.2403   13.7144 P   0  0  0  0  0  0  0  0  0  0  0  0
   -0.1289  -11.5014   15.9606 C   0  0  0  0  0  0  0  0  0  0  0  0
    6.5064   -6.1918   28.4642 C   0  0  0  0  0  0  0  0  0  0  0  0
    2.9741  -12.9997   13.5975 O   0  0  0  0  0  0  0  0  0  0  0  0
    6.8564   -8.1590   29.4615 P   0  0  0  0  0  0  0  0  0  0  0  0
    5.9572   -8.7301   27.5881 Cl  0  0  0  0  0  0  0  0  0  0  0  0
    2.9342  -12.5748   14.6276 C   0  0  0  0  0  0  0  0  0  0  0  0
    8.0317   -4.7429   27.7489 C   0  0  0  0  0  0  0  0  0  0  0  0
    3.8338   -9.0964   26.8656 C   0  0  0  0  0  0  0  0  0  0  0  0
    2.4749   -4.3061   26.7815 O   0  0  0  0  0  0  0  0  0  0  0  0
    0.7531   -5.1727   28.5184 He  0  0  0  0  0  0  0  0  0  0  0  0
    1.6771  -11.7210   12.9367 He  0  0  0  0  0  0  0  0  0  0  0  0
    2.2263   -3.7438   27.0636 He  0  0  0  0  0  0  0  0  0  0  0  0
    6.0501   -8.1408   26.8771 He  0  0  0  0  0  0  0  0  0  0  0  0
    2.6288   -5.5050   27.6875 He  0  0  0  0  0  0  0  0  0  0  0  0
    7.7439   -7.2494   28.3755 He  0  0  0  0  0  0  0  0  0  0  0  0
    6.8673   -7.0256   26.6691 He  0  0  0  0  0  0  0  0  0  0  0  0
    1.0066   -1.9273   26.1502 He  0  0  0  0  0  0  0  0  0  0  0  0
    3.2344   -7.8589   25.8802 He  0  0  0  0  0  0  0  0  0  0  0  0
    2.6651  -10.1347   16.0616 He  0  0  0  0  0  0  0  0  0  0  0  0
    0.3406  -10.7413   15.1191 He  0  0  0  0  0  0  0  0  0  0  0  0
    2.1437   -6.0937   29.5410 He  0  0  0  0  0  0  0  0  0  0  0  0
  1  8  3  0
  1 13  2  0
  1 14  1  0
  1 16  2  0
  2  6  1  0
  2 11  3  0
  2 12  3  0
  2 13  4  0
  3  4  3  0
  3  9  2  0
  3 10  2  0
  3 14  3  0
  3 15  1  0
  4  7  2  0
  5  9  2  0
  5 11  4  0
  5 12  1  0
  5 13  2  0
  5 14  2  0
  5 15  4  0
  6 11  4  0
  6 12  2  0
  6 13  4  0
  7  9  2  0
  7 10  3  0
  7 11  1  0
  7 14  4  0
  7 15  4  0
  8 11  2  0
  8 12  2  0
  8 14  4  0
  9 11  2  0
  9 12  2  0
  9 13  1  0
  9 14  1  0
  9 16  3  0
 10 15  3  0
 11 12  1  0
 11 14  4  0
M  END
$$$$

 Created by Python create_sdf_string function

 28 18  0  0  0  0  0  0  0  0999 V2000
    4.5643   -7.6747   25.6838 C   0  0  0  0  0  0  0  0  0  0  0  0
    1.0130   -5.2340   28.5510 C   0  0  0  0  0  0  0  0  0  0  0  0
    2.0145  -11.7213   13.7206 C   0  0  0  0  0  0  0  0  0  0  0  0
    1.7358   -4.3966   27.4930 C   0  0  0  0  0  0  0  0  0  0  0  0
    1.1252   -3.8481   27.6045 C   0  0  0  0  0  0  0  0  0  0  0  0
    2.1189   -9.6733   15.9100 C   0  0  0  0  0  0  0  0  0  0  0  0
    5.8049   -7.7492   27.0876 N   0  0  0  0  0  0  0  0  0  0  0  0
    0.9017   -2.7778   26.7905 C   0  0  0  0  0  0  0  0  0  0  0  0
    1.4383  -10.9313   14.6203 C   0  0  0  0  0  0  0  0  0  0  0  0
    2.3414   -5.4714   27.4862 C   0  0  0  0  0  0  0  0  0  0  0  0
    2.6687   -6.5380   26.8290 C   0  0  0  0  0  0  0  0  0  0  0  0
    4.1419  -11.3726   14.0815 C   0  0  0  0  0  0  0  0  0  0  0  0
   -0.1248  -10.9761   15.6250 C   0  0  0  0  0  0  0  0  0  0  0  0
    6.9654   -6.0678   28.2575 C   0  0  0  0  0  0  0  0  0  0  0  0
    7.6580   -7.1945   28.4421 C   0  0  0  0  0  0  0  0  0  0  0  0
    6.2186   -7.0461   26.9411 C   0  0  0  0  0  0  0  0  0  0  0  0
    1.2633   -2.4677   26.5256 C   0  0  0  0  0  0  0  0  0  0  0  0
    3.3372   -7.4351   26.4226 C   0  0  0  0  0  0  0  0  0  0  0  0
    2.7416  -10.2597   15.6757 C   0  0  0  0  0  0  0  0  0  0  0  0
    3.0992  -12.7778   13.5731 O   0  0  0  0  0  0  0  0  0  0  0  0
    6.9513   -8.0756   28.9135 C   0  0  0  0  0  0  0  0  0  0  0  0
    5.7976   -8.4241   27.6956 C   0  0  0  0  0  0  0  0  0  0  0  0
    3.1351  -12.0737   14.4915 C   0  0  0  0  0  0  0  0  0  0  0  0
    0.2953  -10.8304   15.1386 C   0  0  0  0  0  0  0  0  0  0  0  0
    7.4365   -5.3637   27.8027 C   0  0  0  0  0  0  0  0  0  0  0  0
    3.8478   -8.1487   26.8342 C   0  0  0  0  0  0  0  0  0  0  0  0
    2.3858   -3.7437   26.5843 C   0  0  0  0  0  0  0  0  0  0  0  0
    2.4039   -6.2621   28.9189 O   0  0  0  0  0  0  0  0  0  0  0  0
  1 18  1  0
  3  9  4  0
  4  5  4  0
  4 10  4  0
  6 19  4  0
  7 16  1  0
  7 22  1  0
  8 17  4  0
  9 24  1  0
 10 11  1  0
 11 18  1  0
 13 24  1  0
 14 15  1  0
 14 25  1  0
 15 21  1  0
 17 27  4  0
 18 26  1  0
 21 22  1  0
M  END
$$$$

 Created by Python create_sdf_string function

 28 57  0  0  0  0  0  0  0  0999 V2000
    3.2460   -7.1900   24.9713 F   0  0  0  0  0  0  0  0  0  0  0  0
    1.7262   -5.4309   28.0067 C   0  0  0  0  0  0  0  0  0  0  0  0
    1.7914  -11.2853   13.5611 C   0  0  0  0  0  0  0  0  0  0  0  0
    1.7203   -4.5744   28.0769 C   0  0  0  0  0  0  0  0  0  0  0  0
    1.2347   -9.8899   15.7571 C   0  0  0  0  0  0  0  0  0  0  0  0
    0.8331   -3.7376   26.9179 O   0  0  0  0  0  0  0  0  0  0  0  0
    1.7992  -12.2234   14.5451 P   0  0  0  0  0  0  0  0  0  0  0  0
    3.1035   -3.5857   27.4735 P   0  0  0  0  0  0  0  0  0  0  0  0
    0.1526  -11.8256   16.8425 Cl  0  0  0  0  0  0  0  0  0  0  0  0
    7.7550   -5.3526   28.5251 C   0  0  0  0  0  0  0  0  0  0  0  0
    7.0760   -7.6657   28.4575 Se  0  0  0  0  0  0  0  0  0  0  0  0
    0.8218   -2.0601   27.1815 C   0  0  0  0  0  0  0  0  0  0  0  0
    2.0682  -10.2630   16.1538 N   0  0  0  0  0  0  0  0  0  0  0  0
    2.8292  -12.0025   14.3264 F   0  0  0  0  0  0  0  0  0  0  0  0
    7.3824   -6.8500   28.5862 O   0  0  0  0  0  0  0  0  0  0  0  0
    6.9914   -8.2987   27.9943 C   0  0  0  0  0  0  0  0  0  0  0  0
   -0.7608  -10.6506   15.1128 C   0  0  0  0  0  0  0  0  0  0  0  0
    4.7361   -8.8785   27.9244 C   0  0  0  0  0  0  0  0  0  0  0  0
    2.6452   -6.3513   26.9928 O   0  0  0  0  0  0  0  0  0  0  0  0
    2.0275   -4.2869   27.5031 He  0  0  0  0  0  0  0  0  0  0  0  0
    5.9267   -8.0168   27.6998 He  0  0  0  0  0  0  0  0  0  0  0  0
    2.9909   -7.2281   25.6578 He  0  0  0  0  0  0  0  0  0  0  0  0
    4.0047  -11.9199   12.8313 He  0  0  0  0  0  0  0  0  0  0  0  0
    5.9611   -7.1372   26.0471 He  0  0  0  0  0  0  0  0  0  0  0  0
    4.4714   -7.1408   27.3182 He  0  0  0  0  0  0  0  0  0  0  0  0
    2.1893  -12.2738   13.9009 He  0  0  0  0  0  0  0  0  0  0  0  0
    7.6463   -4.3882   27.0458 He  0  0  0  0  0  0  0  0  0  0  0  0
    1.0662   -2.8439   27.3068 He  0  0  0  0  0  0  0  0  0  0  0  0
  1  2  4  0
  1  3  3  0
  1  4  1  0
  1  8  3  0
  1  9  3  0
  1 10  4  0
  1 15  4  0
  1 16  4  0
  1 17  2  0
  2  3  1  0
  2  7  4  0
  2  8  1  0
  2 12  4  0
  2 17  4  0
  3  6  4  0
  3 11  4  0
  3 18  3  0
  4  5  2  0
  4  8  2  0
  4  9  1  0
  4 10  2  0
  4 19  2  0
  5  6  4  0
  5 11  3  0
  5 12  2  0
  5 14  3  0
  5 15  2  0
  5 16  1  0
  6 11  3  0
  6 12  2  0
  6 14  2  0
  6 19  3  0
  7 10  4  0
  7 11  3  0
  7 14  2  0
  7 17  1  0
  7 18  1  0
  8 16  2  0
  8 18  4  0
  9 11  4  0
  9 12  4  0
  9 13  4  0
  9 17  3  0
 10 11  1  0
 10 17  4  0
 11 12  3  0
 11 13  4  0
 11 14  3  0
 12 13  1  0
 12 17  1  0
 12 18  2  0
 12 19  4  0
 13 16  2  0
 15 16  4  0
 15 18  1  0
 16 18  3  0
 18 19  1  0
M  END
$$$$

 Created by Python create_sdf_string function

 28 17  0  0  0  0  0  0  0  0999 V2000
    3.6645   -7.3016   25.8346 C   0  0  0  0  0  0  0  0  0  0  0  0
    1.4967   -5.1583   27.5859 C   0  0  0  0  0  0  0  0  0  0  0  0
    2.1086  -10.9923   13.9667 C   0  0  0  0  0  0  0  0  0  0  0  0
    1.8968   -4.9531   27.5349 C   0  0  0  0  0  0  0  0  0  0  0  0
    2.5028   -3.5210   27.3172 C   0  0  0  0  0  0  0  0  0  0  0  0
    1.3152  -10.1694   15.4134 C   0  0  0  0  0  0  0  0  0  0  0  0
    6.0517   -8.2255   27.8415 C   0  0  0  0  0  0  0  0  0  0  0  0
    0.5281   -3.7543   27.1636 C   0  0  0  0  0  0  0  0  0  0  0  0
    1.6813  -12.0873   14.5838 C   0  0  0  0  0  0  0  0  0  0  0  0
    2.9638   -3.9842   27.3602 C   0  0  0  0  0  0  0  0  0  0  0  0
    2.9002   -6.9860   26.7358 C   0  0  0  0  0  0  0  0  0  0  0  0
    3.5179  -11.9909   13.1339 C   0  0  0  0  0  0  0  0  0  0  0  0
    0.2779  -11.3059   16.4779 C   0  0  0  0  0  0  0  0  0  0  0  0
    7.7815   -5.4544   28.0592 C   0  0  0  0  0  0  0  0  0  0  0  0
    7.4363   -6.8598   28.2589 C   0  0  0  0  0  0  0  0  0  0  0  0
    5.8157   -6.7139   26.8607 C   0  0  0  0  0  0  0  0  0  0  0  0
    0.9215   -2.5275   27.1335 C   0  0  0  0  0  0  0  0  0  0  0  0
    4.5964   -7.4264   26.6334 C   0  0  0  0  0  0  0  0  0  0  0  0
    1.5578  -10.3491   16.1379 C   0  0  0  0  0  0  0  0  0  0  0  0
    2.8886  -11.8278   14.2385 C   0  0  0  0  0  0  0  0  0  0  0  0
    7.8630   -6.7405   28.5156 C   0  0  0  0  0  0  0  0  0  0  0  0
    6.6972   -7.8337   27.8684 C   0  0  0  0  0  0  0  0  0  0  0  0
    1.8847  -12.3903   14.1818 C   0  0  0  0  0  0  0  0  0  0  0  0
   -0.1600  -11.1877   15.3428 C   0  0  0  0  0  0  0  0  0  0  0  0
    7.1916   -4.9958   27.3533 C   0  0  0  0  0  0  0  0  0  0  0  0
    4.6943   -8.5293   27.3410 C   0  0  0  0  0  0  0  0  0  0  0  0
    1.2524   -2.5635   27.1294 C   0  0  0  0  0  0  0  0  0  0  0  0
    2.6299   -6.5262   27.3362 C   0  0  0  0  0  0  0  0  0  0  0  0
  1 18  1  0
  2  4  4  0
  5 10  4  0
  5 27  4  0
  6 19  4  0
  7 22  4  0
  8 17  4  0
  9 23  4  0
 11 28  1  0
 13 19  4  0
 13 24  4  0
 14 15  1  0
 14 25  1  0
 15 21  4  0
 16 18  1  0
 17 27  4  0
 18 26  1  0
M  END
$$$$

 Created by Python create_sdf_string function

 28 80  0  0  0  0  0  0  0  0999 V2000
    3.7990   -7.0949   26.1875 I   0  0  0  0  0  0  0  0  0  0  0  0
    1.9253   -4.9894   28.0654 C   0  0  0  0  0  0  0  0  0  0  0  0
    0.7517   -5.9340   27.1076 C   0  0  0  0  0  0  0  0  0  0  0  0
    2.8919   -2.8888   27.7987 C   0  0  0  0  0  0  0  0  0  0  0  0
    1.9897  -11.4055   15.6246 C   0  0  0  0  0  0  0  0  0  0  0  0
    6.6058   -8.6409   28.3224 C   0  0  0  0  0  0  0  0  0  0  0  0
    1.2346   -3.2377   27.1321 C   0  0  0  0  0  0  0  0  0  0  0  0
    0.4404  -10.9814   13.4335 F   0  0  0  0  0  0  0  0  0  0  0  0
    2.7469   -4.3371   28.1942 C   0  0  0  0  0  0  0  0  0  0  0  0
    2.4818   -6.6672   27.6908 C   0  0  0  0  0  0  0  0  0  0  0  0
    3.8268  -13.4221   12.4754 P   0  0  0  0  0  0  0  0  0  0  0  0
   -0.4040  -11.5568   16.0196 N   0  0  0  0  0  0  0  0  0  0  0  0
    6.7890   -4.4126   28.3392 C   0  0  0  0  0  0  0  0  0  0  0  0
    7.2071   -8.2817   27.7331 C   0  0  0  0  0  0  0  0  0  0  0  0
    0.0842   -2.5383   26.9904 C   0  0  0  0  0  0  0  0  0  0  0  0
    0.7844  -10.1539   16.0340 C   0  0  0  0  0  0  0  0  0  0  0  0
    7.9238   -7.4590   26.9414 C   0  0  0  0  0  0  0  0  0  0  0  0
    2.0155  -14.1762   14.5537 F   0  0  0  0  0  0  0  0  0  0  0  0
    0.8636  -11.2251   15.5651 C   0  0  0  0  0  0  0  0  0  0  0  0
    7.2795   -3.0996   26.4955 C   0  0  0  0  0  0  0  0  0  0  0  0
    1.5022   -3.2818   27.1282 N   0  0  0  0  0  0  0  0  0  0  0  0
    2.2895   -6.6123   28.4385 C   0  0  0  0  0  0  0  0  0  0  0  0
    2.4958   -8.9397   14.3787 He  0  0  0  0  0  0  0  0  0  0  0  0
    6.3528   -7.7694   26.7619 He  0  0  0  0  0  0  0  0  0  0  0  0
    5.6714   -7.1988   26.1117 He  0  0  0  0  0  0  0  0  0  0  0  0
    2.3515  -11.0956   14.7120 He  0  0  0  0  0  0  0  0  0  0  0  0
    6.1181   -9.8035   29.0274 He  0  0  0  0  0  0  0  0  0  0  0  0
    3.8474   -9.5361   26.0907 He  0  0  0  0  0  0  0  0  0  0  0  0
  1  3  1  0
  1  4  3  0
  1  5  4  0
  1  7  2  0
  1  9  4  0
  1 17  2  0
  1 20  4  0
  1 21  3  0
  2  3  1  0
  2  6  3  0
  2  9  1  0
  2 11  3  0
  2 13  1  0
  2 15  4  0
  2 21  4  0
  2 22  1  0
  3  5  1  0
  3 11  4  0
  3 14  1  0
  3 16  3  0
  3 17  2  0
  3 19  1  0
  3 21  2  0
  4  8  1  0
  4  9  1  0
  4 12  2  0
  4 14  3  0
  4 18  2  0
  4 21  4  0
  5  6  4  0
  5  8  1  0
  5  9  2  0
  5 13  3  0
  5 18  3  0
  5 19  1  0
  6  9  1  0
  6 16  3  0
  6 18  4  0
  6 19  3  0
  6 21  1  0
  7  9  4  0
  7 10  4  0
  7 12  1  0
  7 19  1  0
  8  9  2  0
  8 10  2  0
  8 11  3  0
  8 12  3  0
  8 14  3  0
  8 18  4  0
  9 13  4  0
 10 13  4  0
 10 22  1  0
 11 15  4  0
 11 19  1  0
 11 20  1  0
 11 21  2  0
 11 22  3  0
 12 15  3  0
 12 16  4  0
 12 21  1  0
 12 22  1  0
 13 14  2  0
 13 18  2  0
 13 19  2  0
 13 20  1  0
 13 22  3  0
 14 17  4  0
 14 18  1  0
 14 21  1  0
 15 16  2  0
 15 17  1  0
 15 21  4  0
 15 22  2  0
 16 21  4  0
 17 18  2  0
 18 22  3  0
 19 20  1  0
 20 21  4  0
 21 22  2  0
M  END
$$$$

 Created by Python create_sdf_string function

 28 17  0  0  0  0  0  0  0  0999 V2000
    4.1976   -7.2469   26.4233 C   0  0  0  0  0  0  0  0  0  0  0  0
    1.8065   -4.9198   27.5138 C   0  0  0  0  0  0  0  0  0  0  0  0
    2.0091   -9.6435   14.6946 C   0  0  0  0  0  0  0  0  0  0  0  0
    0.9257   -5.7751   27.1918 C   0  0  0  0  0  0  0  0  0  0  0  0
    2.8628   -2.9962   27.5281 C   0  0  0  0  0  0  0  0  0  0  0  0
    1.5325  -11.2227   14.7790 C   0  0  0  0  0  0  0  0  0  0  0  0
    6.2688   -8.5018   28.0616 C   0  0  0  0  0  0  0  0  0  0  0  0
    1.1915   -3.3334   27.2218 C   0  0  0  0  0  0  0  0  0  0  0  0
    1.3771  -11.2993   13.9497 C   0  0  0  0  0  0  0  0  0  0  0  0
    2.8267   -4.1912   27.7145 C   0  0  0  0  0  0  0  0  0  0  0  0
    2.7281   -7.0248   27.3166 C   0  0  0  0  0  0  0  0  0  0  0  0
    3.1118  -12.9220   13.3760 C   0  0  0  0  0  0  0  0  0  0  0  0
   -0.0111  -11.3936   15.9194 C   0  0  0  0  0  0  0  0  0  0  0  0
    6.6752   -5.2972   27.2939 C   0  0  0  0  0  0  0  0  0  0  0  0
    7.4288   -7.4818   27.8135 C   0  0  0  0  0  0  0  0  0  0  0  0
    6.0534   -7.1447   27.2676 C   0  0  0  0  0  0  0  0  0  0  0  0
    0.4000   -3.2209   26.9665 C   0  0  0  0  0  0  0  0  0  0  0  0
    5.2678   -6.9162   26.8192 C   0  0  0  0  0  0  0  0  0  0  0  0
    0.6546  -10.0022   15.9862 C   0  0  0  0  0  0  0  0  0  0  0  0
    2.5328  -11.5999   14.0965 C   0  0  0  0  0  0  0  0  0  0  0  0
    7.6078   -7.2790   27.6124 C   0  0  0  0  0  0  0  0  0  0  0  0
    5.9091   -9.0388   28.2922 C   0  0  0  0  0  0  0  0  0  0  0  0
    2.1023  -13.3982   14.4764 C   0  0  0  0  0  0  0  0  0  0  0  0
    0.9812  -11.3548   15.4438 C   0  0  0  0  0  0  0  0  0  0  0  0
    7.0709   -4.4209   27.0925 C   0  0  0  0  0  0  0  0  0  0  0  0
    3.8907   -8.4274   26.8554 N   0  0  0  0  0  0  0  0  0  0  0  0
    1.3991   -2.8577   27.1578 C   0  0  0  0  0  0  0  0  0  0  0  0
    2.2795   -6.6873   27.7926 C   0  0  0  0  0  0  0  0  0  0  0  0
  1 18  1  0
  1 26  4  0
  2  4  1  0
  2 10  4  0
  2 28  1  0
  5 10  4  0
  5 27  4  0
  6 24  1  0
  7 22  4  0
  8 17  4  0
 11 28  1  0
 13 19  4  0
 13 24  4  0
 14 25  1  0
 15 21  4  0
 16 18  4  0
 17 27  4  0
M  END
$$$$

 Created by Python create_sdf_string function

 28 34  0  0  0  0  0  0  0  0999 V2000
    4.0739   -6.9846   25.8933 F   0  0  0  0  0  0  0  0  0  0  0  0
    2.6472   -5.5163   27.4504 F   0  0  0  0  0  0  0  0  0  0  0  0
    2.2539  -10.4974   14.7838 C   0  0  0  0  0  0  0  0  0  0  0  0
    1.2597  -12.6532   13.5972 C   0  0  0  0  0  0  0  0  0  0  0  0
    1.7779   -2.6290   28.5376 C   0  0  0  0  0  0  0  0  0  0  0  0
    1.2773  -10.9114   13.1747 C   0  0  0  0  0  0  0  0  0  0  0  0
    1.9165   -7.0627   27.6847 C   0  0  0  0  0  0  0  0  0  0  0  0
    2.5266  -13.2817   12.4588 Cl  0  0  0  0  0  0  0  0  0  0  0  0
    5.5028   -4.6894   26.8040 C   0  0  0  0  0  0  0  0  0  0  0  0
    7.7531   -8.3812   25.4866 F   0  0  0  0  0  0  0  0  0  0  0  0
    6.8483   -6.1688   27.6913 F   0  0  0  0  0  0  0  0  0  0  0  0
    1.0595   -2.3833   27.0481 C   0  0  0  0  0  0  0  0  0  0  0  0
    0.2517  -10.1195   16.3630 C   0  0  0  0  0  0  0  0  0  0  0  0
    3.0916  -11.9643   15.6487 F   0  0  0  0  0  0  0  0  0  0  0  0
    6.4496   -8.4667   26.9327 C   0  0  0  0  0  0  0  0  0  0  0  0
    2.4973  -12.1124   14.4106 S   0  0  0  0  0  0  0  0  0  0  0  0
    2.1943   -7.2496   27.4399 C   0  0  0  0  0  0  0  0  0  0  0  0
    1.0164   -6.1411   25.9958 He  0  0  0  0  0  0  0  0  0  0  0  0
    4.2104   -3.0991   27.0169 He  0  0  0  0  0  0  0  0  0  0  0  0
    7.1906   -8.6921   27.5028 He  0  0  0  0  0  0  0  0  0  0  0  0
    3.0141   -3.5828   27.2817 He  0  0  0  0  0  0  0  0  0  0  0  0
    0.0338  -10.6569   15.4668 He  0  0  0  0  0  0  0  0  0  0  0  0
    6.3207   -5.7781   27.1127 He  0  0  0  0  0  0  0  0  0  0  0  0
    8.0651   -7.6492   27.6908 He  0  0  0  0  0  0  0  0  0  0  0  0
    1.3815  -11.8008   14.9775 He  0  0  0  0  0  0  0  0  0  0  0  0
    6.9240   -4.1576   27.7434 He  0  0  0  0  0  0  0  0  0  0  0  0
    3.9045   -9.4781   26.4193 He  0  0  0  0  0  0  0  0  0  0  0  0
    0.5008   -3.7365   28.1497 He  0  0  0  0  0  0  0  0  0  0  0  0
  1  5  3  0
  1 10  3  0
  1 17  1  0
  2  4  1  0
  2 10  3  0
  2 12  4  0
  2 16  2  0
  2 17  1  0
  3  4  4  0
  3  5  4  0
  3  6  2  0
  3  7  2  0
  3 16  1  0
  4  6  3  0
  4 14  2  0
  4 16  4  0
  4 17  2  0
  5  8  3  0
  5 12  1  0
  5 17  1  0
  6  8  1  0
  6  9  4  0
  6 10  3  0
  6 14  3  0
  7 15  2  0
  8 16  3  0
  9 14  2  0
 10 11  2  0
 10 13  2  0
 10 15  4  0
 11 12  4  0
 12 15  1  0
 13 15  1  0
 13 17  4  0
M  END
$$$$

 Created by Python create_sdf_string function

 28 18  0  0  0  0  0  0  0  0999 V2000
    3.9218   -7.1334   26.6662 C   0  0  0  0  0  0  0  0  0  0  0  0
    2.2854   -5.0469   27.2475 C   0  0  0  0  0  0  0  0  0  0  0  0
    2.1912  -10.8145   14.9639 C   0  0  0  0  0  0  0  0  0  0  0  0
    1.1682   -6.1557   26.7301 C   0  0  0  0  0  0  0  0  0  0  0  0
    3.7688   -3.6164   27.3024 C   0  0  0  0  0  0  0  0  0  0  0  0
    1.5688  -12.1506   13.9340 C   0  0  0  0  0  0  0  0  0  0  0  0
    7.0655   -8.1988   27.4969 C   0  0  0  0  0  0  0  0  0  0  0  0
    1.4304   -2.8177   27.7220 C   0  0  0  0  0  0  0  0  0  0  0  0
    1.1744  -11.2810   13.5926 C   0  0  0  0  0  0  0  0  0  0  0  0
    3.2047   -3.7415   27.3160 C   0  0  0  0  0  0  0  0  0  0  0  0
    2.1341   -7.0987   27.0852 C   0  0  0  0  0  0  0  0  0  0  0  0
    2.5905  -12.9725   12.7542 Cl  0  0  0  0  0  0  0  0  0  0  0  0
    0.1440  -10.6771   15.6825 C   0  0  0  0  0  0  0  0  0  0  0  0
    5.4579   -4.9491   27.3436 C   0  0  0  0  0  0  0  0  0  0  0  0
    7.1733   -8.0486   27.1032 C   0  0  0  0  0  0  0  0  0  0  0  0
    6.4292   -5.9286   27.3837 C   0  0  0  0  0  0  0  0  0  0  0  0
    1.4750   -2.4705   27.3391 C   0  0  0  0  0  0  0  0  0  0  0  0
    6.3750   -5.8416   27.3682 C   0  0  0  0  0  0  0  0  0  0  0  0
    0.4691  -10.1699   16.1234 C   0  0  0  0  0  0  0  0  0  0  0  0
    3.5954  -12.1977   15.4847 C   0  0  0  0  0  0  0  0  0  0  0  0
    8.0494   -7.3798   27.6210 C   0  0  0  0  0  0  0  0  0  0  0  0
    6.2640   -8.2216   27.0117 C   0  0  0  0  0  0  0  0  0  0  0  0
    2.8381  -12.0176   14.6532 C   0  0  0  0  0  0  0  0  0  0  0  0
    0.8119  -11.3529   15.0805 C   0  0  0  0  0  0  0  0  0  0  0  0
    6.8002   -4.2331   27.6144 O   0  0  0  0  0  0  0  0  0  0  0  0
    4.3823   -8.5196   26.5460 C   0  0  0  0  0  0  0  0  0  0  0  0
    0.9990   -4.1096   27.7248 C   0  0  0  0  0  0  0  0  0  0  0  0
    3.0046   -6.6226   26.9104 C   0  0  0  0  0  0  0  0  0  0  0  0
  1 26  1  0
  1 28  1  0
  2 27  4  0
  2 28  1  0
  3 23  4  0
  4 11  1  0
  5 10  4  0
  6  9  4  0
  7 22  4  0
  8 17  4  0
  8 27  4  0
 11 28  1  0
 13 19  4  0
 13 24  4  0
 14 18  1  0
 15 22  4  0
 16 18  4  0
 20 23  1  0
M  END
$$$$

 Created by Python create_sdf_string function

 28 43  0  0  0  0  0  0  0  0999 V2000
    3.5378   -6.7811   26.4866 P   0  0  0  0  0  0  0  0  0  0  0  0
    2.2124   -4.1562   27.6329 C   0  0  0  0  0  0  0  0  0  0  0  0
    1.6511   -5.8784   27.1429 C   0  0  0  0  0  0  0  0  0  0  0  0
    4.3880   -3.8664   26.7576 C   0  0  0  0  0  0  0  0  0  0  0  0
    7.3941   -7.3447   27.1153 O   0  0  0  0  0  0  0  0  0  0  0  0
    1.8816   -2.1855   28.0748 Br  0  0  0  0  0  0  0  0  0  0  0  0
    2.4277   -3.9529   27.9176 P   0  0  0  0  0  0  0  0  0  0  0  0
    1.0358   -8.7565   27.6948 C   0  0  0  0  0  0  0  0  0  0  0  0
    4.0917   -6.2783   26.9287 C   0  0  0  0  0  0  0  0  0  0  0  0
    5.8761   -4.3453   27.8403 S   0  0  0  0  0  0  0  0  0  0  0  0
   -0.2494  -10.5016   15.5989 N   0  0  0  0  0  0  0  0  0  0  0  0
    3.9997  -11.7274   15.3637 C   0  0  0  0  0  0  0  0  0  0  0  0
    7.3274   -8.0658   27.4958 C   0  0  0  0  0  0  0  0  0  0  0  0
    6.2939   -8.9671   27.1330 S   0  0  0  0  0  0  0  0  0  0  0  0
    1.9540  -10.9533   14.4778 C   0  0  0  0  0  0  0  0  0  0  0  0
    6.2677   -3.9353   27.7413 O   0  0  0  0  0  0  0  0  0  0  0  0
    5.1243   -7.2839   26.7848 C   0  0  0  0  0  0  0  0  0  0  0  0
    2.6144   -6.6124   27.7234 Se  0  0  0  0  0  0  0  0  0  0  0  0
    1.8564  -11.4144   14.8121 He  0  0  0  0  0  0  0  0  0  0  0  0
    2.7371  -11.8296   13.8121 He  0  0  0  0  0  0  0  0  0  0  0  0
    1.3080  -11.1680   12.5315 He  0  0  0  0  0  0  0  0  0  0  0  0
    2.3633  -13.0970   12.7258 He  0  0  0  0  0  0  0  0  0  0  0  0
    0.4633  -11.0819   15.4738 He  0  0  0  0  0  0  0  0  0  0  0  0
    6.8759   -8.2380   28.1593 He  0  0  0  0  0  0  0  0  0  0  0  0
    2.9398   -3.4568   27.7734 He  0  0  0  0  0  0  0  0  0  0  0  0
    6.3181   -5.4479   26.8825 He  0  0  0  0  0  0  0  0  0  0  0  0
    1.9975  -11.9331   15.0085 He  0  0  0  0  0  0  0  0  0  0  0  0
    0.9957   -4.6297   27.3157 He  0  0  0  0  0  0  0  0  0  0  0  0
  1  3  1  0
  1  4  4  0
  1  5  2  0
  1 10  4  0
  1 11  1  0
  1 15  1  0
  1 18  1  0
  2  3  4  0
  2  4  2  0
  2  9  1  0
  3  7  4  0
  3  9  4  0
  3 11  4  0
  3 13  2  0
  3 14  2  0
  3 15  2  0
  3 17  3  0
  4  5  2  0
  4  6  1  0
  4  7  4  0
  4  8  2  0
  4  9  4  0
  5 11  3  0
  5 12  3  0
  5 15  4  0
  5 16  4  0
  6  8  3  0
  7 13  3  0
  7 14  1  0
  8 10  3  0
  8 11  2  0
  8 14  2  0
  8 17  3  0
  8 18  1  0
  9 13  2  0
 10 14  1  0
 10 15  2  0
 11 18  2  0
 12 15  2  0
 13 15  4  0
 13 18  2  0
 14 17  4  0
 16 18  4  0
M  END
$$$$

 Created by Python create_sdf_string function

 28 16  0  0  0  0  0  0  0  0999 V2000
    3.1160   -7.0539   26.7511 N   0  0  0  0  0  0  0  0  0  0  0  0
    2.5503   -4.6094   27.3170 C   0  0  0  0  0  0  0  0  0  0  0  0
    1.6492  -11.1105   14.7308 C   0  0  0  0  0  0  0  0  0  0  0  0
    1.8298   -5.6826   27.1532 C   0  0  0  0  0  0  0  0  0  0  0  0
    3.9857   -4.6046   27.3636 C   0  0  0  0  0  0  0  0  0  0  0  0
    3.0865  -11.9936   13.9516 C   0  0  0  0  0  0  0  0  0  0  0  0
    7.5762   -6.8312   27.7322 C   0  0  0  0  0  0  0  0  0  0  0  0
    1.7626   -2.4468   27.7638 C   0  0  0  0  0  0  0  0  0  0  0  0
    1.4552  -11.6199   12.9709 C   0  0  0  0  0  0  0  0  0  0  0  0
    2.2294   -4.0152   27.4453 C   0  0  0  0  0  0  0  0  0  0  0  0
    1.4500   -8.1257   27.5411 C   0  0  0  0  0  0  0  0  0  0  0  0
    2.3443  -12.6871   12.8781 C   0  0  0  0  0  0  0  0  0  0  0  0
    0.3664  -10.8400   15.6610 C   0  0  0  0  0  0  0  0  0  0  0  0
    4.0975   -5.8579   27.0859 C   0  0  0  0  0  0  0  0  0  0  0  0
    7.1430   -8.0339   27.5595 C   0  0  0  0  0  0  0  0  0  0  0  0
    6.1881   -4.9116   27.4743 C   0  0  0  0  0  0  0  0  0  0  0  0
    2.4132   -3.2072   27.6614 C   0  0  0  0  0  0  0  0  0  0  0  0
    5.9388   -6.0114   27.3102 C   0  0  0  0  0  0  0  0  0  0  0  0
   -0.0427  -10.4259   15.5692 N   0  0  0  0  0  0  0  0  0  0  0  0
    3.7206  -11.7096   15.2746 C   0  0  0  0  0  0  0  0  0  0  0  0
    7.3917   -7.7547   27.6350 C   0  0  0  0  0  0  0  0  0  0  0  0
    5.6787   -8.4628   27.0074 C   0  0  0  0  0  0  0  0  0  0  0  0
    2.1343  -11.9000   14.9463 C   0  0  0  0  0  0  0  0  0  0  0  0
    1.7984  -10.9838   15.0237 C   0  0  0  0  0  0  0  0  0  0  0  0
    6.4477   -4.0311   27.5517 O   0  0  0  0  0  0  0  0  0  0  0  0
    5.2213   -7.0579   27.0339 C   0  0  0  0  0  0  0  0  0  0  0  0
    0.7058   -4.0645   27.3097 C   0  0  0  0  0  0  0  0  0  0  0  0
    2.2366   -7.2107   27.3172 C   0  0  0  0  0  0  0  0  0  0  0  0
  1 28  1  0
  2  4  4  0
  3 24  1  0
  5 14  4  0
  7 21  4  0
  8 17  4  0
  9 12  4  0
 11 28  1  0
 13 19  1  0
 14 26  4  0
 15 21  4  0
 15 22  4  0
 16 18  4  0
 16 25  2  0
 18 26  4  0
 22 26  4  0
M  END
$$$$

 Created by Python create_sdf_string function

 28 56  0  0  0  0  0  0  0  0999 V2000
    2.4299   -7.1339   27.1770 O   0  0  0  0  0  0  0  0  0  0  0  0
    2.9454   -5.2822   26.9344 P   0  0  0  0  0  0  0  0  0  0  0  0
    2.9019  -10.6042   15.3062 C   0  0  0  0  0  0  0  0  0  0  0  0
    3.1794   -6.1853   27.2901 C   0  0  0  0  0  0  0  0  0  0  0  0
    3.1278   -4.3062   26.6809 N   0  0  0  0  0  0  0  0  0  0  0  0
    6.8404   -6.4951   28.0003 F   0  0  0  0  0  0  0  0  0  0  0  0
    1.1983   -1.4368   27.9254 C   0  0  0  0  0  0  0  0  0  0  0  0
    1.1077   -9.8332   13.2072 Br  0  0  0  0  0  0  0  0  0  0  0  0
    1.1997   -3.4706   27.3964 O   0  0  0  0  0  0  0  0  0  0  0  0
    1.0272   -8.3483   27.3014 C   0  0  0  0  0  0  0  0  0  0  0  0
    1.7499  -11.8544   12.5627 S   0  0  0  0  0  0  0  0  0  0  0  0
    0.3148  -12.2701   15.3957 Cl  0  0  0  0  0  0  0  0  0  0  0  0
    4.7414   -5.0319   26.7940 C   0  0  0  0  0  0  0  0  0  0  0  0
    2.8673  -12.7402   14.9320 F   0  0  0  0  0  0  0  0  0  0  0  0
    7.7615   -8.4643   27.0094 C   0  0  0  0  0  0  0  0  0  0  0  0
    5.9009   -9.1435   26.6189 C   0  0  0  0  0  0  0  0  0  0  0  0
    2.0188  -11.6576   15.6202 P   0  0  0  0  0  0  0  0  0  0  0  0
    0.9170  -11.1858   15.0359 C   0  0  0  0  0  0  0  0  0  0  0  0
    6.1804   -3.3228   27.4508 P   0  0  0  0  0  0  0  0  0  0  0  0
    0.9134   -3.9520   27.4961 C   0  0  0  0  0  0  0  0  0  0  0  0
    2.5550   -6.8828   26.7663 C   0  0  0  0  0  0  0  0  0  0  0  0
    2.9359  -11.3392   14.1173 He  0  0  0  0  0  0  0  0  0  0  0  0
    6.8194   -7.1577   27.1325 He  0  0  0  0  0  0  0  0  0  0  0  0
    7.1550   -4.3724   27.2021 He  0  0  0  0  0  0  0  0  0  0  0  0
    2.9188   -3.6285   27.6902 He  0  0  0  0  0  0  0  0  0  0  0  0
    5.8577   -5.9047   28.0402 He  0  0  0  0  0  0  0  0  0  0  0  0
    0.5655  -11.0884   15.5306 He  0  0  0  0  0  0  0  0  0  0  0  0
    4.9031   -6.2417   26.8392 He  0  0  0  0  0  0  0  0  0  0  0  0
  1 14  2  0
  1 21  1  0
  2  4  2  0
  2  6  2  0
  2 12  3  0
  2 14  2  0
  2 17  2  0
  3 14  3  0
  3 18  3  0
  4  7  3  0
  4  9  4  0
  4 10  3  0
  4 11  2  0
  4 13  1  0
  4 14  1  0
  4 18  3  0
  4 20  3  0
  5  8  3  0
  5 11  4  0
  5 12  1  0
  5 13  4  0
  5 20  3  0
  5 21  4  0
  6  7  4  0
  6  9  4  0
  6 10  3  0
  6 12  4  0
  6 13  4  0
  6 14  4  0
  6 15  4  0
  6 18  4  0
  6 19  3  0
  7 18  1  0
  8 12  4  0
  8 18  1  0
  9 20  1  0
  9 21  1  0
 10 15  1  0
 10 21  1  0
 11 12  4  0
 11 14  3  0
 11 17  3  0
 11 20  2  0
 11 21  1  0
 12 14  2  0
 12 21  2  0
 13 14  2  0
 13 17  1  0
 13 20  2  0
 14 16  4  0
 14 21  4  0
 15 20  1  0
 17 18  1  0
 17 19  1  0
 18 20  4  0
 20 21  1  0
M  END
$$$$

 Created by Python create_sdf_string function

 28 26  0  0  0  0  0  0  0  0999 V2000
    2.3722   -7.3652   27.0818 O   0  0  0  0  0  0  0  0  0  0  0  0
    2.5441   -5.6005   27.2035 C   0  0  0  0  0  0  0  0  0  0  0  0
    2.6720  -10.6068   15.1602 C   0  0  0  0  0  0  0  0  0  0  0  0
    3.5942   -5.7019   27.1466 C   0  0  0  0  0  0  0  0  0  0  0  0
    3.5669   -3.7732   27.4311 N   0  0  0  0  0  0  0  0  0  0  0  0
    2.7364  -11.2923   13.6615 C   0  0  0  0  0  0  0  0  0  0  0  0
    7.5679   -6.3333   27.4858 C   0  0  0  0  0  0  0  0  0  0  0  0
    1.5459   -1.8923   27.6475 C   0  0  0  0  0  0  0  0  0  0  0  0
    1.0780  -10.1279   13.6474 C   0  0  0  0  0  0  0  0  0  0  0  0
    1.0308   -3.7632   27.2332 O   0  0  0  0  0  0  0  0  0  0  0  0
    1.2323   -7.9526   27.3562 C   0  0  0  0  0  0  0  0  0  0  0  0
    2.0028  -11.7626   13.1281 C   0  0  0  0  0  0  0  0  0  0  0  0
    0.1365  -12.3427   15.4713 C   0  0  0  0  0  0  0  0  0  0  0  0
    4.3840   -4.4439   27.3322 C   0  0  0  0  0  0  0  0  0  0  0  0
    6.7286   -8.0159   27.2799 C   0  0  0  0  0  0  0  0  0  0  0  0
    6.9219   -4.6134   27.4917 C   0  0  0  0  0  0  0  0  0  0  0  0
    2.5512   -3.2400   27.3994 C   0  0  0  0  0  0  0  0  0  0  0  0
    6.1834   -5.6522   27.3127 C   0  0  0  0  0  0  0  0  0  0  0  0
    0.2344  -11.2592   15.3990 C   0  0  0  0  0  0  0  0  0  0  0  0
    2.5787  -12.6505   15.0257 C   0  0  0  0  0  0  0  0  0  0  0  0
    7.4609   -7.8275   27.3870 C   0  0  0  0  0  0  0  0  0  0  0  0
    5.5362   -8.1537   26.8689 C   0  0  0  0  0  0  0  0  0  0  0  0
    1.9525  -11.8095   15.3787 C   0  0  0  0  0  0  0  0  0  0  0  0
    1.1330  -10.8649   14.9746 C   0  0  0  0  0  0  0  0  0  0  0  0
    5.8608   -3.6373   27.4150 O   0  0  0  0  0  0  0  0  0  0  0  0
    5.1695   -6.4070   27.1286 C   0  0  0  0  0  0  0  0  0  0  0  0
    1.3110   -4.4082   27.2174 C   0  0  0  0  0  0  0  0  0  0  0  0
    1.9733   -7.1782   27.1772 C   0  0  0  0  0  0  0  0  0  0  0  0
  1 28  1  0
  2  4  4  0
  2 27  4  0
  2 28  1  0
  4 14  1  0
  4 26  4  0
  5 14  4  0
  5 17  4  0
  6 12  1  0
  7 16  4  0
  7 18  4  0
  7 21  4  0
  8 17  1  0
  9 24  1  0
 10 27  1  0
 11 28  1  0
 13 19  1  0
 15 21  4  0
 15 22  4  0
 16 18  4  0
 16 25  4  0
 18 26  4  0
 19 24  1  0
 20 23  1  0
 22 26  4  0
 23 24  1  0
M  END
$$$$

 Created by Python create_sdf_string function

 28 28  0  0  0  0  0  0  0  0999 V2000
    3.8688   -7.6892   27.3203 O   0  0  0  0  0  0  0  0  0  0  0  0
    2.3162  -10.1521   16.0662 N   0  0  0  0  0  0  0  0  0  0  0  0
    3.7839   -6.1543   27.2061 C   0  0  0  0  0  0  0  0  0  0  0  0
    1.2864  -12.0262   12.8437 O   0  0  0  0  0  0  0  0  0  0  0  0
    0.2500   -8.9547   12.9157 C   0  0  0  0  0  0  0  0  0  0  0  0
    5.1758   -5.3422   26.2967 C   0  0  0  0  0  0  0  0  0  0  0  0
    5.9016   -7.6383   26.6717 O   0  0  0  0  0  0  0  0  0  0  0  0
    2.8002   -3.1878   28.5034 C   0  0  0  0  0  0  0  0  0  0  0  0
    5.7871   -6.0596   27.8935 C   0  0  0  0  0  0  0  0  0  0  0  0
   -0.1543  -11.6315   14.4791 B   0  0  0  0  0  0  0  0  0  0  0  0
    3.3548  -11.9093   13.9551 F   0  0  0  0  0  0  0  0  0  0  0  0
    7.9851   -8.6227   26.6872 N   0  0  0  0  0  0  0  0  0  0  0  0
    1.8536  -11.7737   15.9913 F   0  0  0  0  0  0  0  0  0  0  0  0
    5.3097   -2.9390   27.5664 O   0  0  0  0  0  0  0  0  0  0  0  0
    1.8480   -4.0431   27.1512 C   0  0  0  0  0  0  0  0  0  0  0  0
    2.2427   -5.4803   27.4801 He  0  0  0  0  0  0  0  0  0  0  0  0
    3.5435   -3.4952   28.3058 He  0  0  0  0  0  0  0  0  0  0  0  0
    7.3154   -7.4643   27.2425 He  0  0  0  0  0  0  0  0  0  0  0  0
    1.3831   -1.6298   26.2376 He  0  0  0  0  0  0  0  0  0  0  0  0
    0.7200   -4.5411   26.5734 He  0  0  0  0  0  0  0  0  0  0  0  0
   -0.2462   -9.2169   27.5609 He  0  0  0  0  0  0  0  0  0  0  0  0
    2.1296  -11.7967   12.9804 He  0  0  0  0  0  0  0  0  0  0  0  0
   -0.0932  -12.5858   16.8836 He  0  0  0  0  0  0  0  0  0  0  0  0
    7.4353   -3.8327   26.8746 He  0  0  0  0  0  0  0  0  0  0  0  0
    6.0438   -7.6309   26.9031 He  0  0  0  0  0  0  0  0  0  0  0  0
    0.5359  -11.2010   14.6439 He  0  0  0  0  0  0  0  0  0  0  0  0
    5.3260   -5.9907   25.8259 He  0  0  0  0  0  0  0  0  0  0  0  0
    2.7734   -6.1869   26.9195 He  0  0  0  0  0  0  0  0  0  0  0  0
  1  3  4  0
  1  4  3  0
  1  6  2  0
  1  9  4  0
  1 13  1  0
  2  4  2  0
  2  7  4  0
  3 12  4  0
  3 13  1  0
  3 14  1  0
  4 10  4  0
  4 12  4  0
  4 14  2  0
  5 12  2  0
  5 14  2  0
  5 15  4  0
  6  8  2  0
  6 15  2  0
  7  9  1  0
  7 10  4  0
  7 12  2  0
  7 15  2  0
  8  9  4  0
  8 11  2  0
 10 11  3  0
 10 14  4  0
 12 14  3  0
 14 15  4  0
M  END
$$$$

 Created by Python create_sdf_string function

 28 20  0  0  0  0  0  0  0  0999 V2000
    3.1104   -7.5272   26.9629 O   0  0  0  0  0  0  0  0  0  0  0  0
    2.1893   -5.4387   27.1725 C   0  0  0  0  0  0  0  0  0  0  0  0
    2.0171  -10.5007   15.9742 C   0  0  0  0  0  0  0  0  0  0  0  0
    3.4641   -6.1825   27.1045 C   0  0  0  0  0  0  0  0  0  0  0  0
    3.7549   -3.7225   27.6355 C   0  0  0  0  0  0  0  0  0  0  0  0
    1.5415  -11.9030   12.8623 O   0  0  0  0  0  0  0  0  0  0  0  0
    7.7850   -7.0395   27.3250 C   0  0  0  0  0  0  0  0  0  0  0  0
    1.5112   -2.4833   26.8214 O   0  0  0  0  0  0  0  0  0  0  0  0
    0.4410   -9.9100   13.5153 C   0  0  0  0  0  0  0  0  0  0  0  0
    0.5696   -4.3609   26.8009 O   0  0  0  0  0  0  0  0  0  0  0  0
    1.1800   -7.7539   27.2888 C   0  0  0  0  0  0  0  0  0  0  0  0
    2.0897  -11.5115   13.4565 C   0  0  0  0  0  0  0  0  0  0  0  0
    0.0474  -11.9824   16.3970 C   0  0  0  0  0  0  0  0  0  0  0  0
    4.7878   -5.0504   27.3189 C   0  0  0  0  0  0  0  0  0  0  0  0
    6.1348   -8.1274   26.9450 C   0  0  0  0  0  0  0  0  0  0  0  0
    7.2837   -4.8419   27.3274 O   0  0  0  0  0  0  0  0  0  0  0  0
    3.0888   -3.3422   27.8902 C   0  0  0  0  0  0  0  0  0  0  0  0
    6.3833   -5.8487   27.1668 C   0  0  0  0  0  0  0  0  0  0  0  0
    0.0161  -11.4667   14.8677 C   0  0  0  0  0  0  0  0  0  0  0  0
    3.0577  -11.7440   14.0772 C   0  0  0  0  0  0  0  0  0  0  0  0
    7.8342   -7.8333   27.3008 N   0  0  0  0  0  0  0  0  0  0  0  0
    5.9167   -7.7822   26.8316 C   0  0  0  0  0  0  0  0  0  0  0  0
    1.8234  -11.3607   15.5904 C   0  0  0  0  0  0  0  0  0  0  0  0
    0.3753  -10.8668   14.7771 C   0  0  0  0  0  0  0  0  0  0  0  0
    5.2045   -3.3829   27.6041 O   0  0  0  0  0  0  0  0  0  0  0  0
    5.2657   -6.3504   26.9777 C   0  0  0  0  0  0  0  0  0  0  0  0
    1.6293   -4.0348   27.0317 C   0  0  0  0  0  0  0  0  0  0  0  0
    1.7474   -6.4383   27.1349 C   0  0  0  0  0  0  0  0  0  0  0  0
  1  4  4  0
  2  4  4  0
  2 27  1  0
  2 28  1  0
  3 23  1  0
  5 14  1  0
  5 17  1  0
  6 12  1  0
  7 21  4  0
  8 27  1  0
  9 24  1  0
 10 27  1  0
 11 28  1  0
 12 20  1  0
 13 19  1  0
 15 22  4  0
 16 18  4  0
 18 26  4  0
 19 24  1  0
 22 26  4  0
M  END
$$$$

 Created by Python create_sdf_string function

 28 33  0  0  0  0  0  0  0  0999 V2000
    3.8377   -8.2845   27.1988 O   0  0  0  0  0  0  0  0  0  0  0  0
    2.5888   -5.7478   26.4005 F   0  0  0  0  0  0  0  0  0  0  0  0
    3.0323  -10.6557   15.9698 F   0  0  0  0  0  0  0  0  0  0  0  0
    2.5879   -6.5163   26.7181 C   0  0  0  0  0  0  0  0  0  0  0  0
    2.3365  -12.3641   13.5395 C   0  0  0  0  0  0  0  0  0  0  0  0
    2.0410   -2.9479   26.6018 Se  0  0  0  0  0  0  0  0  0  0  0  0
    0.7932  -11.4123   13.6833 F   0  0  0  0  0  0  0  0  0  0  0  0
    0.6595   -4.3889   26.6835 O   0  0  0  0  0  0  0  0  0  0  0  0
    5.3255   -8.5562   27.0219 C   0  0  0  0  0  0  0  0  0  0  0  0
    4.3673   -1.8406   28.4336 C   0  0  0  0  0  0  0  0  0  0  0  0
    0.4730  -10.8909   13.9640 Br  0  0  0  0  0  0  0  0  0  0  0  0
    8.1897   -7.3025   27.1726 N   0  0  0  0  0  0  0  0  0  0  0  0
    1.0119  -10.9786   15.8268 C   0  0  0  0  0  0  0  0  0  0  0  0
    4.9123   -4.2440   27.8868 O   0  0  0  0  0  0  0  0  0  0  0  0
    2.0575   -6.3180   27.1989 C   0  0  0  0  0  0  0  0  0  0  0  0
    4.6771   -2.5820   26.6969 He  0  0  0  0  0  0  0  0  0  0  0  0
    8.4636   -7.2174   25.7884 He  0  0  0  0  0  0  0  0  0  0  0  0
    1.7044   -6.9458   26.7413 He  0  0  0  0  0  0  0  0  0  0  0  0
    2.6121  -10.5101   13.2706 He  0  0  0  0  0  0  0  0  0  0  0  0
    0.7178  -12.6767   14.8691 He  0  0  0  0  0  0  0  0  0  0  0  0
    3.2627   -5.7237   26.6927 He  0  0  0  0  0  0  0  0  0  0  0  0
    7.3065   -4.9081   27.4606 He  0  0  0  0  0  0  0  0  0  0  0  0
    6.6328   -7.1182   26.2950 He  0  0  0  0  0  0  0  0  0  0  0  0
    3.0294  -12.2553   13.3905 He  0  0  0  0  0  0  0  0  0  0  0  0
    4.9385   -7.4849   27.2026 He  0  0  0  0  0  0  0  0  0  0  0  0
    0.2670   -9.8279   14.8471 He  0  0  0  0  0  0  0  0  0  0  0  0
    4.7441   -6.8545   27.3138 He  0  0  0  0  0  0  0  0  0  0  0  0
    1.8075   -4.5385   27.3084 He  0  0  0  0  0  0  0  0  0  0  0  0
  1  2  1  0
  1  3  3  0
  1  4  3  0
  1  7  2  0
  1 12  1  0
  1 14  2  0
  2  3  1  0
  2  4  4  0
  2  8  4  0
  2 11  3  0
  2 15  1  0
  3  6  4  0
  3 10  2  0
  3 11  3  0
  3 13  1  0
  3 14  2  0
  4  7  2  0
  4  8  1  0
  4 14  4  0
  5  8  3  0
  5 15  3  0
  6  9  3  0
  6 10  3  0
  7  8  4  0
  7  9  2  0
  8 11  2  0
  8 12  3  0
  8 13  4  0
  9 15  3  0
 10 12  1  0
 10 15  2  0
 11 14  3  0
 13 14  2  0
M  END
$$$$

 Created by Python create_sdf_string function

 28 20  0  0  0  0  0  0  0  0999 V2000
    3.7957   -8.2205   26.8159 O   0  0  0  0  0  0  0  0  0  0  0  0
    2.5453   -5.3614   26.9865 C   0  0  0  0  0  0  0  0  0  0  0  0
    2.4311  -10.7842   15.9455 C   0  0  0  0  0  0  0  0  0  0  0  0
    2.8495   -6.0693   26.9238 C   0  0  0  0  0  0  0  0  0  0  0  0
    4.0553   -3.0036   27.3371 C   0  0  0  0  0  0  0  0  0  0  0  0
    2.1861  -12.1340   13.7218 C   0  0  0  0  0  0  0  0  0  0  0  0
    8.4236   -7.4328   27.2368 C   0  0  0  0  0  0  0  0  0  0  0  0
    2.0870   -2.9308   26.9224 O   0  0  0  0  0  0  0  0  0  0  0  0
    0.4503  -11.1405   13.5339 C   0  0  0  0  0  0  0  0  0  0  0  0
    0.5391   -4.7183   26.7397 O   0  0  0  0  0  0  0  0  0  0  0  0
    1.3603   -7.1068   27.0642 O   0  0  0  0  0  0  0  0  0  0  0  0
    2.3551  -10.8175   13.4979 C   0  0  0  0  0  0  0  0  0  0  0  0
    1.2687  -12.1756   14.9526 C   0  0  0  0  0  0  0  0  0  0  0  0
    4.1158   -5.2121   27.2307 C   0  0  0  0  0  0  0  0  0  0  0  0
    6.0018   -8.2798   27.0411 C   0  0  0  0  0  0  0  0  0  0  0  0
    7.0199   -5.3144   27.2754 C   0  0  0  0  0  0  0  0  0  0  0  0
    4.0722   -2.2148   27.6648 C   0  0  0  0  0  0  0  0  0  0  0  0
    7.0534   -6.7607   27.2168 C   0  0  0  0  0  0  0  0  0  0  0  0
    0.5869  -10.7659   14.2442 C   0  0  0  0  0  0  0  0  0  0  0  0
    3.0836  -12.1915   13.5192 O   0  0  0  0  0  0  0  0  0  0  0  0
    7.5659   -7.6218   27.1505 N   0  0  0  0  0  0  0  0  0  0  0  0
    5.0508   -7.2656   26.9571 C   0  0  0  0  0  0  0  0  0  0  0  0
    1.3527  -10.9039   15.7204 C   0  0  0  0  0  0  0  0  0  0  0  0
    0.1962   -9.8240   14.7193 C   0  0  0  0  0  0  0  0  0  0  0  0
    5.3407   -4.3882   27.5237 O   0  0  0  0  0  0  0  0  0  0  0  0
    5.1072   -6.5146   27.0782 C   0  0  0  0  0  0  0  0  0  0  0  0
    2.2908   -4.0688   27.0542 C   0  0  0  0  0  0  0  0  0  0  0  0
    2.1213   -6.4889   27.0796 C   0  0  0  0  0  0  0  0  0  0  0  0
  2  4  1  0
  2 27  1  0
  2 28  1  0
  3 23  1  0
  5 17  1  0
  6 12  1  0
  6 20  1  0
  7 21  1  0
  8 27  1  0
  9 19  1  0
 11 28  1  0
 13 23  1  0
 15 21  4  0
 15 22  4  0
 16 18  4  0
 16 25  4  0
 18 21  4  0
 18 26  4  0
 19 24  1  0
 22 26  4  0
M  END
$$$$

 Created by Python create_sdf_string function

 28 54  0  0  0  0  0  0  0  0999 V2000
    1.8788   -5.1718   27.7703 F   0  0  0  0  0  0  0  0  0  0  0  0
    1.9994  -11.5654   16.3599 C   0  0  0  0  0  0  0  0  0  0  0  0
    3.3204   -6.1424   27.0560 C   0  0  0  0  0  0  0  0  0  0  0  0
    3.0718   -3.8644   28.1318 O   0  0  0  0  0  0  0  0  0  0  0  0
    1.3820  -11.9745   13.0968 C   0  0  0  0  0  0  0  0  0  0  0  0
    2.1147   -3.9410   26.2316 O   0  0  0  0  0  0  0  0  0  0  0  0
    0.2741   -5.1327   26.7371 C   0  0  0  0  0  0  0  0  0  0  0  0
    0.5696   -7.5336   26.6450 I   0  0  0  0  0  0  0  0  0  0  0  0
    2.3261  -11.0776   13.7552 Cl  0  0  0  0  0  0  0  0  0  0  0  0
    1.4506  -11.6507   15.1763 C   0  0  0  0  0  0  0  0  0  0  0  0
    6.0275   -8.0588   27.4407 C   0  0  0  0  0  0  0  0  0  0  0  0
    6.5310   -5.3394   26.9807 C   0  0  0  0  0  0  0  0  0  0  0  0
    3.9830   -1.7237   27.7234 C   0  0  0  0  0  0  0  0  0  0  0  0
    0.4124  -11.3447   15.4273 C   0  0  0  0  0  0  0  0  0  0  0  0
    0.8852  -10.4753   15.4517 C   0  0  0  0  0  0  0  0  0  0  0  0
    4.9439   -4.4810   26.6211 O   0  0  0  0  0  0  0  0  0  0  0  0
    5.1641   -6.4824   27.1694 C   0  0  0  0  0  0  0  0  0  0  0  0
    2.7088   -4.3627   27.1361 N   0  0  0  0  0  0  0  0  0  0  0  0
    2.2322   -5.6948   26.4301 P   0  0  0  0  0  0  0  0  0  0  0  0
    4.0323   -8.1010   26.9984 He  0  0  0  0  0  0  0  0  0  0  0  0
    8.5410   -6.7612   27.2236 He  0  0  0  0  0  0  0  0  0  0  0  0
    0.8584  -11.4321   13.1775 He  0  0  0  0  0  0  0  0  0  0  0  0
    2.6561   -5.8315   28.3588 He  0  0  0  0  0  0  0  0  0  0  0  0
    7.6196   -6.0425   27.6249 He  0  0  0  0  0  0  0  0  0  0  0  0
    3.4266  -12.0122   13.2506 He  0  0  0  0  0  0  0  0  0  0  0  0
    8.2793   -8.0373   27.6951 He  0  0  0  0  0  0  0  0  0  0  0  0
    4.4262   -6.6991   27.3523 He  0  0  0  0  0  0  0  0  0  0  0  0
    0.6314   -9.0297   15.9694 He  0  0  0  0  0  0  0  0  0  0  0  0
  1  2  2  0
  1  6  2  0
  1  8  4  0
  1  9  2  0
  1 11  3  0
  1 12  1  0
  1 15  4  0
  1 16  2  0
  1 19  1  0
  2 10  2  0
  2 14  1  0
  3  9  3  0
  3 15  4  0
  3 16  3  0
  3 18  1  0
  4  8  1  0
  4  9  4  0
  4 13  1  0
  4 14  4  0
  4 18  1  0
  5  8  4  0
  5  9  1  0
  5 10  3  0
  5 11  4  0
  5 12  2  0
  5 14  3  0
  6 13  1  0
  6 15  4  0
  6 17  3  0
  6 18  2  0
  6 19  3  0
  7  9  4  0
  7 15  3  0
  7 16  2  0
  7 18  3  0
  8 10  1  0
  8 15  1  0
  8 19  1  0
  9 13  4  0
  9 15  1  0
  9 18  1  0
 10 14  1  0
 10 15  2  0
 10 19  1  0
 11 12  2  0
 11 14  2  0
 12 15  3  0
 12 16  3  0
 13 16  4  0
 13 18  4  0
 15 16  4  0
 16 17  4  0
 16 19  3  0
 18 19  3  0
M  END
$$$$

 Created by Python create_sdf_string function

 28 25  0  0  0  0  0  0  0  0999 V2000
    4.0397   -7.7921   26.8832 O   0  0  0  0  0  0  0  0  0  0  0  0
    2.0610   -5.6402   27.7136 C   0  0  0  0  0  0  0  0  0  0  0  0
    1.6573  -11.3492   16.5903 C   0  0  0  0  0  0  0  0  0  0  0  0
    3.7075   -5.4863   27.2182 C   0  0  0  0  0  0  0  0  0  0  0  0
    3.3266   -3.4611   28.0524 C   0  0  0  0  0  0  0  0  0  0  0  0
    1.9893  -11.6680   13.2933 C   0  0  0  0  0  0  0  0  0  0  0  0
    8.4621   -7.1400   27.6081 C   0  0  0  0  0  0  0  0  0  0  0  0
    1.8380   -3.6001   26.5007 O   0  0  0  0  0  0  0  0  0  0  0  0
    0.9097  -11.5992   12.9130 O   0  0  0  0  0  0  0  0  0  0  0  0
    0.1190   -5.2224   26.7168 C   0  0  0  0  0  0  0  0  0  0  0  0
    1.0770   -7.1625   26.8967 C   0  0  0  0  0  0  0  0  0  0  0  0
    1.8403  -10.7473   14.0276 C   0  0  0  0  0  0  0  0  0  0  0  0
    1.5631  -11.7368   15.2235 C   0  0  0  0  0  0  0  0  0  0  0  0
    2.4791   -6.1582   28.4768 O   0  0  0  0  0  0  0  0  0  0  0  0
    6.3651   -8.1064   27.4038 C   0  0  0  0  0  0  0  0  0  0  0  0
    6.5239   -5.5396   27.2812 C   0  0  0  0  0  0  0  0  0  0  0  0
    3.7995   -2.2815   27.5923 C   0  0  0  0  0  0  0  0  0  0  0  0
    7.5793   -5.8092   27.4015 C   0  0  0  0  0  0  0  0  0  0  0  0
    0.6817  -11.2471   15.6949 C   0  0  0  0  0  0  0  0  0  0  0  0
    3.0493  -12.1559   13.0942 O   0  0  0  0  0  0  0  0  0  0  0  0
    7.7522   -7.9029   27.6302 C   0  0  0  0  0  0  0  0  0  0  0  0
    5.3340   -7.0355   27.1595 C   0  0  0  0  0  0  0  0  0  0  0  0
    0.9997   -9.8562   15.1448 C   0  0  0  0  0  0  0  0  0  0  0  0
    0.7556   -9.3118   16.0712 C   0  0  0  0  0  0  0  0  0  0  0  0
    5.6489   -4.5216   27.1916 O   0  0  0  0  0  0  0  0  0  0  0  0
    5.2511   -6.3484   27.2248 C   0  0  0  0  0  0  0  0  0  0  0  0
    2.8758   -4.1537   27.2082 C   0  0  0  0  0  0  0  0  0  0  0  0
    1.3824   -5.7319   26.9349 C   0  0  0  0  0  0  0  0  0  0  0  0
  2  4  1  0
  2 14  1  0
  2 28  1  0
  3 13  1  0
  3 19  1  0
  4 26  1  0
  4 27  1  0
  5 17  1  0
  5 27  1  0
  6  9  1  0
  6 12  1  0
  6 20  1  0
  7 18  4  0
  7 21  1  0
  8 27  2  0
 10 28  1  0
 11 28  1  0
 12 23  1  0
 13 19  1  0
 15 21  4  0
 15 22  4  0
 16 18  4  0
 16 25  4  0
 22 26  4  0
 23 24  1  0
M  END
$$$$

 Created by Python create_sdf_string function

 28 55  0  0  0  0  0  0  0  0999 V2000
    3.9642   -7.6986   26.8328 F   0  0  0  0  0  0  0  0  0  0  0  0
    2.0892   -5.6304   27.5258 C   0  0  0  0  0  0  0  0  0  0  0  0
    1.1303  -11.6546   15.4654 C   0  0  0  0  0  0  0  0  0  0  0  0
    5.4559   -5.6361   27.6450 C   0  0  0  0  0  0  0  0  0  0  0  0
    9.8197   -6.5023   26.7359 S   0  0  0  0  0  0  0  0  0  0  0  0
    0.4405   -4.1080   28.1586 O   0  0  0  0  0  0  0  0  0  0  0  0
    1.4648  -10.8811   13.2842 O   0  0  0  0  0  0  0  0  0  0  0  0
    0.2481   -6.4911   26.6724 N   0  0  0  0  0  0  0  0  0  0  0  0
    0.8315   -6.9477   26.9593 F   0  0  0  0  0  0  0  0  0  0  0  0
    2.3156  -11.2720   15.6731 C   0  0  0  0  0  0  0  0  0  0  0  0
    6.5378   -8.2334   27.5245 C   0  0  0  0  0  0  0  0  0  0  0  0
    3.8682   -2.3799   26.4757 Cl  0  0  0  0  0  0  0  0  0  0  0  0
    7.2103   -6.3469   27.0448 N   0  0  0  0  0  0  0  0  0  0  0  0
    0.2055  -11.2113   15.4926 C   0  0  0  0  0  0  0  0  0  0  0  0
    2.6231  -12.4945   13.3622 O   0  0  0  0  0  0  0  0  0  0  0  0
    7.5581   -8.4139   27.5628 C   0  0  0  0  0  0  0  0  0  0  0  0
    5.2412   -7.5163   26.5237 Cl  0  0  0  0  0  0  0  0  0  0  0  0
    1.1865   -9.4771   16.0402 C   0  0  0  0  0  0  0  0  0  0  0  0
    5.8072   -5.7858   26.8936 O   0  0  0  0  0  0  0  0  0  0  0  0
    6.2557   -6.2657   26.9392 C   0  0  0  0  0  0  0  0  0  0  0  0
    2.9239   -3.3646   26.3838 C   0  0  0  0  0  0  0  0  0  0  0  0
    2.9465   -2.7580   27.5610 He  0  0  0  0  0  0  0  0  0  0  0  0
    1.6122  -12.0473   13.4797 He  0  0  0  0  0  0  0  0  0  0  0  0
    2.0064  -11.2217   13.3685 He  0  0  0  0  0  0  0  0  0  0  0  0
    3.3197   -7.0177   27.5587 He  0  0  0  0  0  0  0  0  0  0  0  0
    8.1823   -4.9134   27.8920 He  0  0  0  0  0  0  0  0  0  0  0  0
    1.5797  -10.5608   15.8652 He  0  0  0  0  0  0  0  0  0  0  0  0
    2.3814   -5.7492   26.4639 He  0  0  0  0  0  0  0  0  0  0  0  0
  1  6  2  0
  1 14  3  0
  2  3  1  0
  2  4  4  0
  2  5  1  0
  2 14  3  0
  2 15  3  0
  2 17  2  0
  2 18  3  0
  2 21  4  0
  3  6  3  0
  3  8  3  0
  3 10  1  0
  3 13  2  0
  3 17  4  0
  4  6  2  0
  4  8  2  0
  4  9  3  0
  4 14  2  0
  4 18  1  0
  4 19  2  0
  4 20  1  0
  4 21  1  0
  5  7  1  0
  5 10  3  0
  5 13  3  0
  5 15  1  0
  5 17  1  0
  5 19  1  0
  6 10  3  0
  6 20  4  0
  6 21  2  0
  7 13  3  0
  7 20  2  0
  8 16  2  0
  8 19  4  0
  9 12  4  0
  9 14  1  0
 10 11  1  0
 10 13  4  0
 10 16  2  0
 11 12  3  0
 11 14  3  0
 11 17  4  0
 11 21  4  0
 12 15  4  0
 13 14  3  0
 13 18  4  0
 14 16  2  0
 14 19  3  0
 14 21  2  0
 16 18  2  0
 16 20  4  0
 17 20  3  0
 18 20  3  0
M  END
$$$$

 Created by Python create_sdf_string function

 28 21  0  0  0  0  0  0  0  0999 V2000
    4.0368   -7.5786   26.4758 N   0  0  0  0  0  0  0  0  0  0  0  0
    2.8269   -5.1737   27.0985 C   0  0  0  0  0  0  0  0  0  0  0  0
    1.3855  -11.4615   15.2539 C   0  0  0  0  0  0  0  0  0  0  0  0
    4.6443   -5.2214   27.2334 C   0  0  0  0  0  0  0  0  0  0  0  0
    3.0177   -2.8807   27.0880 C   0  0  0  0  0  0  0  0  0  0  0  0
    2.1419  -12.1236   13.2930 C   0  0  0  0  0  0  0  0  0  0  0  0
    9.2578   -6.5320   27.5020 C   0  0  0  0  0  0  0  0  0  0  0  0
    0.6691   -3.6687   27.5503 O   0  0  0  0  0  0  0  0  0  0  0  0
    1.3623  -10.7267   13.2602 C   0  0  0  0  0  0  0  0  0  0  0  0
    0.6561   -6.1640   26.7491 N   0  0  0  0  0  0  0  0  0  0  0  0
    1.1139   -7.0700   27.0528 C   0  0  0  0  0  0  0  0  0  0  0  0
    1.6160  -11.0857   13.9312 C   0  0  0  0  0  0  0  0  0  0  0  0
    2.3611  -11.5032   15.4374 C   0  0  0  0  0  0  0  0  0  0  0  0
    3.2144   -6.8971   26.9373 C   0  0  0  0  0  0  0  0  0  0  0  0
    6.5891   -8.0081   27.1706 C   0  0  0  0  0  0  0  0  0  0  0  0
    7.7698   -5.3621   27.4782 C   0  0  0  0  0  0  0  0  0  0  0  0
    4.2211   -2.9735   27.1358 C   0  0  0  0  0  0  0  0  0  0  0  0
    7.8055   -6.2937   27.4675 C   0  0  0  0  0  0  0  0  0  0  0  0
   -0.0027  -10.9525   15.5536 C   0  0  0  0  0  0  0  0  0  0  0  0
    2.7032  -12.6999   13.6161 O   0  0  0  0  0  0  0  0  0  0  0  0
    7.6716   -7.8731   27.5155 C   0  0  0  0  0  0  0  0  0  0  0  0
    5.4772   -7.6702   26.9104 C   0  0  0  0  0  0  0  0  0  0  0  0
    1.2481   -9.9920   16.0588 C   0  0  0  0  0  0  0  0  0  0  0  0
    1.2798   -9.5445   16.0910 C   0  0  0  0  0  0  0  0  0  0  0  0
    5.0835   -4.5394   27.2624 N   0  0  0  0  0  0  0  0  0  0  0  0
    6.3573   -6.2093   27.2399 C   0  0  0  0  0  0  0  0  0  0  0  0
    2.1899   -3.9100   27.2240 C   0  0  0  0  0  0  0  0  0  0  0  0
    2.0848   -5.7632   26.9421 C   0  0  0  0  0  0  0  0  0  0  0  0
  1 14  1  0
  1 22  4  0
  2  4  4  0
  2 27  4  0
  2 28  4  0
  3 13  1  0
  3 19  1  0
  4 25  4  0
  5 17  4  0
  5 27  4  0
  6 20  4  0
  7 18  1  0
  8 27  2  0
  9 12  4  0
 10 11  1  0
 10 28  1  0
 15 21  4  0
 15 22  4  0
 16 18  4  0
 17 25  4  0
 23 24  1  0
M  END
$$$$

 Created by Python create_sdf_string function

 28 38  0  0  0  0  0  0  0  0999 V2000
    3.6058   -7.0324   27.8417 N   0  0  0  0  0  0  0  0  0  0  0  0
    0.2731  -10.9964   15.7270 C   0  0  0  0  0  0  0  0  0  0  0  0
    5.3666   -4.4571   26.9169 C   0  0  0  0  0  0  0  0  0  0  0  0
    1.9186  -12.0174   13.1202 O   0  0  0  0  0  0  0  0  0  0  0  0
    9.3547   -7.0597   27.4561 C   0  0  0  0  0  0  0  0  0  0  0  0
    1.5526  -11.0092   13.5772 C   0  0  0  0  0  0  0  0  0  0  0  0
    0.4771   -6.0876   26.9032 C   0  0  0  0  0  0  0  0  0  0  0  0
    2.4240  -12.0459   13.9912 C   0  0  0  0  0  0  0  0  0  0  0  0
    2.6550  -11.1198   15.1381 F   0  0  0  0  0  0  0  0  0  0  0  0
    7.7690   -6.6012   26.3363 F   0  0  0  0  0  0  0  0  0  0  0  0
    1.2130  -12.2292   13.8596 O   0  0  0  0  0  0  0  0  0  0  0  0
    8.1633   -8.5746   27.0140 C   0  0  0  0  0  0  0  0  0  0  0  0
    5.0883   -7.6375   26.9573 S   0  0  0  0  0  0  0  0  0  0  0  0
    1.0723   -9.9031   15.8965 C   0  0  0  0  0  0  0  0  0  0  0  0
    1.4042   -9.9480   15.4391 C   0  0  0  0  0  0  0  0  0  0  0  0
    5.2768   -3.8423   28.4247 N   0  0  0  0  0  0  0  0  0  0  0  0
    2.1712   -4.8937   26.9345 C   0  0  0  0  0  0  0  0  0  0  0  0
    3.1172   -5.0768   26.7576 B   0  0  0  0  0  0  0  0  0  0  0  0
    2.4805   -5.4086   26.6441 He  0  0  0  0  0  0  0  0  0  0  0  0
    2.8553   -2.3505   26.7822 He  0  0  0  0  0  0  0  0  0  0  0  0
    0.8993   -2.7503   27.0478 He  0  0  0  0  0  0  0  0  0  0  0  0
    1.3130   -6.5406   25.7544 He  0  0  0  0  0  0  0  0  0  0  0  0
    3.7287   -7.0667   26.8435 He  0  0  0  0  0  0  0  0  0  0  0  0
    5.9675   -7.8951   26.7899 He  0  0  0  0  0  0  0  0  0  0  0  0
    5.0414   -3.5862   27.5991 He  0  0  0  0  0  0  0  0  0  0  0  0
    7.5712   -5.7264   27.7993 He  0  0  0  0  0  0  0  0  0  0  0  0
   -0.1579  -10.7159   16.2567 He  0  0  0  0  0  0  0  0  0  0  0  0
    6.6800   -6.4865   26.5649 He  0  0  0  0  0  0  0  0  0  0  0  0
  1  3  1  0
  1  8  4  0
  1 11  4  0
  1 13  1  0
  1 18  4  0
  2  5  4  0
  2  8  3  0
  2 11  4  0
  2 12  2  0
  2 14  1  0
  3  9  3  0
  3 10  3  0
  3 12  4  0
  3 17  1  0
  3 18  1  0
  4  9  2  0
  4 14  3  0
  4 15  1  0
  4 18  4  0
  5  8  4  0
  5  9  1  0
  5 12  4  0
  5 15  3  0
  5 17  2  0
  5 18  4  0
  6 17  4  0
  6 18  2  0
  7 18  1  0
  8 18  2  0
  9 10  1  0
  9 17  2  0
 10 13  3  0
 10 14  4  0
 10 18  4  0
 12 13  2  0
 12 16  4  0
 13 16  4  0
 14 16  3  0
M  END
$$$$

 Created by Python create_sdf_string function

 28 23  0  0  0  0  0  0  0  0999 V2000
    3.9817   -6.6337   26.9637 N   0  0  0  0  0  0  0  0  0  0  0  0
    2.5048   -5.1350   26.9329 C   0  0  0  0  0  0  0  0  0  0  0  0
   -0.0155  -11.3569   15.4078 C   0  0  0  0  0  0  0  0  0  0  0  0
    4.6871   -4.8440   27.3087 C   0  0  0  0  0  0  0  0  0  0  0  0
    3.0641   -2.7908   27.1073 N   0  0  0  0  0  0  0  0  0  0  0  0
    2.3591  -12.0968   12.9991 O   0  0  0  0  0  0  0  0  0  0  0  0
    8.9309   -7.3190   27.5963 C   0  0  0  0  0  0  0  0  0  0  0  0
    0.8967   -3.1516   26.8395 O   0  0  0  0  0  0  0  0  0  0  0  0
    1.6621  -11.1462   14.0863 C   0  0  0  0  0  0  0  0  0  0  0  0
    0.4632   -5.6322   26.8334 C   0  0  0  0  0  0  0  0  0  0  0  0
    1.2394   -6.3586   26.7808 N   0  0  0  0  0  0  0  0  0  0  0  0
    2.6752  -11.8020   13.9237 C   0  0  0  0  0  0  0  0  0  0  0  0
    3.0388  -11.0664   14.5565 C   0  0  0  0  0  0  0  0  0  0  0  0
    3.0586   -6.8658   26.8977 N   0  0  0  0  0  0  0  0  0  0  0  0
    6.8182   -8.0164   27.2848 C   0  0  0  0  0  0  0  0  0  0  0  0
    7.2999   -5.9746   27.3835 C   0  0  0  0  0  0  0  0  0  0  0  0
    4.3414   -3.0559   27.4986 C   0  0  0  0  0  0  0  0  0  0  0  0
    8.2470   -5.9436   27.5317 C   0  0  0  0  0  0  0  0  0  0  0  0
   -0.1877  -10.5664   16.2335 C   0  0  0  0  0  0  0  0  0  0  0  0
    0.7446  -11.8803   14.4174 C   0  0  0  0  0  0  0  0  0  0  0  0
    8.1994   -8.0933   27.5002 C   0  0  0  0  0  0  0  0  0  0  0  0
    4.8949   -7.5122   26.7339 C   0  0  0  0  0  0  0  0  0  0  0  0
    0.9478   -9.6874   16.1493 C   0  0  0  0  0  0  0  0  0  0  0  0
    1.8097   -9.8537   15.3968 C   0  0  0  0  0  0  0  0  0  0  0  0
    5.3634   -3.4707   27.7235 N   0  0  0  0  0  0  0  0  0  0  0  0
    6.4174   -6.6252   27.2321 C   0  0  0  0  0  0  0  0  0  0  0  0
    2.0135   -3.8530   26.9626 C   0  0  0  0  0  0  0  0  0  0  0  0
    3.5047   -5.1881   27.0953 C   0  0  0  0  0  0  0  0  0  0  0  0
  1 14  4  0
  1 22  1  0
  1 28  4  0
  2 14  4  0
  2 27  4  0
  2 28  4  0
  3 19  4  0
  3 20  4  0
  4 28  4  0
  5 17  4  0
  5 27  4  0
  7 18  4  0
  7 21  4  0
  8 27  2  0
  9 20  4  0
 10 11  1  0
 15 21  4  0
 15 26  4  0
 16 18  4  0
 16 26  4  0
 17 25  4  0
 19 23  4  0
 23 24  4  0
M  END
$$$$

 Created by Python create_sdf_string function

 28 34  0  0  0  0  0  0  0  0999 V2000
   -0.1449  -11.3493   15.1884 C   0  0  0  0  0  0  0  0  0  0  0  0
    4.8219   -5.6954   25.9664 C   0  0  0  0  0  0  0  0  0  0  0  0
    2.9554   -2.9818   26.8229 C   0  0  0  0  0  0  0  0  0  0  0  0
    3.6098  -12.3844   12.7891 Br  0  0  0  0  0  0  0  0  0  0  0  0
    9.0333   -7.1425   27.2004 N   0  0  0  0  0  0  0  0  0  0  0  0
    0.1857   -5.3286   25.9370 N   0  0  0  0  0  0  0  0  0  0  0  0
    1.4842   -5.4146   26.1143 Se  0  0  0  0  0  0  0  0  0  0  0  0
    3.5606  -12.2474   13.3503 C   0  0  0  0  0  0  0  0  0  0  0  0
    2.8284  -11.3754   14.8091 C   0  0  0  0  0  0  0  0  0  0  0  0
    7.9850   -7.0700   27.0269 C   0  0  0  0  0  0  0  0  0  0  0  0
    7.6763   -5.7708   27.8019 B   0  0  0  0  0  0  0  0  0  0  0  0
    0.3281  -12.4265   14.3467 C   0  0  0  0  0  0  0  0  0  0  0  0
    7.6246   -9.5654   27.4696 C   0  0  0  0  0  0  0  0  0  0  0  0
    0.6754   -9.8469   15.9761 C   0  0  0  0  0  0  0  0  0  0  0  0
    7.0458   -3.4284   27.1908 N   0  0  0  0  0  0  0  0  0  0  0  0
    2.3386   -3.9117   27.2372 N   0  0  0  0  0  0  0  0  0  0  0  0
    4.0123   -5.6512   26.8665 C   0  0  0  0  0  0  0  0  0  0  0  0
    4.2651   -6.5300   26.5365 He  0  0  0  0  0  0  0  0  0  0  0  0
    2.4487   -5.2816   25.8048 He  0  0  0  0  0  0  0  0  0  0  0  0
    1.8687   -3.6673   27.6048 He  0  0  0  0  0  0  0  0  0  0  0  0
    0.9123  -10.2265   13.1028 He  0  0  0  0  0  0  0  0  0  0  0  0
    3.0324   -7.0341   27.7218 He  0  0  0  0  0  0  0  0  0  0  0  0
    6.4927   -5.5573   28.2160 He  0  0  0  0  0  0  0  0  0  0  0  0
    4.6400   -3.1417   27.0842 He  0  0  0  0  0  0  0  0  0  0  0  0
   -1.0250  -10.3996   16.5414 He  0  0  0  0  0  0  0  0  0  0  0  0
    4.4194   -7.9461   27.0072 He  0  0  0  0  0  0  0  0  0  0  0  0
    2.8146   -9.8169   14.5973 He  0  0  0  0  0  0  0  0  0  0  0  0
    5.9050   -6.7621   27.0175 He  0  0  0  0  0  0  0  0  0  0  0  0
  1  8  2  0
  1 12  3  0
  2  7  2  0
  2  9  2  0
  2 16  2  0
  2 17  1  0
  3  6  4  0
  3 14  1  0
  4  6  1  0
  4  8  1  0
  4 15  1  0
  5 12  4  0
  5 15  2  0
  6  7  1  0
  6 11  2  0
  6 14  1  0
  6 16  2  0
  7 11  3  0
  7 17  3  0
  8 11  2  0
  8 12  1  0
  8 17  1  0
  9 10  4  0
  9 11  1  0
  9 15  4  0
 10 14  4  0
 10 16  3  0
 11 12  2  0
 11 15  4  0
 12 17  1  0
 13 14  2  0
 13 15  2  0
 13 16  3  0
 16 17  2  0
M  END
$$$$

 Created by Python create_sdf_string function

 28 27  0  0  0  0  0  0  0  0999 V2000
    4.0731   -7.0532   26.8772 C   0  0  0  0  0  0  0  0  0  0  0  0
    2.4775   -5.3618   26.8853 C   0  0  0  0  0  0  0  0  0  0  0  0
    0.0423  -10.8048   15.4270 C   0  0  0  0  0  0  0  0  0  0  0  0
    4.6392   -5.6748   27.0223 C   0  0  0  0  0  0  0  0  0  0  0  0
    3.3628   -3.0634   27.1210 C   0  0  0  0  0  0  0  0  0  0  0  0
    3.5488  -12.3994   12.9105 C   0  0  0  0  0  0  0  0  0  0  0  0
    8.9188   -7.0581   27.5733 C   0  0  0  0  0  0  0  0  0  0  0  0
    2.1890   -2.9806   27.0590 C   0  0  0  0  0  0  0  0  0  0  0  0
    1.4877  -11.5191   13.8965 C   0  0  0  0  0  0  0  0  0  0  0  0
    0.0944   -5.5950   26.5224 N   0  0  0  0  0  0  0  0  0  0  0  0
    1.3001   -5.4830   26.7105 C   0  0  0  0  0  0  0  0  0  0  0  0
    3.5828  -12.3673   13.0216 C   0  0  0  0  0  0  0  0  0  0  0  0
    2.4369  -10.9487   14.3288 C   0  0  0  0  0  0  0  0  0  0  0  0
    2.7026   -7.1914   26.9043 N   0  0  0  0  0  0  0  0  0  0  0  0
    8.1168   -7.4061   27.5567 C   0  0  0  0  0  0  0  0  0  0  0  0
    6.3609   -5.9472   27.2388 C   0  0  0  0  0  0  0  0  0  0  0  0
    4.3433   -3.2816   27.1321 C   0  0  0  0  0  0  0  0  0  0  0  0
    7.7220   -5.6007   27.4457 C   0  0  0  0  0  0  0  0  0  0  0  0
   -1.0420  -10.6983   16.1294 O   0  0  0  0  0  0  0  0  0  0  0  0
    0.3245  -11.7228   14.3779 C   0  0  0  0  0  0  0  0  0  0  0  0
    7.5181   -8.2642   27.5384 C   0  0  0  0  0  0  0  0  0  0  0  0
    4.9496   -7.9475   26.9914 C   0  0  0  0  0  0  0  0  0  0  0  0
    1.1052   -9.8484   15.6896 C   0  0  0  0  0  0  0  0  0  0  0  0
    2.1836   -9.9698   15.0947 C   0  0  0  0  0  0  0  0  0  0  0  0
    7.1797   -4.1343   27.4414 N   0  0  0  0  0  0  0  0  0  0  0  0
    6.2199   -7.1286   27.2540 C   0  0  0  0  0  0  0  0  0  0  0  0
    1.9954   -3.9766   26.8753 C   0  0  0  0  0  0  0  0  0  0  0  0
    3.9751   -5.0648   27.0723 C   0  0  0  0  0  0  0  0  0  0  0  0
  1  4  4  0
  1 14  4  0
  1 22  1  0
  2 11  4  0
  2 28  4  0
  3 19  1  0
  3 20  4  0
  3 23  4  0
  4 16  4  0
  4 28  4  0
  5  8  4  0
  5 17  4  0
  6 12  1  0
  7 15  4  0
  7 18  4  0
  8 27  4  0
  9 13  4  0
  9 20  4  0
 10 11  1  0
 13 24  4  0
 15 21  4  0
 16 18  4  0
 16 26  4  0
 18 25  4  0
 21 26  4  0
 22 26  4  0
 23 24  4  0
M  END
$$$$

 Created by Python create_sdf_string function

 28 39  0  0  0  0  0  0  0  0999 V2000
    3.1166   -6.5021   26.8641 S   0  0  0  0  0  0  0  0  0  0  0  0
    4.8110   -5.7426   27.2744 C   0  0  0  0  0  0  0  0  0  0  0  0
    3.1635   -3.3733   26.4766 Cl  0  0  0  0  0  0  0  0  0  0  0  0
    8.6434   -6.7440   28.1160 C   0  0  0  0  0  0  0  0  0  0  0  0
    2.6760   -2.8200   26.8015 C   0  0  0  0  0  0  0  0  0  0  0  0
    1.5169  -11.3825   13.8630 C   0  0  0  0  0  0  0  0  0  0  0  0
    0.6702   -5.1977   27.3655 S   0  0  0  0  0  0  0  0  0  0  0  0
    3.0632  -12.4143   13.9328 C   0  0  0  0  0  0  0  0  0  0  0  0
    1.5471  -11.0613   15.1327 C   0  0  0  0  0  0  0  0  0  0  0  0
    8.1998   -7.8239   26.3395 C   0  0  0  0  0  0  0  0  0  0  0  0
    6.6632   -6.1145   27.5500 C   0  0  0  0  0  0  0  0  0  0  0  0
    4.5586   -3.3144   27.4989 N   0  0  0  0  0  0  0  0  0  0  0  0
    7.4027   -5.3352   27.3867 C   0  0  0  0  0  0  0  0  0  0  0  0
   -0.1397  -10.6207   16.5273 O   0  0  0  0  0  0  0  0  0  0  0  0
    0.2479  -12.2378   14.2590 Cl  0  0  0  0  0  0  0  0  0  0  0  0
    5.0151   -7.1852   27.0077 C   0  0  0  0  0  0  0  0  0  0  0  0
    1.9828  -10.1209   15.4650 C   0  0  0  0  0  0  0  0  0  0  0  0
    5.8433   -4.6891   27.3359 N   0  0  0  0  0  0  0  0  0  0  0  0
    2.1267   -4.8966   27.5249 C   0  0  0  0  0  0  0  0  0  0  0  0
    4.5325   -5.2502   27.3270 C   0  0  0  0  0  0  0  0  0  0  0  0
    4.0439   -6.7449   27.6873 He  0  0  0  0  0  0  0  0  0  0  0  0
   -0.5340   -9.7598   14.4972 He  0  0  0  0  0  0  0  0  0  0  0  0
    3.8124  -12.4939   13.1246 He  0  0  0  0  0  0  0  0  0  0  0  0
   -0.8339   -6.1619   27.0999 He  0  0  0  0  0  0  0  0  0  0  0  0
    1.6240   -7.1402   26.3316 He  0  0  0  0  0  0  0  0  0  0  0  0
    7.4923   -8.3614   27.2742 He  0  0  0  0  0  0  0  0  0  0  0  0
    2.7615   -9.6656   14.5139 He  0  0  0  0  0  0  0  0  0  0  0  0
    6.6907   -7.4804   27.4445 He  0  0  0  0  0  0  0  0  0  0  0  0
  1  6  1  0
  1  7  4  0
  1  8  4  0
  1 10  2  0
  2  5  2  0
  2 11  4  0
  2 14  1  0
  2 18  2  0
  3  5  4  0
  4  9  2  0
  4 12  4  0
  4 13  4  0
  4 18  4  0
  5  7  3  0
  5 11  1  0
  5 12  2  0
  5 18  2  0
  5 19  3  0
  5 20  3  0
  6  7  3  0
  6  8  4  0
  6 12  3  0
  6 13  3  0
  6 15  1  0
  6 19  2  0
  6 20  2  0
  7  8  3  0
  7 10  1  0
  7 16  1  0
  7 20  3  0
  8 16  4  0
  8 20  2  0
  9 10  4  0
  9 12  4  0
  9 13  4  0
 10 12  2  0
 10 19  4  0
 12 19  2  0
 13 15  2  0
M  END
$$$$

 Created by Python create_sdf_string function

 28 29  0  0  0  0  0  0  0  0999 V2000
    4.1845   -7.0924   26.9414 C   0  0  0  0  0  0  0  0  0  0  0  0
    2.9312   -6.0582   27.0252 C   0  0  0  0  0  0  0  0  0  0  0  0
   -0.4918  -10.1995   15.0159 C   0  0  0  0  0  0  0  0  0  0  0  0
    5.0191   -5.5042   27.3096 C   0  0  0  0  0  0  0  0  0  0  0  0
    3.0369   -2.9763   26.9675 C   0  0  0  0  0  0  0  0  0  0  0  0
    3.7045  -12.0861   13.4503 C   0  0  0  0  0  0  0  0  0  0  0  0
    8.8962   -6.4616   27.6340 C   0  0  0  0  0  0  0  0  0  0  0  0
    2.2944   -3.4040   26.9382 C   0  0  0  0  0  0  0  0  0  0  0  0
    1.4733  -11.8353   14.1928 C   0  0  0  0  0  0  0  0  0  0  0  0
   -0.2838   -5.6428   27.0047 O   0  0  0  0  0  0  0  0  0  0  0  0
    0.7665   -5.7553   26.9940 C   0  0  0  0  0  0  0  0  0  0  0  0
    2.7499  -11.9719   13.7854 C   0  0  0  0  0  0  0  0  0  0  0  0
    1.2697  -10.7404   15.0150 C   0  0  0  0  0  0  0  0  0  0  0  0
    1.2838   -7.1187   27.0717 O   0  0  0  0  0  0  0  0  0  0  0  0
    8.6203   -7.8316   27.5523 C   0  0  0  0  0  0  0  0  0  0  0  0
    6.6084   -5.9591   27.4626 C   0  0  0  0  0  0  0  0  0  0  0  0
    4.1949   -3.1954   27.2464 N   0  0  0  0  0  0  0  0  0  0  0  0
    7.8706   -5.5496   27.6055 C   0  0  0  0  0  0  0  0  0  0  0  0
   -0.2225  -10.3516   16.0240 O   0  0  0  0  0  0  0  0  0  0  0  0
    0.1850  -12.3911   13.9878 Cl  0  0  0  0  0  0  0  0  0  0  0  0
    7.2735   -8.2183   27.3976 C   0  0  0  0  0  0  0  0  0  0  0  0
    4.9872   -7.8120   27.0657 C   0  0  0  0  0  0  0  0  0  0  0  0
    2.0669   -9.7641   15.1223 C   0  0  0  0  0  0  0  0  0  0  0  0
    3.3057  -10.3400   14.4043 C   0  0  0  0  0  0  0  0  0  0  0  0
    5.8928   -4.5905   27.5930 N   0  0  0  0  0  0  0  0  0  0  0  0
    6.3462   -7.4088   27.2576 C   0  0  0  0  0  0  0  0  0  0  0  0
    2.2210   -4.9510   27.0368 C   0  0  0  0  0  0  0  0  0  0  0  0
    3.8038   -5.1244   27.1875 C   0  0  0  0  0  0  0  0  0  0  0  0
  1  4  4  0
  1 22  4  0
  2 27  4  0
  2 28  4  0
  3 19  1  0
  4 16  4  0
  4 25  4  0
  4 28  4  0
  5  8  4  0
  5 17  4  0
  6 12  4  0
  7 15  4  0
  7 18  4  0
  8 27  4  0
  9 12  4  0
  9 13  4  0
  9 20  1  0
 10 11  1  0
 11 14  2  0
 11 27  1  0
 13 23  4  0
 15 21  4  0
 16 18  4  0
 16 25  4  0
 16 26  4  0
 21 26  4  0
 22 26  4  0
 23 24  4  0
 27 28  4  0
M  END
$$$$

 Created by Python create_sdf_string function

 28 41  0  0  0  0  0  0  0  0999 V2000
    3.9322   -6.2253   26.5925 Cl  0  0  0  0  0  0  0  0  0  0  0  0
    5.3841   -5.3196   27.9537 C   0  0  0  0  0  0  0  0  0  0  0  0
    2.5437   -2.7775   26.4085 C   0  0  0  0  0  0  0  0  0  0  0  0
    3.3018  -12.2525   13.7551 C   0  0  0  0  0  0  0  0  0  0  0  0
    2.1968   -3.8132   26.6167 P   0  0  0  0  0  0  0  0  0  0  0  0
    0.0037  -11.1982   14.2171 C   0  0  0  0  0  0  0  0  0  0  0  0
   -0.0961   -6.2271   27.0387 C   0  0  0  0  0  0  0  0  0  0  0  0
    3.2716  -11.8633   14.1348 F   0  0  0  0  0  0  0  0  0  0  0  0
    0.4443   -7.2366   27.2954 O   0  0  0  0  0  0  0  0  0  0  0  0
    8.9400   -7.5679   27.3037 N   0  0  0  0  0  0  0  0  0  0  0  0
    6.3737   -5.6119   27.5910 F   0  0  0  0  0  0  0  0  0  0  0  0
    3.8604   -3.4183   27.1583 N   0  0  0  0  0  0  0  0  0  0  0  0
    0.3693  -11.3563   15.7330 O   0  0  0  0  0  0  0  0  0  0  0  0
    0.1844  -13.0682   14.2222 C   0  0  0  0  0  0  0  0  0  0  0  0
    8.2883   -7.9058   26.7863 Cl  0  0  0  0  0  0  0  0  0  0  0  0
    5.4238   -7.9277   27.0630 N   0  0  0  0  0  0  0  0  0  0  0  0
    1.5002  -10.0254   15.7170 C   0  0  0  0  0  0  0  0  0  0  0  0
    6.1220   -4.4499   26.7365 N   0  0  0  0  0  0  0  0  0  0  0  0
    6.6649   -8.2795   27.7471 C   0  0  0  0  0  0  0  0  0  0  0  0
    1.4171   -5.3552   27.9945 C   0  0  0  0  0  0  0  0  0  0  0  0
    3.6638   -4.3062   27.8849 C   0  0  0  0  0  0  0  0  0  0  0  0
    3.0538   -6.0539   27.0089 He  0  0  0  0  0  0  0  0  0  0  0  0
   -0.0938  -11.3971   15.7874 He  0  0  0  0  0  0  0  0  0  0  0  0
    8.8016   -5.8178   28.2660 He  0  0  0  0  0  0  0  0  0  0  0  0
    0.0430   -5.8205   26.9880 He  0  0  0  0  0  0  0  0  0  0  0  0
    0.4250  -10.8162   14.2502 He  0  0  0  0  0  0  0  0  0  0  0  0
    7.7985   -6.2595   27.7501 He  0  0  0  0  0  0  0  0  0  0  0  0
    3.6955   -9.9004   15.0860 He  0  0  0  0  0  0  0  0  0  0  0  0
  1 12  4  0
  1 16  4  0
  2  4  1  0
  2  7  3  0
  2  9  2  0
  2 15  1  0
  2 19  3  0
  3  5  4  0
  3 10  3  0
  3 12  3  0
  3 15  1  0
  3 18  3  0
  4  5  4  0
  4 13  3  0
  4 14  4  0
  4 17  4  0
  4 20  4  0
  5  7  1  0
  5 15  2  0
  6 11  2  0
  6 14  1  0
  6 18  2  0
  7  9  2  0
  7 20  2  0
  7 21  3  0
  8 10  3  0
  8 11  2  0
  8 14  2  0
  8 19  2  0
  9 10  1  0
 10 13  1  0
 10 14  3  0
 10 20  2  0
 11 13  3  0
 11 17  2  0
 11 18  4  0
 13 19  1  0
 14 21  3  0
 16 19  4  0
 18 20  3  0
 18 21  3  0
M  END
$$$$

 Created by Python create_sdf_string function

 28 27  0  0  0  0  0  0  0  0999 V2000
    4.6237   -6.7796   27.1995 C   0  0  0  0  0  0  0  0  0  0  0  0
    2.8835   -5.6501   27.2747 C   0  0  0  0  0  0  0  0  0  0  0  0
   -0.2625  -11.2733   16.0191 C   0  0  0  0  0  0  0  0  0  0  0  0
    5.1927   -5.4893   27.3645 C   0  0  0  0  0  0  0  0  0  0  0  0
    2.3284   -2.9363   26.7901 C   0  0  0  0  0  0  0  0  0  0  0  0
    2.9496  -11.6125   14.1736 C   0  0  0  0  0  0  0  0  0  0  0  0
    8.9907   -6.1049   27.8314 C   0  0  0  0  0  0  0  0  0  0  0  0
    1.3729   -3.7891   26.8279 C   0  0  0  0  0  0  0  0  0  0  0  0
    0.3844  -11.5935   14.2959 C   0  0  0  0  0  0  0  0  0  0  0  0
   -0.5997   -5.6908   26.8747 O   0  0  0  0  0  0  0  0  0  0  0  0
    0.3350   -6.1522   27.2355 C   0  0  0  0  0  0  0  0  0  0  0  0
    3.2038  -12.0728   13.9036 C   0  0  0  0  0  0  0  0  0  0  0  0
    0.5949  -11.0405   14.4140 C   0  0  0  0  0  0  0  0  0  0  0  0
    0.6583   -7.3272   27.5959 O   0  0  0  0  0  0  0  0  0  0  0  0
    9.0271   -7.5083   27.6535 C   0  0  0  0  0  0  0  0  0  0  0  0
    6.8575   -5.9459   27.5235 C   0  0  0  0  0  0  0  0  0  0  0  0
    3.5788   -3.3365   27.0645 C   0  0  0  0  0  0  0  0  0  0  0  0
    7.7947   -5.4842   27.7829 C   0  0  0  0  0  0  0  0  0  0  0  0
    0.2206  -11.1673   16.1362 C   0  0  0  0  0  0  0  0  0  0  0  0
    0.7082  -12.5221   14.0653 C   0  0  0  0  0  0  0  0  0  0  0  0
    7.7919   -8.0565   27.4773 C   0  0  0  0  0  0  0  0  0  0  0  0
    5.4877   -7.7585   27.0672 N   0  0  0  0  0  0  0  0  0  0  0  0
    1.8124  -10.3182   15.6040 C   0  0  0  0  0  0  0  0  0  0  0  0
    3.2069  -10.3829   14.9286 C   0  0  0  0  0  0  0  0  0  0  0  0
    5.9641   -4.6766   27.5359 N   0  0  0  0  0  0  0  0  0  0  0  0
    6.7608   -7.5443   27.2986 C   0  0  0  0  0  0  0  0  0  0  0  0
    1.5442   -5.1709   27.1355 C   0  0  0  0  0  0  0  0  0  0  0  0
    3.6816   -4.6435   27.2753 C   0  0  0  0  0  0  0  0  0  0  0  0
  1  4  4  0
  1 22  4  0
  2 27  4  0
  2 28  4  0
  3 19  1  0
  4 25  4  0
  4 28  1  0
  5  8  4  0
  5 17  4  0
  6 12  4  0
  6 24  1  0
  7 15  4  0
  7 18  4  0
  8 27  4  0
  9 13  4  0
  9 20  1  0
 10 11  1  0
 11 14  2  0
 11 27  1  0
 15 21  4  0
 16 18  4  0
 16 25  4  0
 16 26  4  0
 17 28  4  0
 21 26  4  0
 22 26  4  0
 23 24  4  0
M  END
$$$$

 Created by Python create_sdf_string function

 28 52  0  0  0  0  0  0  0  0999 V2000
    4.6194   -6.6615   26.8960 C   0  0  0  0  0  0  0  0  0  0  0  0
    0.2507  -11.6882   15.9599 C   0  0  0  0  0  0  0  0  0  0  0  0
    5.3033   -4.9748   27.0013 C   0  0  0  0  0  0  0  0  0  0  0  0
    2.6299   -2.5482   27.0596 C   0  0  0  0  0  0  0  0  0  0  0  0
    2.3351  -11.3554   13.0579 C   0  0  0  0  0  0  0  0  0  0  0  0
    9.5842   -7.2386   27.0775 C   0  0  0  0  0  0  0  0  0  0  0  0
    0.2424   -4.2848   26.5612 S   0  0  0  0  0  0  0  0  0  0  0  0
   -1.2147  -11.9174   13.4551 I   0  0  0  0  0  0  0  0  0  0  0  0
    0.3997   -5.9713   27.9950 C   0  0  0  0  0  0  0  0  0  0  0  0
    3.8231  -12.4772   14.3277 Br  0  0  0  0  0  0  0  0  0  0  0  0
    0.3732  -11.0300   13.7992 C   0  0  0  0  0  0  0  0  0  0  0  0
    6.7228   -5.8538   27.9509 N   0  0  0  0  0  0  0  0  0  0  0  0
    3.0395   -3.2336   26.3075 C   0  0  0  0  0  0  0  0  0  0  0  0
    0.4296  -12.0883   13.9501 C   0  0  0  0  0  0  0  0  0  0  0  0
    7.0653   -7.9157   27.2663 C   0  0  0  0  0  0  0  0  0  0  0  0
    5.6815   -6.0580   27.3522 O   0  0  0  0  0  0  0  0  0  0  0  0
    2.1050  -10.2195   14.6221 C   0  0  0  0  0  0  0  0  0  0  0  0
    5.9023   -4.7462   28.0214 N   0  0  0  0  0  0  0  0  0  0  0  0
    7.5644   -7.3981   26.8742 C   0  0  0  0  0  0  0  0  0  0  0  0
    1.3484   -5.8638   27.3620 C   0  0  0  0  0  0  0  0  0  0  0  0
    4.4441   -4.5173   27.2732 C   0  0  0  0  0  0  0  0  0  0  0  0
    3.1798   -5.9215   27.3359 He  0  0  0  0  0  0  0  0  0  0  0  0
   -1.0277   -6.9135   27.1698 He  0  0  0  0  0  0  0  0  0  0  0  0
    0.9569   -7.4212   27.9318 He  0  0  0  0  0  0  0  0  0  0  0  0
    9.4507   -7.7486   28.6420 He  0  0  0  0  0  0  0  0  0  0  0  0
    7.6071   -5.2096   27.1535 He  0  0  0  0  0  0  0  0  0  0  0  0
   -0.1526   -9.9216   16.8289 He  0  0  0  0  0  0  0  0  0  0  0  0
    1.8931  -10.1765   14.8780 He  0  0  0  0  0  0  0  0  0  0  0  0
  1  3  4  0
  1  4  3  0
  1  6  4  0
  1  9  1  0
  1 10  2  0
  1 16  4  0
  1 19  3  0
  2  3  1  0
  2 12  3  0
  2 20  2  0
  2 21  1  0
  3  6  3  0
  3 10  3  0
  3 11  1  0
  3 17  4  0
  3 20  3  0
  3 21  1  0
  4  7  4  0
  4 10  1  0
  4 14  4  0
  4 18  3  0
  5 10  4  0
  5 13  4  0
  6 11  3  0
  7 14  1  0
  7 15  1  0
  7 17  4  0
  7 19  4  0
  7 20  4  0
  8 10  3  0
  8 11  4  0
  8 13  1  0
  8 16  3  0
  8 18  2  0
  8 19  4  0
  9 10  3  0
  9 12  1  0
 11 12  4  0
 11 13  2  0
 11 17  3  0
 11 18  4  0
 11 20  2  0
 12 16  2  0
 12 18  4  0
 12 19  1  0
 13 15  2  0
 13 16  1  0
 15 19  4  0
 15 21  1  0
 16 18  4  0
 19 20  1  0
 20 21  3  0
M  END
$$$$

 Created by Python create_sdf_string function

 28 28  0  0  0  0  0  0  0  0999 V2000
    4.9396   -6.7589   27.2821 C   0  0  0  0  0  0  0  0  0  0  0  0
    2.9016   -5.6186   27.1637 C   0  0  0  0  0  0  0  0  0  0  0  0
    0.2863  -10.6792   15.7270 C   0  0  0  0  0  0  0  0  0  0  0  0
    4.8519   -5.2116   27.3260 C   0  0  0  0  0  0  0  0  0  0  0  0
    1.8063   -3.0018   26.7356 C   0  0  0  0  0  0  0  0  0  0  0  0
    2.5466  -11.5894   13.5266 C   0  0  0  0  0  0  0  0  0  0  0  0
    9.3432   -6.8253   27.6194 C   0  0  0  0  0  0  0  0  0  0  0  0
    0.8860   -4.0579   26.9015 C   0  0  0  0  0  0  0  0  0  0  0  0
   -0.6464  -11.7209   14.0168 C   0  0  0  0  0  0  0  0  0  0  0  0
   -0.6810   -6.1904   27.4211 O   0  0  0  0  0  0  0  0  0  0  0  0
    0.5823   -6.4245   27.5595 C   0  0  0  0  0  0  0  0  0  0  0  0
    3.6969  -11.9534   14.1536 C   0  0  0  0  0  0  0  0  0  0  0  0
    0.2071  -11.4626   13.9471 C   0  0  0  0  0  0  0  0  0  0  0  0
    0.9990   -7.5193   28.0096 O   0  0  0  0  0  0  0  0  0  0  0  0
    9.1717   -7.9364   27.6262 C   0  0  0  0  0  0  0  0  0  0  0  0
    7.0812   -5.8039   27.5686 C   0  0  0  0  0  0  0  0  0  0  0  0
    3.1453   -3.2499   26.9358 C   0  0  0  0  0  0  0  0  0  0  0  0
    8.2965   -5.7351   27.5969 C   0  0  0  0  0  0  0  0  0  0  0  0
   -0.1421  -10.2334   16.6993 C   0  0  0  0  0  0  0  0  0  0  0  0
    0.5845  -12.1221   13.5946 C   0  0  0  0  0  0  0  0  0  0  0  0
    7.6214   -8.2343   27.7447 C   0  0  0  0  0  0  0  0  0  0  0  0
    5.6828   -6.7335   27.2734 C   0  0  0  0  0  0  0  0  0  0  0  0
    1.6439  -10.5760   15.1419 C   0  0  0  0  0  0  0  0  0  0  0  0
    2.1189  -10.7404   14.7358 C   0  0  0  0  0  0  0  0  0  0  0  0
    6.1416   -4.6816   27.6605 N   0  0  0  0  0  0  0  0  0  0  0  0
    6.9548   -7.4285   27.5206 C   0  0  0  0  0  0  0  0  0  0  0  0
    1.4437   -5.3297   27.2106 C   0  0  0  0  0  0  0  0  0  0  0  0
    3.6666   -4.5760   27.1698 C   0  0  0  0  0  0  0  0  0  0  0  0
  1  4  4  0
  1 22  4  0
  2 27  4  0
  2 28  4  0
  3 19  1  0
  3 23  4  0
  4 25  4  0
  4 28  1  0
  5  8  4  0
  5 17  4  0
  6 12  4  0
  6 24  1  0
  7 15  4  0
  7 18  4  0
  8 27  4  0
  9 13  4  0
  9 20  4  0
 10 11  1  0
 11 14  2  0
 11 27  1  0
 13 20  4  0
 15 21  4  0
 16 18  4  0
 16 25  4  0
 16 26  4  0
 17 28  4  0
 21 26  4  0
 23 24  4  0
M  END
$$$$

 Created by Python create_sdf_string function

 28 56  0  0  0  0  0  0  0  0999 V2000
    2.1142   -4.5970   28.2034 N   0  0  0  0  0  0  0  0  0  0  0  0
    0.2086  -10.2160   14.8844 C   0  0  0  0  0  0  0  0  0  0  0  0
    1.0702   -2.7450   25.6177 Br  0  0  0  0  0  0  0  0  0  0  0  0
    2.0055  -11.9632   13.6874 C   0  0  0  0  0  0  0  0  0  0  0  0
    9.6593   -6.9048   27.6673 F   0  0  0  0  0  0  0  0  0  0  0  0
    0.8496   -4.4264   25.9023 C   0  0  0  0  0  0  0  0  0  0  0  0
   -1.1742  -11.0199   13.3396 P   0  0  0  0  0  0  0  0  0  0  0  0
   -0.3405   -6.6754   27.7432 C   0  0  0  0  0  0  0  0  0  0  0  0
    3.5967  -12.1695   13.2126 C   0  0  0  0  0  0  0  0  0  0  0  0
    0.0031  -11.6160   14.2528 C   0  0  0  0  0  0  0  0  0  0  0  0
    1.2583   -8.7213   27.7992 O   0  0  0  0  0  0  0  0  0  0  0  0
    8.9743   -7.0182   27.2002 C   0  0  0  0  0  0  0  0  0  0  0  0
    6.4217   -5.6418   27.5093 C   0  0  0  0  0  0  0  0  0  0  0  0
    2.6725   -3.4298   27.6600 N   0  0  0  0  0  0  0  0  0  0  0  0
    8.6059   -5.6302   27.1505 C   0  0  0  0  0  0  0  0  0  0  0  0
    0.6258  -10.2269   17.0473 C   0  0  0  0  0  0  0  0  0  0  0  0
    0.4256  -12.1463   12.8413 C   0  0  0  0  0  0  0  0  0  0  0  0
    7.0795   -8.9128   29.2901 O   0  0  0  0  0  0  0  0  0  0  0  0
    0.9695  -10.6065   15.1667 F   0  0  0  0  0  0  0  0  0  0  0  0
    1.4913  -10.0115   15.2751 C   0  0  0  0  0  0  0  0  0  0  0  0
    7.8593   -7.4758   26.5605 C   0  0  0  0  0  0  0  0  0  0  0  0
    3.0263   -5.2629   26.7704 F   0  0  0  0  0  0  0  0  0  0  0  0
    6.0762   -6.8819   27.2955 He  0  0  0  0  0  0  0  0  0  0  0  0
    5.0423   -5.1456   27.3328 He  0  0  0  0  0  0  0  0  0  0  0  0
   -1.2549   -5.8887   27.2459 He  0  0  0  0  0  0  0  0  0  0  0  0
    5.6973   -7.5181   26.3848 He  0  0  0  0  0  0  0  0  0  0  0  0
    6.6604   -5.0438   27.1900 He  0  0  0  0  0  0  0  0  0  0  0  0
    0.7899   -5.7307   26.7006 He  0  0  0  0  0  0  0  0  0  0  0  0
  1  3  2  0
  1 16  1  0
  1 20  2  0
  2  3  1  0
  2  4  4  0
  2  8  2  0
  2 13  1  0
  2 16  1  0
  3  9  3  0
  3 10  4  0
  3 13  3  0
  3 14  4  0
  3 21  4  0
  4  7  1  0
  4  9  4  0
  4 16  4  0
  4 17  2  0
  5  7  4  0
  5  9  1  0
  5 12  4  0
  5 15  4  0
  5 18  4  0
  5 19  3  0
  6 10  2  0
  6 11  3  0
  6 20  3  0
  7 10  4  0
  7 13  4  0
  7 15  3  0
  7 17  4  0
  7 21  3  0
  8 11  4  0
  8 14  4  0
  8 18  1  0
  9 12  4  0
  9 21  2  0
 10 15  4  0
 10 17  2  0
 11 20  3  0
 12 14  2  0
 12 18  4  0
 13 15  4  0
 13 21  4  0
 13 22  1  0
 14 16  1  0
 14 18  2  0
 14 20  2  0
 14 22  4  0
 15 20  1  0
 16 21  3  0
 17 18  2  0
 17 20  1  0
 17 22  1  0
 18 20  1  0
 19 20  4  0
 21 22  1  0
M  END
$$$$

 Created by Python create_sdf_string function

 28 28  0  0  0  0  0  0  0  0999 V2000
    5.1517   -6.8533   26.9764 C   0  0  0  0  0  0  0  0  0  0  0  0
    2.5424   -5.6275   27.4143 C   0  0  0  0  0  0  0  0  0  0  0  0
    0.1875  -10.4535   15.3203 C   0  0  0  0  0  0  0  0  0  0  0  0
    4.7547   -5.0227   27.4136 C   0  0  0  0  0  0  0  0  0  0  0  0
    1.6029   -3.1830   26.5421 C   0  0  0  0  0  0  0  0  0  0  0  0
    1.8720  -11.6452   13.5686 C   0  0  0  0  0  0  0  0  0  0  0  0
    9.3622   -6.5972   27.7035 C   0  0  0  0  0  0  0  0  0  0  0  0
    0.6947   -4.1551   26.7165 C   0  0  0  0  0  0  0  0  0  0  0  0
   -0.9359  -11.4930   13.5649 C   0  0  0  0  0  0  0  0  0  0  0  0
   -0.9096   -6.1723   27.5183 O   0  0  0  0  0  0  0  0  0  0  0  0
    0.2829   -6.5206   27.5356 C   0  0  0  0  0  0  0  0  0  0  0  0
    3.1186  -11.8128   13.4452 C   0  0  0  0  0  0  0  0  0  0  0  0
   -0.2049  -11.0656   14.2430 C   0  0  0  0  0  0  0  0  0  0  0  0
    0.7665   -7.6720   27.8208 O   0  0  0  0  0  0  0  0  0  0  0  0
    9.0324   -7.8303   27.9989 C   0  0  0  0  0  0  0  0  0  0  0  0
    7.0791   -5.9837   27.3866 C   0  0  0  0  0  0  0  0  0  0  0  0
    2.9691   -3.5369   26.8828 C   0  0  0  0  0  0  0  0  0  0  0  0
    8.2972   -5.5556   27.4346 C   0  0  0  0  0  0  0  0  0  0  0  0
    0.4262   -9.7322   16.6772 C   0  0  0  0  0  0  0  0  0  0  0  0
    0.8687  -12.0553   12.8601 C   0  0  0  0  0  0  0  0  0  0  0  0
    7.7872   -8.4189   28.0789 C   0  0  0  0  0  0  0  0  0  0  0  0
    5.5975   -7.5925   26.9912 N   0  0  0  0  0  0  0  0  0  0  0  0
    1.3803  -10.4043   15.3345 C   0  0  0  0  0  0  0  0  0  0  0  0
    1.9692  -10.3133   15.5791 C   0  0  0  0  0  0  0  0  0  0  0  0
    5.8467   -5.1812   27.2528 C   0  0  0  0  0  0  0  0  0  0  0  0
    6.9352   -7.4314   27.4520 C   0  0  0  0  0  0  0  0  0  0  0  0
    1.1152   -5.4174   27.2298 C   0  0  0  0  0  0  0  0  0  0  0  0
    3.2602   -4.7277   27.2421 C   0  0  0  0  0  0  0  0  0  0  0  0
  1 22  4  0
  2 27  4  0
  2 28  4  0
  3 13  4  0
  3 19  1  0
  3 23  4  0
  4 25  1  0
  4 28  1  0
  5  8  4  0
  5 17  4  0
  6 12  1  0
  6 20  4  0
  7 15  4  0
  7 18  4  0
  8 27  4  0
  9 13  4  0
  9 20  4  0
 10 11  1  0
 11 14  2  0
 11 27  1  0
 15 21  4  0
 16 18  4  0
 16 25  4  0
 16 26  4  0
 17 28  4  0
 21 26  4  0
 22 26  4  0
 23 24  4  0
M  END
$$$$

 Created by Python create_sdf_string function

 28 52  0  0  0  0  0  0  0  0999 V2000
    0.3361   -9.9572   14.4043 C   0  0  0  0  0  0  0  0  0  0  0  0
    5.0410   -5.1058   27.3378 C   0  0  0  0  0  0  0  0  0  0  0  0
    1.6819  -11.1038   13.7693 C   0  0  0  0  0  0  0  0  0  0  0  0
    9.5882   -6.9583   27.3936 C   0  0  0  0  0  0  0  0  0  0  0  0
    0.4558   -3.9393   27.2186 C   0  0  0  0  0  0  0  0  0  0  0  0
   -0.2693  -11.3103   14.6002 C   0  0  0  0  0  0  0  0  0  0  0  0
   -1.1716   -6.4490   27.8201 O   0  0  0  0  0  0  0  0  0  0  0  0
    3.9080  -12.0608   13.5777 C   0  0  0  0  0  0  0  0  0  0  0  0
   -0.1596  -12.2054   13.5276 C   0  0  0  0  0  0  0  0  0  0  0  0
    1.0352   -7.3987   27.5659 O   0  0  0  0  0  0  0  0  0  0  0  0
    9.3674   -8.1581   27.7175 N   0  0  0  0  0  0  0  0  0  0  0  0
    3.0426   -4.4149   26.8131 O   0  0  0  0  0  0  0  0  0  0  0  0
    7.6321   -5.9811   27.9656 C   0  0  0  0  0  0  0  0  0  0  0  0
    0.0939  -10.1738   16.7873 C   0  0  0  0  0  0  0  0  0  0  0  0
    0.6865  -13.2064   13.2573 C   0  0  0  0  0  0  0  0  0  0  0  0
    8.9223   -7.6740   28.1774 C   0  0  0  0  0  0  0  0  0  0  0  0
    6.8747   -7.5230   27.2187 N   0  0  0  0  0  0  0  0  0  0  0  0
    1.0517  -10.3088   15.3034 C   0  0  0  0  0  0  0  0  0  0  0  0
    2.3901  -10.7902   15.5022 C   0  0  0  0  0  0  0  0  0  0  0  0
    5.9149   -4.4756   26.9676 Cl  0  0  0  0  0  0  0  0  0  0  0  0
    7.0306   -6.4749   27.7027 C   0  0  0  0  0  0  0  0  0  0  0  0
    0.8268   -5.5206   27.9399 C   0  0  0  0  0  0  0  0  0  0  0  0
    3.6080   -5.1289   27.6195 C   0  0  0  0  0  0  0  0  0  0  0  0
    5.2101   -7.2377   27.6135 He  0  0  0  0  0  0  0  0  0  0  0  0
    3.1455   -5.6287   27.2561 He  0  0  0  0  0  0  0  0  0  0  0  0
    1.5420   -2.4802   25.5437 He  0  0  0  0  0  0  0  0  0  0  0  0
   -0.1246   -5.4628   27.7865 He  0  0  0  0  0  0  0  0  0  0  0  0
    6.5364   -5.8280   28.2903 He  0  0  0  0  0  0  0  0  0  0  0  0
  1  3  3  0
  1  6  3  0
  1  9  4  0
  1 12  2  0
  1 14  1  0
  1 17  3  0
  1 18  4  0
  2  5  3  0
  2  9  1  0
  2 10  2  0
  2 12  2  0
  2 19  2  0
  3  8  1  0
  3 10  2  0
  3 14  2  0
  3 15  1  0
  3 20  2  0
  3 21  4  0
  3 22  3  0
  4 10  3  0
  4 11  4  0
  4 14  1  0
  4 17  3  0
  5  9  4  0
  5 10  4  0
  5 16  3  0
  5 20  3  0
  5 22  4  0
  5 23  4  0
  6  7  3  0
  6  9  4  0
  6 10  1  0
  8 12  2  0
  9 20  1  0
  9 23  2  0
 10 13  3  0
 10 21  1  0
 12 15  3  0
 12 23  4  0
 14 19  1  0
 14 20  3  0
 14 22  1  0
 15 16  4  0
 15 19  2  0
 15 23  3  0
 16 21  2  0
 16 23  4  0
 17 21  4  0
 18 23  3  0
 19 21  4  0
 20 22  2  0
 22 23  2  0
M  END
$$$$

 Created by Python create_sdf_string function

 28 28  0  0  0  0  0  0  0  0999 V2000
    4.9657   -6.9804   27.2585 C   0  0  0  0  0  0  0  0  0  0  0  0
    2.4553   -5.7369   27.4896 C   0  0  0  0  0  0  0  0  0  0  0  0
    0.4707  -10.7489   14.9735 C   0  0  0  0  0  0  0  0  0  0  0  0
    4.7920   -5.5005   27.3055 C   0  0  0  0  0  0  0  0  0  0  0  0
    1.8848   -3.1206   26.6190 C   0  0  0  0  0  0  0  0  0  0  0  0
    2.1618  -11.8464   13.8179 C   0  0  0  0  0  0  0  0  0  0  0  0
    9.4137   -6.4635   27.9510 C   0  0  0  0  0  0  0  0  0  0  0  0
    0.8222   -3.9245   26.9273 C   0  0  0  0  0  0  0  0  0  0  0  0
   -0.5285  -11.1261   14.5277 C   0  0  0  0  0  0  0  0  0  0  0  0
   -1.0874   -5.8759   27.9897 O   0  0  0  0  0  0  0  0  0  0  0  0
    0.1351   -6.2428   27.7591 N   0  0  0  0  0  0  0  0  0  0  0  0
    3.4834  -11.8930   13.6629 C   0  0  0  0  0  0  0  0  0  0  0  0
   -0.0497  -12.1118   13.5982 C   0  0  0  0  0  0  0  0  0  0  0  0
    0.5059   -7.5282   27.8716 O   0  0  0  0  0  0  0  0  0  0  0  0
    9.4622   -7.9972   27.7849 C   0  0  0  0  0  0  0  0  0  0  0  0
    7.2176   -5.5901   27.6087 C   0  0  0  0  0  0  0  0  0  0  0  0
    3.2121   -3.6493   26.7722 C   0  0  0  0  0  0  0  0  0  0  0  0
    8.2967   -5.4601   27.7934 C   0  0  0  0  0  0  0  0  0  0  0  0
    0.3211   -9.6819   16.5015 C   0  0  0  0  0  0  0  0  0  0  0  0
    1.1479  -12.4828   13.1662 C   0  0  0  0  0  0  0  0  0  0  0  0
    8.5412   -7.8888   27.6501 C   0  0  0  0  0  0  0  0  0  0  0  0
    6.1976   -7.7207   27.4273 N   0  0  0  0  0  0  0  0  0  0  0  0
    1.2416  -10.4075   15.4096 C   0  0  0  0  0  0  0  0  0  0  0  0
    2.4711  -10.3258   15.3492 C   0  0  0  0  0  0  0  0  0  0  0  0
    5.8761   -4.7581   27.5305 C   0  0  0  0  0  0  0  0  0  0  0  0
    7.1355   -7.0023   27.5253 C   0  0  0  0  0  0  0  0  0  0  0  0
    1.1503   -5.2769   27.3998 C   0  0  0  0  0  0  0  0  0  0  0  0
    3.4624   -4.9037   27.1988 C   0  0  0  0  0  0  0  0  0  0  0  0
  1  4  4  0
  1 22  4  0
  2 27  4  0
  2 28  4  0
  3  9  4  0
  3 23  4  0
  4 25  4  0
  4 28  1  0
  5  8  4  0
  5 17  4  0
  6 12  1  0
  6 20  4  0
  7 15  4  0
  7 18  4  0
  8 27  4  0
  9 13  4  0
 10 11  1  0
 11 14  2  0
 11 27  1  0
 13 20  4  0
 15 21  4  0
 16 18  4  0
 16 25  4  0
 16 26  4  0
 17 28  4  0
 21 26  4  0
 22 26  4  0
 23 24  1  0
M  END
$$$$

 Created by Python create_sdf_string function

 28 52  0  0  0  0  0  0  0  0999 V2000
    5.9852   -7.3455   27.7126 C   0  0  0  0  0  0  0  0  0  0  0  0
    2.4675   -5.2383   27.1647 C   0  0  0  0  0  0  0  0  0  0  0  0
    0.2058  -10.7378   14.0069 C   0  0  0  0  0  0  0  0  0  0  0  0
    5.4183   -4.8422   26.7001 C   0  0  0  0  0  0  0  0  0  0  0  0
    1.6302   -2.8608   26.0683 O   0  0  0  0  0  0  0  0  0  0  0  0
    9.4754   -7.1826   27.8718 C   0  0  0  0  0  0  0  0  0  0  0  0
    0.9807   -3.9319   27.8926 C   0  0  0  0  0  0  0  0  0  0  0  0
   -0.7634  -10.4475   14.3556 C   0  0  0  0  0  0  0  0  0  0  0  0
   -1.4100   -5.1079   27.6942 O   0  0  0  0  0  0  0  0  0  0  0  0
    2.0757   -7.6011   29.0704 P   0  0  0  0  0  0  0  0  0  0  0  0
    9.5463   -7.8365   28.3460 F   0  0  0  0  0  0  0  0  0  0  0  0
    3.5455   -3.7893   26.8757 C   0  0  0  0  0  0  0  0  0  0  0  0
    0.2521   -8.8969   16.2639 C   0  0  0  0  0  0  0  0  0  0  0  0
    1.2376  -12.1127   13.5558 C   0  0  0  0  0  0  0  0  0  0  0  0
    9.0128   -7.9631   27.5212 C   0  0  0  0  0  0  0  0  0  0  0  0
    5.5203   -7.9068   26.8081 N   0  0  0  0  0  0  0  0  0  0  0  0
    1.4813  -10.8267   15.3172 C   0  0  0  0  0  0  0  0  0  0  0  0
    2.1544  -10.5578   16.1046 C   0  0  0  0  0  0  0  0  0  0  0  0
    4.9415   -4.6243   26.8546 C   0  0  0  0  0  0  0  0  0  0  0  0
    2.9988   -4.8324   26.3687 C   0  0  0  0  0  0  0  0  0  0  0  0
    2.4712  -12.8437   13.5725 He  0  0  0  0  0  0  0  0  0  0  0  0
   -0.4947   -6.4329   27.3922 He  0  0  0  0  0  0  0  0  0  0  0  0
    3.1259  -12.4800   12.9608 He  0  0  0  0  0  0  0  0  0  0  0  0
   -0.8742  -11.1884   12.6345 He  0  0  0  0  0  0  0  0  0  0  0  0
    7.5339   -5.7155   27.7745 He  0  0  0  0  0  0  0  0  0  0  0  0
    9.0730   -5.3255   27.6615 He  0  0  0  0  0  0  0  0  0  0  0  0
    6.7728   -7.3416   27.2977 He  0  0  0  0  0  0  0  0  0  0  0  0
    1.4918   -5.2530   27.1163 He  0  0  0  0  0  0  0  0  0  0  0  0
  1  4  4  0
  1  7  4  0
  1  9  1  0
  1 10  1  0
  1 12  3  0
  1 16  4  0
  2  3  4  0
  2  7  3  0
  2 11  2  0
  2 12  3  0
  2 13  3  0
  2 15  1  0
  2 17  4  0
  2 19  1  0
  3  8  1  0
  3 14  1  0
  3 17  2  0
  3 18  4  0
  3 20  3  0
  4 11  3  0
  4 12  4  0
  4 19  4  0
  4 20  2  0
  5  7  4  0
  5  9  4  0
  5 10  3  0
  5 12  4  0
  5 13  3  0
  5 14  1  0
  5 17  2  0
  6 10  3  0
  6 11  1  0
  6 15  3  0
  7 12  4  0
  7 15  4  0
  7 18  3  0
  8 16  3  0
  8 18  3  0
  8 20  2  0
 10 14  2  0
 11 14  2  0
 11 15  2  0
 11 16  3  0
 12 16  2  0
 12 20  4  0
 13 15  2  0
 13 18  3  0
 15 17  4  0
 15 18  3  0
 15 20  4  0
 16 19  3  0
 19 20  3  0
M  END
$$$$

 Created by Python create_sdf_string function

 28 29  0  0  0  0  0  0  0  0999 V2000
    5.4684   -7.2049   27.0657 C   0  0  0  0  0  0  0  0  0  0  0  0
    2.7003   -5.7404   27.4238 C   0  0  0  0  0  0  0  0  0  0  0  0
    0.5226  -10.9477   14.3199 C   0  0  0  0  0  0  0  0  0  0  0  0
    5.2875   -5.4682   27.1677 C   0  0  0  0  0  0  0  0  0  0  0  0
    1.9542   -3.1247   26.6846 C   0  0  0  0  0  0  0  0  0  0  0  0
    2.2335  -12.4651   13.4592 C   0  0  0  0  0  0  0  0  0  0  0  0
    9.3362   -6.9517   27.8272 C   0  0  0  0  0  0  0  0  0  0  0  0
    0.9590   -3.9690   26.9887 C   0  0  0  0  0  0  0  0  0  0  0  0
   -0.5679  -10.1957   14.4382 C   0  0  0  0  0  0  0  0  0  0  0  0
   -1.0384   -5.7629   27.6986 O   0  0  0  0  0  0  0  0  0  0  0  0
    0.3529   -6.1969   27.8299 N   0  0  0  0  0  0  0  0  0  0  0  0
    3.0749  -12.5774   13.1764 C   0  0  0  0  0  0  0  0  0  0  0  0
   -0.5477  -11.2046   13.2092 C   0  0  0  0  0  0  0  0  0  0  0  0
    0.9483   -7.5070   28.3154 O   0  0  0  0  0  0  0  0  0  0  0  0
    9.9412   -7.5033   27.9809 C   0  0  0  0  0  0  0  0  0  0  0  0
    7.4911   -5.7042   27.5015 C   0  0  0  0  0  0  0  0  0  0  0  0
    3.2720   -3.6792   26.7850 C   0  0  0  0  0  0  0  0  0  0  0  0
    8.7391   -5.6143   27.7029 C   0  0  0  0  0  0  0  0  0  0  0  0
    0.2085   -9.3658   15.9790 C   0  0  0  0  0  0  0  0  0  0  0  0
    0.9720  -11.9162   13.3890 C   0  0  0  0  0  0  0  0  0  0  0  0
    8.1204   -7.9076   27.6168 C   0  0  0  0  0  0  0  0  0  0  0  0
    5.3776   -7.3411   27.1890 N   0  0  0  0  0  0  0  0  0  0  0  0
    1.7010  -10.7762   15.1866 C   0  0  0  0  0  0  0  0  0  0  0  0
    1.4291  -10.0846   15.9095 C   0  0  0  0  0  0  0  0  0  0  0  0
    5.5586   -5.2661   27.2413 C   0  0  0  0  0  0  0  0  0  0  0  0
    7.1686   -7.1909   27.3807 C   0  0  0  0  0  0  0  0  0  0  0  0
    1.3035   -5.2308   27.3998 C   0  0  0  0  0  0  0  0  0  0  0  0
    3.5060   -4.9041   27.1411 C   0  0  0  0  0  0  0  0  0  0  0  0
  1  4  4  0
  1 22  4  0
  2 27  4  0
  2 28  4  0
  3  9  1  0
  3 20  1  0
  3 23  4  0
  4 25  4  0
  5  8  4  0
  5 17  4  0
  6 12  1  0
  6 20  1  0
  7 15  1  0
  7 18  4  0
  7 21  4  0
  8 27  4  0
  9 13  4  0
  9 19  4  0
 10 11  2  0
 11 14  2  0
 11 27  1  0
 13 20  4  0
 16 18  4  0
 16 25  4  0
 16 26  4  0
 17 28  4  0
 19 24  1  0
 21 26  4  0
 23 24  4  0
M  END
$$$$

 Created by Python create_sdf_string function

 28 38  0  0  0  0  0  0  0  0999 V2000
    5.8159   -7.4124   26.9677 C   0  0  0  0  0  0  0  0  0  0  0  0
    2.2299   -5.2099   26.5095 C   0  0  0  0  0  0  0  0  0  0  0  0
    0.6598  -10.2455   14.5157 C   0  0  0  0  0  0  0  0  0  0  0  0
    5.7892   -5.4662   26.9968 C   0  0  0  0  0  0  0  0  0  0  0  0
    1.4566   -3.8092   26.3219 C   0  0  0  0  0  0  0  0  0  0  0  0
    9.1825   -7.0420   28.2870 C   0  0  0  0  0  0  0  0  0  0  0  0
    0.4381   -3.7081   26.8107 C   0  0  0  0  0  0  0  0  0  0  0  0
   -1.0316   -5.6356   28.0618 O   0  0  0  0  0  0  0  0  0  0  0  0
    3.5432  -11.7907   13.3149 C   0  0  0  0  0  0  0  0  0  0  0  0
   -0.2712  -11.0192   12.9009 C   0  0  0  0  0  0  0  0  0  0  0  0
    0.6717   -7.1612   27.6621 O   0  0  0  0  0  0  0  0  0  0  0  0
   10.4384   -7.6715   27.3486 F   0  0  0  0  0  0  0  0  0  0  0  0
    3.7708   -3.6695   25.7777 Br  0  0  0  0  0  0  0  0  0  0  0  0
    8.3038   -5.3088   27.2703 C   0  0  0  0  0  0  0  0  0  0  0  0
   -0.0140   -9.0407   15.6372 C   0  0  0  0  0  0  0  0  0  0  0  0
    8.7672   -8.0030   27.8952 Se  0  0  0  0  0  0  0  0  0  0  0  0
    5.3345   -6.9263   26.9820 Cl  0  0  0  0  0  0  0  0  0  0  0  0
    1.9127  -10.0994   15.6770 C   0  0  0  0  0  0  0  0  0  0  0  0
    5.5214   -5.0977   26.6280 C   0  0  0  0  0  0  0  0  0  0  0  0
    1.3146   -5.2422   26.5912 F   0  0  0  0  0  0  0  0  0  0  0  0
    3.6017   -5.5510   26.3525 C   0  0  0  0  0  0  0  0  0  0  0  0
    2.0441  -11.9945   13.7625 He  0  0  0  0  0  0  0  0  0  0  0  0
   -0.1379  -10.9612   14.3300 He  0  0  0  0  0  0  0  0  0  0  0  0
    0.4757   -6.0730   28.2572 He  0  0  0  0  0  0  0  0  0  0  0  0
    7.8952   -6.1441   27.5919 He  0  0  0  0  0  0  0  0  0  0  0  0
    1.3005  -12.4388   13.9472 He  0  0  0  0  0  0  0  0  0  0  0  0
    1.2925  -10.4378   14.9855 He  0  0  0  0  0  0  0  0  0  0  0  0
    7.9688   -7.4821   27.6248 He  0  0  0  0  0  0  0  0  0  0  0  0
  1  6  1  0
  1 15  3  0
  1 17  4  0
  1 21  1  0
  2  8  4  0
  2 11  1  0
  2 13  2  0
  2 15  1  0
  2 16  3  0
  2 19  3  0
  2 20  3  0
  3  4  4  0
  3  7  3  0
  3 13  1  0
  3 21  4  0
  4  5  3  0
  4 13  3  0
  4 15  4  0
  5  8  3  0
  5 11  4  0
  5 13  4  0
  5 14  1  0
  6 13  2  0
  6 16  4  0
  7 16  3  0
  7 20  4  0
  8 15  3  0
  8 17  3  0
  9 11  3  0
  9 15  1  0
  9 18  1  0
 11 15  3  0
 11 18  1  0
 13 21  4  0
 14 17  2  0
 15 16  1  0
 15 20  4  0
 18 21  1  0
M  END
$$$$

 Created by Python create_sdf_string function

 28 30  0  0  0  0  0  0  0  0999 V2000
    6.1227   -7.8484   27.1812 C   0  0  0  0  0  0  0  0  0  0  0  0
    2.4270   -5.9804   26.9970 C   0  0  0  0  0  0  0  0  0  0  0  0
    0.4476  -10.4177   14.6735 C   0  0  0  0  0  0  0  0  0  0  0  0
    5.0844   -5.7360   27.0312 C   0  0  0  0  0  0  0  0  0  0  0  0
    2.0647   -3.2140   26.5476 C   0  0  0  0  0  0  0  0  0  0  0  0
    2.2633  -11.8261   13.7996 C   0  0  0  0  0  0  0  0  0  0  0  0
    9.5322   -6.9133   27.7996 C   0  0  0  0  0  0  0  0  0  0  0  0
    0.9750   -3.9590   26.8661 C   0  0  0  0  0  0  0  0  0  0  0  0
   -0.4807  -10.3691   14.3080 C   0  0  0  0  0  0  0  0  0  0  0  0
   -1.0320   -5.6623   28.0115 O   0  0  0  0  0  0  0  0  0  0  0  0
    0.2043   -6.1441   27.7486 C   0  0  0  0  0  0  0  0  0  0  0  0
    3.5013  -11.8958   13.6159 C   0  0  0  0  0  0  0  0  0  0  0  0
   -0.2321  -11.4806   13.3519 C   0  0  0  0  0  0  0  0  0  0  0  0
    0.4402   -7.4716   28.0997 O   0  0  0  0  0  0  0  0  0  0  0  0
   10.1628   -7.6426   27.5607 C   0  0  0  0  0  0  0  0  0  0  0  0
    7.4871   -6.0886   27.4237 C   0  0  0  0  0  0  0  0  0  0  0  0
    3.3728   -3.7851   26.6405 C   0  0  0  0  0  0  0  0  0  0  0  0
    8.7574   -5.7402   27.6557 C   0  0  0  0  0  0  0  0  0  0  0  0
    0.1041   -9.2556   15.7334 C   0  0  0  0  0  0  0  0  0  0  0  0
    1.2417  -12.1143   13.4306 C   0  0  0  0  0  0  0  0  0  0  0  0
    8.4884   -8.1218   27.9142 C   0  0  0  0  0  0  0  0  0  0  0  0
    5.0955   -7.0463   26.9990 C   0  0  0  0  0  0  0  0  0  0  0  0
    1.7082  -10.5483   14.9389 C   0  0  0  0  0  0  0  0  0  0  0  0
    1.9142   -9.8184   15.5982 C   0  0  0  0  0  0  0  0  0  0  0  0
    5.9575   -5.1612   27.0784 C   0  0  0  0  0  0  0  0  0  0  0  0
    7.3206   -7.4702   27.4652 C   0  0  0  0  0  0  0  0  0  0  0  0
    1.1983   -5.2769   27.1772 C   0  0  0  0  0  0  0  0  0  0  0  0
    3.4809   -5.0695   26.8647 C   0  0  0  0  0  0  0  0  0  0  0  0
  1 22  4  0
  1 26  4  0
  2 27  4  0
  2 28  4  0
  3  9  4  0
  3 23  4  0
  4 22  4  0
  4 25  4  0
  4 28  1  0
  5  8  4  0
  5 17  4  0
  6 12  1  0
  6 20  1  0
  7 15  1  0
  7 18  4  0
  7 21  4  0
  8 27  4  0
  9 13  4  0
  9 19  4  0
 10 11  1  0
 11 14  2  0
 11 27  1  0
 13 20  4  0
 16 18  4  0
 16 25  4  0
 16 26  4  0
 17 28  4  0
 19 24  4  0
 21 26  4  0
 23 24  4  0
M  END
$$$$

 Created by Python create_sdf_string function

 28 59  0  0  0  0  0  0  0  0999 V2000
    5.7043   -8.4310   26.6809 I   0  0  0  0  0  0  0  0  0  0  0  0
    2.3845   -6.0937   26.7887 P   0  0  0  0  0  0  0  0  0  0  0  0
   -0.3382  -10.8693   14.3936 S   0  0  0  0  0  0  0  0  0  0  0  0
    1.8748   -2.7556   26.7419 C   0  0  0  0  0  0  0  0  0  0  0  0
    2.5572  -11.9773   14.1765 C   0  0  0  0  0  0  0  0  0  0  0  0
    9.7383   -7.0386   28.1300 C   0  0  0  0  0  0  0  0  0  0  0  0
    1.5286   -4.3261   26.6401 C   0  0  0  0  0  0  0  0  0  0  0  0
   -0.6739  -10.0811   14.8280 C   0  0  0  0  0  0  0  0  0  0  0  0
   -0.5120   -6.1561   27.3163 C   0  0  0  0  0  0  0  0  0  0  0  0
    0.2351   -7.3252   28.1987 C   0  0  0  0  0  0  0  0  0  0  0  0
   10.3739   -7.5997   27.1625 C   0  0  0  0  0  0  0  0  0  0  0  0
    2.6684   -3.8377   26.1607 C   0  0  0  0  0  0  0  0  0  0  0  0
    8.8384   -6.0197   26.6756 C   0  0  0  0  0  0  0  0  0  0  0  0
    0.2937   -9.2982   16.2119 C   0  0  0  0  0  0  0  0  0  0  0  0
    7.4677   -7.8724   28.1914 C   0  0  0  0  0  0  0  0  0  0  0  0
    5.3912   -8.2047   27.3603 N   0  0  0  0  0  0  0  0  0  0  0  0
    1.6485  -10.5575   15.2481 C   0  0  0  0  0  0  0  0  0  0  0  0
    1.6866  -10.5853   15.4792 C   0  0  0  0  0  0  0  0  0  0  0  0
    4.8883   -5.8397   27.8069 C   0  0  0  0  0  0  0  0  0  0  0  0
    6.7761   -6.8695   28.2078 C   0  0  0  0  0  0  0  0  0  0  0  0
    1.2922   -4.9222   26.8313 C   0  0  0  0  0  0  0  0  0  0  0  0
    3.1543   -5.1035   26.7713 C   0  0  0  0  0  0  0  0  0  0  0  0
    5.4990   -5.6453   27.2624 He  0  0  0  0  0  0  0  0  0  0  0  0
   -0.9349   -5.2008   27.2341 He  0  0  0  0  0  0  0  0  0  0  0  0
    3.9722  -12.5278   12.9459 He  0  0  0  0  0  0  0  0  0  0  0  0
   -0.1520  -11.7311   12.0170 He  0  0  0  0  0  0  0  0  0  0  0  0
    7.4465   -6.6330   27.5910 He  0  0  0  0  0  0  0  0  0  0  0  0
    1.5539  -11.4036   13.5897 He  0  0  0  0  0  0  0  0  0  0  0  0
  1  5  3  0
  1  8  2  0
  1 11  2  0
  1 12  4  0
  1 13  2  0
  1 16  4  0
  2  7  3  0
  2 11  3  0
  2 13  1  0
  2 15  3  0
  2 20  4  0
  2 22  1  0
  3  5  4  0
  3  9  4  0
  3 11  3  0
  3 15  2  0
  4  7  4  0
  4 11  2  0
  4 12  4  0
  4 17  2  0
  4 19  3  0
  5  6  1  0
  5  9  2  0
  5 11  1  0
  5 13  3  0
  5 16  3  0
  5 19  1  0
  5 21  3  0
  6 12  2  0
  6 15  1  0
  6 16  3  0
  6 18  3  0
  6 19  2  0
  7 10  1  0
  7 11  4  0
  7 16  3  0
  7 20  3  0
  7 21  4  0
  8 11  3  0
  8 19  1  0
  9 10  2  0
  9 11  4  0
  9 21  1  0
  9 22  4  0
 10 11  1  0
 10 19  4  0
 11 20  1  0
 13 22  4  0
 14 15  4  0
 14 18  4  0
 14 21  1  0
 16 18  1  0
 16 19  2  0
 17 18  4  0
 18 19  1  0
 18 21  3  0
 18 22  2  0
 20 22  1  0
 21 22  2  0
M  END
$$$$

 Created by Python create_sdf_string function

 28 27  0  0  0  0  0  0  0  0999 V2000
    5.8550   -8.2218   26.9933 N   0  0  0  0  0  0  0  0  0  0  0  0
    2.2305   -5.9888   27.0448 C   0  0  0  0  0  0  0  0  0  0  0  0
    0.0432  -10.6410   14.2952 C   0  0  0  0  0  0  0  0  0  0  0  0
    4.6232   -6.0286   27.1648 C   0  0  0  0  0  0  0  0  0  0  0  0
    2.1243   -3.1758   26.6722 C   0  0  0  0  0  0  0  0  0  0  0  0
    2.2505  -11.5627   13.9535 C   0  0  0  0  0  0  0  0  0  0  0  0
    9.2835   -7.3554   27.8619 C   0  0  0  0  0  0  0  0  0  0  0  0
    0.9328   -3.9830   26.8116 C   0  0  0  0  0  0  0  0  0  0  0  0
   -0.6057  -10.0761   14.8759 C   0  0  0  0  0  0  0  0  0  0  0  0
   -1.2460   -5.5004   27.1773 O   0  0  0  0  0  0  0  0  0  0  0  0
   -0.0455   -6.0109   27.4592 C   0  0  0  0  0  0  0  0  0  0  0  0
    3.2854  -12.2405   13.3303 Cl  0  0  0  0  0  0  0  0  0  0  0  0
    0.3701  -11.9218   12.4147 Cl  0  0  0  0  0  0  0  0  0  0  0  0
    0.0561   -7.1062   28.1255 O   0  0  0  0  0  0  0  0  0  0  0  0
   10.2285   -7.5899   27.2053 C   0  0  0  0  0  0  0  0  0  0  0  0
    6.8876   -6.4881   27.6144 C   0  0  0  0  0  0  0  0  0  0  0  0
    3.3668   -3.8523   26.8710 C   0  0  0  0  0  0  0  0  0  0  0  0
    8.8255   -5.9149   27.5057 C   0  0  0  0  0  0  0  0  0  0  0  0
    0.3756   -9.6094   16.0504 C   0  0  0  0  0  0  0  0  0  0  0  0
    1.3290  -11.7243   13.2672 C   0  0  0  0  0  0  0  0  0  0  0  0
    8.0493   -7.8623   28.1179 C   0  0  0  0  0  0  0  0  0  0  0  0
    4.6752   -7.4670   26.8941 N   0  0  0  0  0  0  0  0  0  0  0  0
    1.9514  -10.7979   15.0351 C   0  0  0  0  0  0  0  0  0  0  0  0
    1.5910  -10.1441   15.8429 C   0  0  0  0  0  0  0  0  0  0  0  0
    5.6391   -5.9800   27.3881 C   0  0  0  0  0  0  0  0  0  0  0  0
    6.7882   -7.2990   27.4115 C   0  0  0  0  0  0  0  0  0  0  0  0
    1.0594   -5.2512   27.0809 C   0  0  0  0  0  0  0  0  0  0  0  0
    3.3863   -5.2209   27.0355 C   0  0  0  0  0  0  0  0  0  0  0  0
  1 22  4  0
  1 26  4  0
  2 27  4  0
  2 28  4  0
  3  9  4  0
  4 22  4  0
  4 25  4  0
  4 28  1  0
  5  8  4  0
  5 17  4  0
  6 12  1  0
  6 20  1  0
  6 23  4  0
  7 15  1  0
  7 18  1  0
  7 21  1  0
  8 27  4  0
  9 19  4  0
 10 11  1  0
 11 14  2  0
 11 27  1  0
 13 20  1  0
 16 25  4  0
 16 26  4  0
 17 28  4  0
 19 24  4  0
 23 24  4  0
M  END
$$$$

 Created by Python create_sdf_string function

 28 45  0  0  0  0  0  0  0  0999 V2000
    6.3459   -8.8182   26.7487 N   0  0  0  0  0  0  0  0  0  0  0  0
   -0.6541  -10.3670   14.6326 C   0  0  0  0  0  0  0  0  0  0  0  0
    5.1737   -5.8566   27.9921 C   0  0  0  0  0  0  0  0  0  0  0  0
    2.2259   -3.5854   27.2446 C   0  0  0  0  0  0  0  0  0  0  0  0
    2.2279  -11.1799   13.8264 C   0  0  0  0  0  0  0  0  0  0  0  0
    1.5966   -3.7921   26.2738 C   0  0  0  0  0  0  0  0  0  0  0  0
   -0.7434  -10.4983   14.6939 C   0  0  0  0  0  0  0  0  0  0  0  0
   -0.4481   -5.8054   27.4562 O   0  0  0  0  0  0  0  0  0  0  0  0
    3.6168  -11.9397   13.5526 Cl  0  0  0  0  0  0  0  0  0  0  0  0
    0.8662  -12.1242   12.4133 Cl  0  0  0  0  0  0  0  0  0  0  0  0
   -0.4830   -7.5830   28.1548 O   0  0  0  0  0  0  0  0  0  0  0  0
   10.0406   -7.2988   26.9972 O   0  0  0  0  0  0  0  0  0  0  0  0
    7.3494   -6.9206   27.3276 C   0  0  0  0  0  0  0  0  0  0  0  0
    2.9140   -3.1506   26.9479 C   0  0  0  0  0  0  0  0  0  0  0  0
   -0.0155   -9.9117   16.4679 C   0  0  0  0  0  0  0  0  0  0  0  0
    1.8099  -11.9341   13.9975 C   0  0  0  0  0  0  0  0  0  0  0  0
    8.8203   -9.0227   27.4867 C   0  0  0  0  0  0  0  0  0  0  0  0
    2.2330  -10.4456   15.4261 C   0  0  0  0  0  0  0  0  0  0  0  0
    1.6167  -10.4036   15.8274 C   0  0  0  0  0  0  0  0  0  0  0  0
    5.9823   -6.4759   27.9197 O   0  0  0  0  0  0  0  0  0  0  0  0
    6.4600   -6.7391   26.8018 C   0  0  0  0  0  0  0  0  0  0  0  0
    3.2999   -4.9528   27.0691 N   0  0  0  0  0  0  0  0  0  0  0  0
    1.9256   -6.6827   27.5524 He  0  0  0  0  0  0  0  0  0  0  0  0
    9.7572   -7.5599   27.7247 He  0  0  0  0  0  0  0  0  0  0  0  0
   -0.2302   -5.7737   28.1204 He  0  0  0  0  0  0  0  0  0  0  0  0
    9.1154   -5.9981   27.8560 He  0  0  0  0  0  0  0  0  0  0  0  0
    4.9501   -7.9545   27.1497 He  0  0  0  0  0  0  0  0  0  0  0  0
    1.8914   -4.5383   26.6837 He  0  0  0  0  0  0  0  0  0  0  0  0
  1  3  3  0
  1  7  2  0
  1 11  2  0
  1 14  4  0
  1 21  3  0
  2  7  4  0
  2  9  4  0
  2 10  2  0
  2 11  2  0
  3  4  3  0
  3 20  4  0
  3 22  1  0
  4  9  1  0
  4 14  4  0
  4 21  1  0
  5  9  1  0
  5 13  2  0
  5 16  1  0
  5 18  2  0
  6 15  1  0
  6 17  4  0
  7 12  2  0
  7 15  2  0
  7 16  3  0
  7 18  1  0
  8 14  3  0
  8 17  4  0
  8 22  2  0
  9 11  2  0
  9 15  2  0
  9 16  3  0
 10 16  3  0
 10 22  3  0
 11 21  2  0
 12 13  4  0
 12 15  4  0
 12 21  4  0
 13 21  4  0
 14 22  1  0
 15 19  4  0
 15 21  3  0
 17 19  4  0
 17 21  4  0
 17 22  1  0
 18 19  4  0
M  END
$$$$

 Created by Python create_sdf_string function

 28 29  0  0  0  0  0  0  0  0999 V2000
    6.0571   -8.3547   26.8242 C   0  0  0  0  0  0  0  0  0  0  0  0
    2.3541   -6.1152   27.3690 C   0  0  0  0  0  0  0  0  0  0  0  0
   -0.0614  -10.9442   14.3685 C   0  0  0  0  0  0  0  0  0  0  0  0
    4.7443   -6.2392   27.3201 C   0  0  0  0  0  0  0  0  0  0  0  0
    2.4858   -3.2533   26.9171 C   0  0  0  0  0  0  0  0  0  0  0  0
    2.3232  -11.2547   14.1754 C   0  0  0  0  0  0  0  0  0  0  0  0
    9.4799   -7.2824   27.4360 C   0  0  0  0  0  0  0  0  0  0  0  0
    1.3207   -3.9360   26.9840 C   0  0  0  0  0  0  0  0  0  0  0  0
   -0.5191  -10.6619   14.7571 C   0  0  0  0  0  0  0  0  0  0  0  0
   -1.0898   -5.4374   27.1835 O   0  0  0  0  0  0  0  0  0  0  0  0
    0.0254   -5.9871   27.6176 N   0  0  0  0  0  0  0  0  0  0  0  0
    3.5331  -11.8318   13.3981 Cl  0  0  0  0  0  0  0  0  0  0  0  0
    0.6130  -12.2338   12.3532 Cl  0  0  0  0  0  0  0  0  0  0  0  0
    0.0384   -7.0717   28.2921 O   0  0  0  0  0  0  0  0  0  0  0  0
   10.4857   -7.4746   26.9460 O   0  0  0  0  0  0  0  0  0  0  0  0
    7.0645   -6.4261   27.6681 C   0  0  0  0  0  0  0  0  0  0  0  0
    3.6191   -4.0289   27.2368 C   0  0  0  0  0  0  0  0  0  0  0  0
    9.2656   -6.1000   27.9896 O   0  0  0  0  0  0  0  0  0  0  0  0
    0.2692   -9.9367   16.1115 C   0  0  0  0  0  0  0  0  0  0  0  0
    1.1208  -11.3752   13.6298 C   0  0  0  0  0  0  0  0  0  0  0  0
    8.3611   -8.2128   27.3754 C   0  0  0  0  0  0  0  0  0  0  0  0
    4.7960   -7.6198   26.9152 C   0  0  0  0  0  0  0  0  0  0  0  0
    2.4699  -10.5798   15.3420 C   0  0  0  0  0  0  0  0  0  0  0  0
    1.5932  -10.0384   16.0655 C   0  0  0  0  0  0  0  0  0  0  0  0
    5.9819   -5.7099   27.6830 C   0  0  0  0  0  0  0  0  0  0  0  0
    7.0990   -7.6889   27.2679 C   0  0  0  0  0  0  0  0  0  0  0  0
    1.2808   -5.3209   27.3044 C   0  0  0  0  0  0  0  0  0  0  0  0
    3.5940   -5.4486   27.3203 C   0  0  0  0  0  0  0  0  0  0  0  0
  1 22  4  0
  1 26  4  0
  2 27  4  0
  2 28  4  0
  3  9  4  0
  3 20  4  0
  4 22  4  0
  4 25  4  0
  4 28  1  0
  5  8  4  0
  5 17  4  0
  6 12  1  0
  6 20  4  0
  6 23  4  0
  7 15  2  0
  7 18  1  0
  7 21  1  0
  8 27  4  0
  9 19  4  0
 10 11  2  0
 11 14  2  0
 11 27  1  0
 13 20  1  0
 16 25  4  0
 16 26  4  0
 17 28  4  0
 19 24  4  0
 21 26  1  0
 23 24  4  0
M  END
$$$$

 Created by Python create_sdf_string function

 28 73  0  0  0  0  0  0  0  0999 V2000
    6.0849   -8.9133   26.7079 C   0  0  0  0  0  0  0  0  0  0  0  0
    1.3588   -6.4151   27.0822 F   0  0  0  0  0  0  0  0  0  0  0  0
    4.9893   -6.9743   27.7953 C   0  0  0  0  0  0  0  0  0  0  0  0
    1.7287   -3.2257   25.7789 C   0  0  0  0  0  0  0  0  0  0  0  0
    3.0613  -11.1024   13.9485 C   0  0  0  0  0  0  0  0  0  0  0  0
   10.0657   -7.4393   27.6569 C   0  0  0  0  0  0  0  0  0  0  0  0
    1.1974   -3.9757   27.6792 C   0  0  0  0  0  0  0  0  0  0  0  0
   -0.7391  -10.7394   15.4967 C   0  0  0  0  0  0  0  0  0  0  0  0
   -1.2113   -5.6963   26.9722 S   0  0  0  0  0  0  0  0  0  0  0  0
    0.1355   -5.3849   27.9598 N   0  0  0  0  0  0  0  0  0  0  0  0
    3.7692  -11.6396   13.1898 C   0  0  0  0  0  0  0  0  0  0  0  0
    1.0312  -12.5015   11.6022 N   0  0  0  0  0  0  0  0  0  0  0  0
   -0.0292   -6.8478   28.6559 O   0  0  0  0  0  0  0  0  0  0  0  0
    9.8839   -7.8569   26.3306 O   0  0  0  0  0  0  0  0  0  0  0  0
    6.2380   -6.4597   27.7366 C   0  0  0  0  0  0  0  0  0  0  0  0
    3.2917   -4.4416   28.2252 C   0  0  0  0  0  0  0  0  0  0  0  0
    9.3948   -6.4708   27.9054 O   0  0  0  0  0  0  0  0  0  0  0  0
    0.1380   -9.5158   15.4387 C   0  0  0  0  0  0  0  0  0  0  0  0
    0.7369  -11.5986   13.6305 C   0  0  0  0  0  0  0  0  0  0  0  0
    8.1582   -7.3864   27.4286 C   0  0  0  0  0  0  0  0  0  0  0  0
    5.6188   -7.7854   26.8735 C   0  0  0  0  0  0  0  0  0  0  0  0
    2.9742  -10.3816   15.1279 C   0  0  0  0  0  0  0  0  0  0  0  0
    5.5384   -5.6805   28.0934 C   0  0  0  0  0  0  0  0  0  0  0  0
    1.7424   -5.7482   27.3697 C   0  0  0  0  0  0  0  0  0  0  0  0
    2.8562   -5.5366   27.0588 C   0  0  0  0  0  0  0  0  0  0  0  0
    0.3250  -11.1775   14.1115 He  0  0  0  0  0  0  0  0  0  0  0  0
    1.7252   -9.5005   15.8094 He  0  0  0  0  0  0  0  0  0  0  0  0
    6.6737   -6.9763   27.9609 He  0  0  0  0  0  0  0  0  0  0  0  0
  1  5  4  0
  1  6  2  0
  1 11  2  0
  1 13  2  0
  1 23  4  0
  1 25  4  0
  2  3  3  0
  2  4  4  0
  2  9  3  0
  2 11  1  0
  2 18  2  0
  2 20  1  0
  2 22  1  0
  2 25  4  0
  3  6  4  0
  3 21  4  0
  3 24  4  0
  3 25  1  0
  4  7  4  0
  4 15  1  0
  4 16  2  0
  4 22  1  0
  4 24  1  0
  5  6  2  0
  5 10  2  0
  5 11  1  0
  5 13  3  0
  5 16  1  0
  5 19  4  0
  5 21  1  0
  5 23  3  0
  5 24  2  0
  6  8  3  0
  6 10  4  0
  6 17  1  0
  6 20  1  0
  6 21  4  0
  7 19  2  0
  8 12  3  0
  8 18  4  0
  8 20  1  0
  8 23  1  0
  8 25  1  0
  9 10  2  0
  9 21  3  0
  9 25  2  0
 10 12  4  0
 10 13  2  0
 10 18  1  0
 10 24  1  0
 11 19  4  0
 11 20  2  0
 11 23  1  0
 11 25  4  0
 12 19  1  0
 13 16  4  0
 13 17  1  0
 13 18  3  0
 13 23  3  0
 14 16  1  0
 14 19  4  0
 14 20  1  0
 14 21  3  0
 15 17  1  0
 15 23  4  0
 16 17  3  0
 16 23  3  0
 16 24  3  0
 16 25  4  0
 17 22  4  0
 17 25  3  0
 19 23  1  0
 19 25  3  0
M  END
$$$$

 Created by Python create_sdf_string function

 28 29  0  0  0  0  0  0  0  0999 V2000
    6.0994   -8.1232   26.8356 C   0  0  0  0  0  0  0  0  0  0  0  0
    2.0353   -6.3796   27.3134 C   0  0  0  0  0  0  0  0  0  0  0  0
   -0.0179  -11.3197   13.9719 C   0  0  0  0  0  0  0  0  0  0  0  0
    4.4994   -6.4097   27.3516 C   0  0  0  0  0  0  0  0  0  0  0  0
    2.2082   -3.5018   26.9450 C   0  0  0  0  0  0  0  0  0  0  0  0
    2.4503  -11.0593   13.9575 C   0  0  0  0  0  0  0  0  0  0  0  0
    9.5036   -7.3958   27.4789 C   0  0  0  0  0  0  0  0  0  0  0  0
    1.1059   -4.0297   27.0792 C   0  0  0  0  0  0  0  0  0  0  0  0
   -0.3793  -10.5453   14.9498 C   0  0  0  0  0  0  0  0  0  0  0  0
   -1.3926   -5.5971   27.1695 O   0  0  0  0  0  0  0  0  0  0  0  0
   -0.2977   -6.0100   27.8112 N   0  0  0  0  0  0  0  0  0  0  0  0
    3.5875  -11.5566   13.2829 C   0  0  0  0  0  0  0  0  0  0  0  0
    1.1880  -12.3769   12.1783 N   0  0  0  0  0  0  0  0  0  0  0  0
   -0.3199   -6.8961   28.7026 O   0  0  0  0  0  0  0  0  0  0  0  0
   10.0644   -8.0607   26.6289 O   0  0  0  0  0  0  0  0  0  0  0  0
    6.8619   -6.2366   28.0215 C   0  0  0  0  0  0  0  0  0  0  0  0
    3.2126   -4.2865   27.2354 C   0  0  0  0  0  0  0  0  0  0  0  0
    9.7594   -6.3714   28.0430 O   0  0  0  0  0  0  0  0  0  0  0  0
    0.4425   -9.8304   15.7160 C   0  0  0  0  0  0  0  0  0  0  0  0
    1.1645  -11.5678   13.4222 C   0  0  0  0  0  0  0  0  0  0  0  0
    8.3459   -7.9509   27.7242 C   0  0  0  0  0  0  0  0  0  0  0  0
    4.7863   -7.5832   26.7869 C   0  0  0  0  0  0  0  0  0  0  0  0
    2.5990  -10.1807   14.9463 C   0  0  0  0  0  0  0  0  0  0  0  0
    1.7846   -9.5633   15.7257 C   0  0  0  0  0  0  0  0  0  0  0  0
    5.5132   -5.7731   28.0848 C   0  0  0  0  0  0  0  0  0  0  0  0
    7.0888   -7.3597   27.5125 C   0  0  0  0  0  0  0  0  0  0  0  0
    0.9698   -5.4252   27.4112 C   0  0  0  0  0  0  0  0  0  0  0  0
    3.2899   -5.7445   27.2873 C   0  0  0  0  0  0  0  0  0  0  0  0
  1 22  4  0
  1 26  4  0
  2 27  4  0
  2 28  4  0
  3  9  4  0
  3 20  4  0
  4 22  4  0
  4 25  4  0
  4 28  1  0
  5  8  4  0
  5 17  4  0
  6 12  1  0
  6 20  4  0
  6 23  4  0
  7 15  2  0
  7 18  1  0
  7 21  1  0
  8 27  4  0
  9 19  4  0
 10 11  1  0
 11 14  2  0
 11 27  1  0
 13 20  1  0
 16 25  4  0
 16 26  4  0
 17 28  4  0
 19 24  4  0
 21 26  1  0
 23 24  4  0
M  END
$$$$

 Created by Python create_sdf_string function

 28 57  0  0  0  0  0  0  0  0999 V2000
    6.3733   -8.1376   26.9402 C   0  0  0  0  0  0  0  0  0  0  0  0
    2.7796   -6.5119   27.7553 C   0  0  0  0  0  0  0  0  0  0  0  0
    4.5554   -6.0915   27.7554 Cl  0  0  0  0  0  0  0  0  0  0  0  0
    2.5435   -3.8113   27.3058 N   0  0  0  0  0  0  0  0  0  0  0  0
    2.3830  -11.0744   13.3434 C   0  0  0  0  0  0  0  0  0  0  0  0
    9.1720   -7.6234   27.3984 C   0  0  0  0  0  0  0  0  0  0  0  0
   -0.2603  -10.8662   15.0269 C   0  0  0  0  0  0  0  0  0  0  0  0
   -1.8800   -5.8185   26.7772 O   0  0  0  0  0  0  0  0  0  0  0  0
   -0.1235   -6.0336   27.5331 P   0  0  0  0  0  0  0  0  0  0  0  0
    3.0699  -11.6791   12.5075 C   0  0  0  0  0  0  0  0  0  0  0  0
    1.0617  -12.2185   12.1539 N   0  0  0  0  0  0  0  0  0  0  0  0
   -0.2899   -7.2317   28.3934 O   0  0  0  0  0  0  0  0  0  0  0  0
   10.2383   -8.2412   26.8403 O   0  0  0  0  0  0  0  0  0  0  0  0
    3.1921   -4.4200   27.0772 C   0  0  0  0  0  0  0  0  0  0  0  0
    9.2500   -7.0661   29.0510 C   0  0  0  0  0  0  0  0  0  0  0  0
    1.1385  -11.5763   14.5023 C   0  0  0  0  0  0  0  0  0  0  0  0
    8.2212   -7.6187   28.3002 C   0  0  0  0  0  0  0  0  0  0  0  0
    4.2886   -8.4904   26.9567 C   0  0  0  0  0  0  0  0  0  0  0  0
    3.0559  -10.9002   14.5630 C   0  0  0  0  0  0  0  0  0  0  0  0
    1.8240   -9.9706   15.2283 C   0  0  0  0  0  0  0  0  0  0  0  0
    5.2689   -5.8658   27.9278 C   0  0  0  0  0  0  0  0  0  0  0  0
    6.6919   -7.2393   27.8741 C   0  0  0  0  0  0  0  0  0  0  0  0
    3.4975   -5.1164   27.6848 C   0  0  0  0  0  0  0  0  0  0  0  0
   -0.2379  -11.9878   14.2929 He  0  0  0  0  0  0  0  0  0  0  0  0
    0.7990   -4.6730   26.4870 He  0  0  0  0  0  0  0  0  0  0  0  0
    7.5835   -5.6813   27.7762 He  0  0  0  0  0  0  0  0  0  0  0  0
    0.1823   -9.8979   15.7855 He  0  0  0  0  0  0  0  0  0  0  0  0
    0.2194   -5.3131   28.0050 He  0  0  0  0  0  0  0  0  0  0  0  0
  1 17  1  0
  1 18  4  0
  1 22  4  0
  2  6  3  0
  2  9  2  0
  2 10  3  0
  2 16  4  0
  3 16  4  0
  3 17  1  0
  3 18  4  0
  3 19  3  0
  3 21  4  0
  4 12  4  0
  4 14  4  0
  4 18  4  0
  5 10  1  0
  5 11  2  0
  5 13  4  0
  5 15  3  0
  5 16  4  0
  5 17  1  0
  5 19  4  0
  5 22  4  0
  6 10  3  0
  6 13  2  0
  6 15  1  0
  6 16  1  0
  6 17  1  0
  7  8  4  0
  7 12  2  0
  7 13  4  0
  7 14  4  0
  7 16  1  0
  8  9  2  0
  8 15  3  0
  8 18  3  0
  8 23  2  0
  9 10  3  0
  9 12  2  0
  9 20  1  0
 10 21  2  0
 11 14  2  0
 11 16  1  0
 11 17  1  0
 11 19  3  0
 11 23  2  0
 12 21  3  0
 13 16  4  0
 13 19  3  0
 13 20  1  0
 14 17  3  0
 14 20  2  0
 15 23  1  0
 16 21  1  0
 18 22  4  0
 19 20  4  0
 21 22  1  0
M  END
$$$$

 Created by Python create_sdf_string function

 28 29  0  0  0  0  0  0  0  0999 V2000
    6.0102   -8.2475   27.1541 C   0  0  0  0  0  0  0  0  0  0  0  0
    2.0879   -6.2355   27.6261 C   0  0  0  0  0  0  0  0  0  0  0  0
   -0.2395  -11.7382   14.1366 C   0  0  0  0  0  0  0  0  0  0  0  0
    4.5759   -6.2450   27.4256 C   0  0  0  0  0  0  0  0  0  0  0  0
    2.1418   -3.5025   26.7657 N   0  0  0  0  0  0  0  0  0  0  0  0
    2.2952  -11.2292   13.6371 C   0  0  0  0  0  0  0  0  0  0  0  0
    9.4085   -7.7327   27.7357 C   0  0  0  0  0  0  0  0  0  0  0  0
    1.0537   -4.1242   26.9719 C   0  0  0  0  0  0  0  0  0  0  0  0
   -0.0779  -10.7572   15.2357 C   0  0  0  0  0  0  0  0  0  0  0  0
   -1.3972   -5.6075   27.0048 O   0  0  0  0  0  0  0  0  0  0  0  0
   -0.3832   -6.1269   27.6849 C   0  0  0  0  0  0  0  0  0  0  0  0
    3.2490  -11.6031   12.6743 C   0  0  0  0  0  0  0  0  0  0  0  0
    0.8710  -12.5751   12.4146 N   0  0  0  0  0  0  0  0  0  0  0  0
   -0.4293   -7.0568   28.5592 O   0  0  0  0  0  0  0  0  0  0  0  0
   10.2421   -8.0751   26.8418 O   0  0  0  0  0  0  0  0  0  0  0  0
    6.8790   -6.1394   27.8231 C   0  0  0  0  0  0  0  0  0  0  0  0
    3.2684   -4.1769   27.0933 C   0  0  0  0  0  0  0  0  0  0  0  0
    9.7661   -6.9077   28.7999 C   0  0  0  0  0  0  0  0  0  0  0  0
    0.5597   -9.9586   15.8375 C   0  0  0  0  0  0  0  0  0  0  0  0
    0.9921  -11.7154   13.5670 C   0  0  0  0  0  0  0  0  0  0  0  0
    8.1763   -8.1013   27.7816 N   0  0  0  0  0  0  0  0  0  0  0  0
    4.7174   -7.6148   27.1406 C   0  0  0  0  0  0  0  0  0  0  0  0
    2.7136  -10.3233   14.5788 C   0  0  0  0  0  0  0  0  0  0  0  0
    1.8459   -9.8377   15.5130 C   0  0  0  0  0  0  0  0  0  0  0  0
    5.6745   -5.5032   27.7503 C   0  0  0  0  0  0  0  0  0  0  0  0
    6.9887   -7.4318   27.5702 C   0  0  0  0  0  0  0  0  0  0  0  0
    0.9327   -5.4809   27.4387 C   0  0  0  0  0  0  0  0  0  0  0  0
    3.3782   -5.5862   27.4122 C   0  0  0  0  0  0  0  0  0  0  0  0
  1 22  4  0
  1 26  4  0
  2 27  4  0
  2 28  4  0
  3  9  4  0
  3 20  4  0
  4 22  4  0
  4 25  4  0
  4 28  1  0
  5  8  4  0
  5 17  4  0
  6 12  1  0
  6 20  4  0
  6 23  4  0
  7 15  2  0
  7 18  1  0
  7 21  1  0
  8 27  4  0
  9 19  4  0
 10 11  2  0
 11 14  2  0
 11 27  1  0
 13 20  1  0
 16 25  4  0
 16 26  4  0
 17 28  4  0
 19 24  4  0
 21 26  1  0
 23 24  4  0
M  END
$$$$

 Created by Python create_sdf_string function

 28 39  0  0  0  0  0  0  0  0999 V2000
    6.0310   -8.4675   26.8293 F   0  0  0  0  0  0  0  0  0  0  0  0
    1.7140   -6.5855   27.3052 C   0  0  0  0  0  0  0  0  0  0  0  0
   -0.7533  -12.1706   14.1136 C   0  0  0  0  0  0  0  0  0  0  0  0
    4.5656   -6.4558   26.9063 C   0  0  0  0  0  0  0  0  0  0  0  0
    1.7560   -2.9075   26.4837 F   0  0  0  0  0  0  0  0  0  0  0  0
    0.6940   -3.9832   26.5892 C   0  0  0  0  0  0  0  0  0  0  0  0
   -2.2678   -6.0095   27.0408 O   0  0  0  0  0  0  0  0  0  0  0  0
   -0.5858   -6.5492   27.6314 O   0  0  0  0  0  0  0  0  0  0  0  0
    0.0341  -12.4603   12.2661 N   0  0  0  0  0  0  0  0  0  0  0  0
    0.0003   -7.6584   28.5143 O   0  0  0  0  0  0  0  0  0  0  0  0
   10.8904   -7.5865   26.8934 C   0  0  0  0  0  0  0  0  0  0  0  0
    6.9339   -6.3576   27.4971 C   0  0  0  0  0  0  0  0  0  0  0  0
    3.0118   -4.0978   27.5762 C   0  0  0  0  0  0  0  0  0  0  0  0
    0.8887   -9.4885   15.9367 C   0  0  0  0  0  0  0  0  0  0  0  0
    1.4878  -12.4195   13.5928 C   0  0  0  0  0  0  0  0  0  0  0  0
    4.4731   -7.9604   27.1003 C   0  0  0  0  0  0  0  0  0  0  0  0
    2.0617   -9.8957   16.0533 C   0  0  0  0  0  0  0  0  0  0  0  0
    5.7488   -6.0726   27.2708 C   0  0  0  0  0  0  0  0  0  0  0  0
    7.5794   -8.0267   27.2783 C   0  0  0  0  0  0  0  0  0  0  0  0
    1.0425   -5.6950   26.9616 C   0  0  0  0  0  0  0  0  0  0  0  0
    3.6075   -5.7171   27.2885 Se  0  0  0  0  0  0  0  0  0  0  0  0
    2.3459  -10.8919   13.3816 He  0  0  0  0  0  0  0  0  0  0  0  0
    9.9152   -8.4522   27.7990 He  0  0  0  0  0  0  0  0  0  0  0  0
    0.0238  -10.4356   14.6943 He  0  0  0  0  0  0  0  0  0  0  0  0
    3.0693  -12.2548   12.7318 He  0  0  0  0  0  0  0  0  0  0  0  0
    9.8687   -7.2236   28.8869 He  0  0  0  0  0  0  0  0  0  0  0  0
    8.1133   -7.9699   27.0027 He  0  0  0  0  0  0  0  0  0  0  0  0
    2.5459   -9.9462   14.9425 He  0  0  0  0  0  0  0  0  0  0  0  0
  1 13  4  0
  1 16  4  0
  1 19  4  0
  2 20  4  0
  2 21  4  0
  3  8  3  0
  3 12  1  0
  3 13  4  0
  3 15  4  0
  4 13  3  0
  4 21  1  0
  5  6  1  0
  5 11  1  0
  5 12  1  0
  5 13  4  0
  5 17  4  0
  5 21  2  0
  6 10  2  0
  6 20  4  0
  7  8  3  0
  7 18  3  0
  7 21  2  0
  8 10  2  0
  8 14  2  0
  8 15  2  0
  9 16  1  0
  9 18  1  0
  9 21  1  0
 12 13  4  0
 12 17  2  0
 12 18  4  0
 12 19  4  0
 13 18  3  0
 13 21  4  0
 14 18  1  0
 15 19  2  0
 16 21  1  0
 17 19  2  0
 19 21  3  0
M  END
$$$$

 Created by Python create_sdf_string function

 28 29  0  0  0  0  0  0  0  0999 V2000
    5.9244   -8.3594   26.9817 C   0  0  0  0  0  0  0  0  0  0  0  0
    2.0756   -6.4430   27.2848 C   0  0  0  0  0  0  0  0  0  0  0  0
   -0.2023  -11.3631   14.1999 C   0  0  0  0  0  0  0  0  0  0  0  0
    4.5220   -6.3942   27.1715 C   0  0  0  0  0  0  0  0  0  0  0  0
    1.9990   -3.5876   26.8214 C   0  0  0  0  0  0  0  0  0  0  0  0
    2.2610  -11.3484   13.6349 C   0  0  0  0  0  0  0  0  0  0  0  0
    9.5657   -7.7868   27.6049 C   0  0  0  0  0  0  0  0  0  0  0  0
    0.8616   -4.2720   26.9038 C   0  0  0  0  0  0  0  0  0  0  0  0
   -0.0172  -10.4524   15.2679 C   0  0  0  0  0  0  0  0  0  0  0  0
   -1.5252   -5.6862   27.2117 O   0  0  0  0  0  0  0  0  0  0  0  0
   -0.3385   -6.2823   27.6069 C   0  0  0  0  0  0  0  0  0  0  0  0
    3.0909  -11.8443   12.7345 O   0  0  0  0  0  0  0  0  0  0  0  0
    0.4695  -12.7118   12.4943 N   0  0  0  0  0  0  0  0  0  0  0  0
   -0.2758   -7.3130   28.3749 O   0  0  0  0  0  0  0  0  0  0  0  0
   10.6574   -7.9535   26.7563 C   0  0  0  0  0  0  0  0  0  0  0  0
    6.9196   -6.2822   27.4057 C   0  0  0  0  0  0  0  0  0  0  0  0
    3.1505   -4.3138   26.9817 C   0  0  0  0  0  0  0  0  0  0  0  0
    9.7201   -7.3358   28.8664 C   0  0  0  0  0  0  0  0  0  0  0  0
    0.6495   -9.7429   15.9504 C   0  0  0  0  0  0  0  0  0  0  0  0
    0.9151  -11.7619   13.4655 C   0  0  0  0  0  0  0  0  0  0  0  0
    8.3368   -8.1889   27.2766 N   0  0  0  0  0  0  0  0  0  0  0  0
    4.6906   -7.7817   26.9130 C   0  0  0  0  0  0  0  0  0  0  0  0
    2.5949  -10.4833   14.6153 C   0  0  0  0  0  0  0  0  0  0  0  0
    1.9797   -9.8033   15.4481 C   0  0  0  0  0  0  0  0  0  0  0  0
    5.6167   -5.6760   27.3984 C   0  0  0  0  0  0  0  0  0  0  0  0
    7.0657   -7.5938   27.2457 C   0  0  0  0  0  0  0  0  0  0  0  0
    0.9052   -5.6379   27.2389 C   0  0  0  0  0  0  0  0  0  0  0  0
    3.2479   -5.7504   27.1334 C   0  0  0  0  0  0  0  0  0  0  0  0
  1 22  4  0
  1 26  4  0
  2 27  4  0
  2 28  4  0
  3  9  4  0
  3 20  4  0
  4 22  4  0
  4 25  4  0
  4 28  1  0
  5  8  4  0
  5 17  4  0
  6 12  2  0
  6 20  4  0
  6 23  4  0
  7 15  2  0
  7 18  1  0
  7 21  1  0
  8 27  4  0
  9 19  4  0
 10 11  1  0
 11 14  2  0
 11 27  1  0
 13 20  1  0
 16 25  4  0
 16 26  4  0
 17 28  4  0
 19 24  4  0
 21 26  1  0
 23 24  4  0
M  END
$$$$

 Created by Python create_sdf_string function

 28 74  0  0  0  0  0  0  0  0999 V2000
    1.7596   -5.7783   26.7781 C   0  0  0  0  0  0  0  0  0  0  0  0
   -0.0684  -11.2243   14.4142 C   0  0  0  0  0  0  0  0  0  0  0  0
    4.4556   -6.1688   27.0251 C   0  0  0  0  0  0  0  0  0  0  0  0
    1.0580   -3.8166   26.9323 C   0  0  0  0  0  0  0  0  0  0  0  0
    2.5313  -11.5547   14.0768 C   0  0  0  0  0  0  0  0  0  0  0  0
    9.3320   -7.7985   27.6400 Cl  0  0  0  0  0  0  0  0  0  0  0  0
    0.7918   -4.5751   27.0095 C   0  0  0  0  0  0  0  0  0  0  0  0
   -0.3177  -10.5416   15.5565 C   0  0  0  0  0  0  0  0  0  0  0  0
   -1.6027   -5.4075   27.0737 O   0  0  0  0  0  0  0  0  0  0  0  0
   -0.3505   -5.8693   27.6670 C   0  0  0  0  0  0  0  0  0  0  0  0
    3.1342  -11.9159   13.0087 Cl  0  0  0  0  0  0  0  0  0  0  0  0
    0.5839  -12.7891   12.5715 N   0  0  0  0  0  0  0  0  0  0  0  0
   -0.0876   -7.0169   28.3933 O   0  0  0  0  0  0  0  0  0  0  0  0
   10.5935   -8.1883   26.6498 C   0  0  0  0  0  0  0  0  0  0  0  0
    6.5647   -6.6201   27.3838 C   0  0  0  0  0  0  0  0  0  0  0  0
    3.4843   -4.1550   27.3784 C   0  0  0  0  0  0  0  0  0  0  0  0
   10.3363   -6.9782   29.4422 N   0  0  0  0  0  0  0  0  0  0  0  0
    1.3818   -9.6069   15.7385 C   0  0  0  0  0  0  0  0  0  0  0  0
    0.5222  -12.0827   13.7111 O   0  0  0  0  0  0  0  0  0  0  0  0
    8.0471   -8.0614   26.3816 N   0  0  0  0  0  0  0  0  0  0  0  0
    2.3040  -10.4370   15.2659 C   0  0  0  0  0  0  0  0  0  0  0  0
    2.4810   -9.5541   15.1641 C   0  0  0  0  0  0  0  0  0  0  0  0
    5.6062   -5.8897   27.2654 F   0  0  0  0  0  0  0  0  0  0  0  0
    7.3516   -8.0567   27.5192 C   0  0  0  0  0  0  0  0  0  0  0  0
    0.9758   -5.1581   27.0243 C   0  0  0  0  0  0  0  0  0  0  0  0
    3.5695   -6.0332   27.0996 C   0  0  0  0  0  0  0  0  0  0  0  0
    5.5426   -8.3476   26.5963 He  0  0  0  0  0  0  0  0  0  0  0  0
    4.4536   -6.8316   26.8172 He  0  0  0  0  0  0  0  0  0  0  0  0
  1  3  4  0
  1  4  3  0
  1 19  2  0
  1 20  3  0
  1 22  1  0
  1 23  2  0
  1 24  4  0
  1 26  4  0
  2  8  4  0
  2 13  2  0
  2 16  4  0
  2 19  4  0
  2 21  2  0
  3  6  1  0
  3 11  1  0
  3 12  3  0
  3 17  2  0
  3 19  1  0
  3 20  2  0
  3 22  4  0
  3 23  4  0
  3 24  3  0
  3 26  1  0
  4  5  1  0
  4 13  4  0
  4 16  4  0
  4 23  2  0
  5 11  2  0
  5 15  3  0
  5 21  4  0
  6  9  1  0
  6 14  2  0
  6 17  2  0
  6 20  1  0
  6 24  4  0
  7 14  1  0
  7 20  1  0
  7 21  4  0
  7 24  3  0
  7 25  4  0
  8 13  4  0
  8 15  2  0
  8 18  4  0
  8 24  4  0
  9 10  1  0
  9 24  2  0
 10 11  2  0
 10 15  2  0
 10 22  3  0
 10 25  1  0
 12 19  1  0
 12 24  1  0
 12 26  1  0
 13 24  2  0
 14 16  2  0
 14 18  1  0
 14 21  4  0
 14 26  3  0
 15 20  1  0
 15 21  2  0
 15 22  2  0
 15 23  4  0
 15 24  4  0
 15 25  1  0
 16 24  4  0
 16 25  2  0
 18 21  4  0
 18 22  4  0
 19 20  4  0
 19 26  4  0
 20 22  2  0
 20 24  1  0
 21 22  4  0
 22 26  3  0
M  END
$$$$

 Created by Python create_sdf_string function

 28 29  0  0  0  0  0  0  0  0999 V2000
    5.8409   -8.2964   26.5996 C   0  0  0  0  0  0  0  0  0  0  0  0
    1.9843   -6.1945   27.1759 C   0  0  0  0  0  0  0  0  0  0  0  0
   -0.1425  -11.3853   14.5062 C   0  0  0  0  0  0  0  0  0  0  0  0
    4.4299   -6.2849   27.0369 C   0  0  0  0  0  0  0  0  0  0  0  0
    1.9939   -3.3566   26.9770 C   0  0  0  0  0  0  0  0  0  0  0  0
    2.2385  -11.4104   13.8463 C   0  0  0  0  0  0  0  0  0  0  0  0
    9.4760   -7.7491   27.6698 C   0  0  0  0  0  0  0  0  0  0  0  0
    0.8494   -4.0150   26.9962 C   0  0  0  0  0  0  0  0  0  0  0  0
   -0.1227  -10.3728   15.4176 C   0  0  0  0  0  0  0  0  0  0  0  0
   -1.5655   -5.5243   27.1932 O   0  0  0  0  0  0  0  0  0  0  0  0
   -0.4143   -6.0515   27.5863 C   0  0  0  0  0  0  0  0  0  0  0  0
    3.2985  -12.0010   13.1009 Cl  0  0  0  0  0  0  0  0  0  0  0  0
    0.6080  -12.8309   12.7756 N   0  0  0  0  0  0  0  0  0  0  0  0
   -0.3534   -7.0035   28.3876 O   0  0  0  0  0  0  0  0  0  0  0  0
   10.6740   -8.1680   26.7953 C   0  0  0  0  0  0  0  0  0  0  0  0
    6.7479   -6.3058   27.5709 C   0  0  0  0  0  0  0  0  0  0  0  0
    3.1801   -4.0810   27.0487 C   0  0  0  0  0  0  0  0  0  0  0  0
    9.7000   -7.2482   28.8096 O   0  0  0  0  0  0  0  0  0  0  0  0
    1.0615   -9.6526   15.7789 C   0  0  0  0  0  0  0  0  0  0  0  0
    0.8658  -11.8770   13.7124 C   0  0  0  0  0  0  0  0  0  0  0  0
    8.2204   -8.1204   27.2021 N   0  0  0  0  0  0  0  0  0  0  0  0
    4.5670   -7.6092   26.5740 C   0  0  0  0  0  0  0  0  0  0  0  0
    2.4723  -10.4097   14.7466 C   0  0  0  0  0  0  0  0  0  0  0  0
    2.5169   -9.7177   15.4419 C   0  0  0  0  0  0  0  0  0  0  0  0
    5.5880   -5.6884   27.4935 C   0  0  0  0  0  0  0  0  0  0  0  0
    6.9827   -7.5607   27.1784 C   0  0  0  0  0  0  0  0  0  0  0  0
    0.8036   -5.4214   27.2093 C   0  0  0  0  0  0  0  0  0  0  0  0
    3.2250   -5.5386   27.0775 C   0  0  0  0  0  0  0  0  0  0  0  0
  1 22  4  0
  1 26  4  0
  2 27  4  0
  2 28  4  0
  3  9  4  0
  3 20  4  0
  4 22  4  0
  4 25  4  0
  4 28  1  0
  5  8  4  0
  5 17  4  0
  6 12  2  0
  6 20  4  0
  6 23  4  0
  7 15  1  0
  7 18  2  0
  7 21  1  0
  8 27  4  0
  9 19  4  0
 10 11  1  0
 11 14  2  0
 11 27  1  0
 13 20  1  0
 16 25  4  0
 16 26  4  0
 17 28  4  0
 19 24  4  0
 21 26  1  0
 23 24  4  0
M  END
$$$$

 Created by Python create_sdf_string function

 28 60  0  0  0  0  0  0  0  0999 V2000
   -0.6121  -11.4370   14.5852 F   0  0  0  0  0  0  0  0  0  0  0  0
    3.8071   -6.6382   27.0136 C   0  0  0  0  0  0  0  0  0  0  0  0
    1.4516   -2.8180   27.0348 C   0  0  0  0  0  0  0  0  0  0  0  0
    1.3544  -11.3089   14.1156 C   0  0  0  0  0  0  0  0  0  0  0  0
    9.7031   -8.8748   28.1580 F   0  0  0  0  0  0  0  0  0  0  0  0
    0.4631   -4.1389   27.0873 C   0  0  0  0  0  0  0  0  0  0  0  0
   -0.5355  -10.4879   15.3115 F   0  0  0  0  0  0  0  0  0  0  0  0
   -1.5591   -5.1924   27.2802 O   0  0  0  0  0  0  0  0  0  0  0  0
   -0.3450   -5.6292   27.8878 Cl  0  0  0  0  0  0  0  0  0  0  0  0
    3.1818  -12.2685   13.0539 C   0  0  0  0  0  0  0  0  0  0  0  0
    0.1916  -13.3352   13.1155 N   0  0  0  0  0  0  0  0  0  0  0  0
   -0.4978   -6.5775   28.4431 O   0  0  0  0  0  0  0  0  0  0  0  0
   11.2341   -7.5382   26.7099 O   0  0  0  0  0  0  0  0  0  0  0  0
    6.5811   -6.7980   27.1030 O   0  0  0  0  0  0  0  0  0  0  0  0
    2.9157   -4.0592   27.8928 C   0  0  0  0  0  0  0  0  0  0  0  0
    0.5987   -9.9023   15.9592 C   0  0  0  0  0  0  0  0  0  0  0  0
    1.2118  -11.3968   14.0141 C   0  0  0  0  0  0  0  0  0  0  0  0
    8.5463   -7.4170   26.7708 C   0  0  0  0  0  0  0  0  0  0  0  0
    4.2096   -7.9313   26.6604 C   0  0  0  0  0  0  0  0  0  0  0  0
    2.1960  -10.0322   14.8162 C   0  0  0  0  0  0  0  0  0  0  0  0
    2.8830   -9.9313   15.5263 C   0  0  0  0  0  0  0  0  0  0  0  0
    5.5956   -5.4177   27.1298 C   0  0  0  0  0  0  0  0  0  0  0  0
    6.8846   -7.9762   27.1922 C   0  0  0  0  0  0  0  0  0  0  0  0
    0.7770   -5.3136   27.1101 C   0  0  0  0  0  0  0  0  0  0  0  0
    3.2126   -5.2263   27.1130 C   0  0  0  0  0  0  0  0  0  0  0  0
    5.9784   -8.0369   26.6570 He  0  0  0  0  0  0  0  0  0  0  0  0
    1.5082   -5.8042   26.8624 He  0  0  0  0  0  0  0  0  0  0  0  0
    9.7122   -7.3988   28.0685 He  0  0  0  0  0  0  0  0  0  0  0  0
  1  5  1  0
  1  7  4  0
  1  8  3  0
  1  9  2  0
  1 17  2  0
  1 21  3  0
  1 25  1  0
  2  4  3  0
  2  8  1  0
  2 10  2  0
  2 19  1  0
  2 22  4  0
  2 25  1  0
  3  9  3  0
  3 15  4  0
  3 16  1  0
  3 17  2  0
  4  7  4  0
  4  9  2  0
  5  9  1  0
  5 11  3  0
  5 12  3  0
  5 18  4  0
  5 21  3  0
  6 19  2  0
  6 20  2  0
  6 21  1  0
  6 22  2  0
  6 24  4  0
  6 25  1  0
  7  9  4  0
  7 10  1  0
  7 12  3  0
  7 16  4  0
  8  9  2  0
  8 10  3  0
  8 16  3  0
  9 12  2  0
  9 16  3  0
  9 25  1  0
 11 21  3  0
 12 19  3  0
 13 20  4  0
 13 25  2  0
 14 15  3  0
 14 21  4  0
 14 22  4  0
 15 17  1  0
 15 21  2  0
 15 23  1  0
 15 25  4  0
 16 21  4  0
 17 19  4  0
 17 24  3  0
 18 19  4  0
 18 23  1  0
 20 21  4  0
 21 23  1  0
 23 24  3  0
 23 25  4  0
M  END
$$$$

 Created by Python create_sdf_string function

 28 29  0  0  0  0  0  0  0  0999 V2000
    5.7367   -8.1704   26.6894 C   0  0  0  0  0  0  0  0  0  0  0  0
    1.8633   -6.1265   27.2017 C   0  0  0  0  0  0  0  0  0  0  0  0
   -0.5479  -11.3730   14.6707 C   0  0  0  0  0  0  0  0  0  0  0  0
    4.2933   -6.2134   27.0465 C   0  0  0  0  0  0  0  0  0  0  0  0
    2.0171   -3.2603   27.1188 C   0  0  0  0  0  0  0  0  0  0  0  0
    1.8746  -11.3442   14.0372 C   0  0  0  0  0  0  0  0  0  0  0  0
    9.6968   -8.5404   28.4562 C   0  0  0  0  0  0  0  0  0  0  0  0
    0.7896   -3.8153   27.1109 C   0  0  0  0  0  0  0  0  0  0  0  0
   -0.1072  -10.5029   15.4221 C   0  0  0  0  0  0  0  0  0  0  0  0
   -1.6998   -5.2359   27.2218 O   0  0  0  0  0  0  0  0  0  0  0  0
   -0.5642   -5.8009   27.6628 N   0  0  0  0  0  0  0  0  0  0  0  0
    2.9163  -12.0659   13.0374 C   0  0  0  0  0  0  0  0  0  0  0  0
    0.3660  -12.9995   13.1169 N   0  0  0  0  0  0  0  0  0  0  0  0
   -0.5935   -6.7508   28.5101 O   0  0  0  0  0  0  0  0  0  0  0  0
   10.6613   -7.5442   26.8328 O   0  0  0  0  0  0  0  0  0  0  0  0
    6.6486   -6.2125   27.3769 C   0  0  0  0  0  0  0  0  0  0  0  0
    3.1173   -4.0640   27.1285 C   0  0  0  0  0  0  0  0  0  0  0  0
    9.5023   -7.8730   27.4830 C   0  0  0  0  0  0  0  0  0  0  0  0
    0.7314   -9.7390   15.9646 C   0  0  0  0  0  0  0  0  0  0  0  0
    0.6969  -11.8987   13.8939 C   0  0  0  0  0  0  0  0  0  0  0  0
    8.1442   -7.8987   27.1249 C   0  0  0  0  0  0  0  0  0  0  0  0
    4.4820   -7.5590   26.6986 C   0  0  0  0  0  0  0  0  0  0  0  0
    2.5417  -10.3965   14.7166 C   0  0  0  0  0  0  0  0  0  0  0  0
    2.0242   -9.6062   15.6246 C   0  0  0  0  0  0  0  0  0  0  0  0
    5.4462   -5.5415   27.3701 C   0  0  0  0  0  0  0  0  0  0  0  0
    6.8437   -7.4215   27.1107 C   0  0  0  0  0  0  0  0  0  0  0  0
    0.7123   -5.2098   27.2913 C   0  0  0  0  0  0  0  0  0  0  0  0
    3.0724   -5.4966   27.1124 C   0  0  0  0  0  0  0  0  0  0  0  0
  1 22  4  0
  1 26  4  0
  2 27  4  0
  2 28  4  0
  3  9  4  0
  3 20  4  0
  4 22  4  0
  4 25  4  0
  4 28  1  0
  5  8  4  0
  5 17  4  0
  6 12  1  0
  6 20  4  0
  6 23  4  0
  7 18  2  0
  8 27  4  0
  9 19  4  0
 10 11  1  0
 11 14  2  0
 11 27  1  0
 13 20  1  0
 15 18  1  0
 16 25  4  0
 16 26  4  0
 17 28  4  0
 18 21  1  0
 19 24  4  0
 21 26  1  0
 23 24  4  0
M  END
$$$$

 Created by Python create_sdf_string function

 28 58  0  0  0  0  0  0  0  0999 V2000
    5.6207   -8.4710   26.6052 C   0  0  0  0  0  0  0  0  0  0  0  0
    1.7888   -5.7087   27.0466 C   0  0  0  0  0  0  0  0  0  0  0  0
   -0.2857  -12.0504   15.1170 C   0  0  0  0  0  0  0  0  0  0  0  0
    4.4287   -6.3138   26.7926 C   0  0  0  0  0  0  0  0  0  0  0  0
    2.1916   -3.5091   27.3147 C   0  0  0  0  0  0  0  0  0  0  0  0
    1.0350  -11.3046   13.7123 C   0  0  0  0  0  0  0  0  0  0  0  0
    9.9501   -9.0425   29.4045 O   0  0  0  0  0  0  0  0  0  0  0  0
    0.8109   -3.8264   27.2180 C   0  0  0  0  0  0  0  0  0  0  0  0
   -0.1851  -10.9863   15.3033 C   0  0  0  0  0  0  0  0  0  0  0  0
   -1.6314   -5.4043   27.5983 O   0  0  0  0  0  0  0  0  0  0  0  0
   -0.4317   -5.7545   28.5637 N   0  0  0  0  0  0  0  0  0  0  0  0
    3.3274  -12.3931   12.9421 C   0  0  0  0  0  0  0  0  0  0  0  0
   -0.1442  -12.1527   13.0423 N   0  0  0  0  0  0  0  0  0  0  0  0
   -0.7213   -6.3510   28.5734 O   0  0  0  0  0  0  0  0  0  0  0  0
   11.2363   -7.0454   27.0490 O   0  0  0  0  0  0  0  0  0  0  0  0
    6.7808   -6.3120   27.4785 C   0  0  0  0  0  0  0  0  0  0  0  0
    2.7239   -4.6143   27.0864 C   0  0  0  0  0  0  0  0  0  0  0  0
    9.3047   -8.4137   27.8701 C   0  0  0  0  0  0  0  0  0  0  0  0
    0.6325  -12.5209   14.4152 Cl  0  0  0  0  0  0  0  0  0  0  0  0
    8.9182   -7.5244   27.0283 C   0  0  0  0  0  0  0  0  0  0  0  0
    4.2893   -7.7431   26.1294 C   0  0  0  0  0  0  0  0  0  0  0  0
    2.2410  -10.4396   14.8775 C   0  0  0  0  0  0  0  0  0  0  0  0
    2.3225   -9.3698   15.5822 C   0  0  0  0  0  0  0  0  0  0  0  0
    4.6385   -5.8663   27.8391 C   0  0  0  0  0  0  0  0  0  0  0  0
    6.6878   -7.5522   27.2378 C   0  0  0  0  0  0  0  0  0  0  0  0
    0.8908   -5.4862   27.1064 C   0  0  0  0  0  0  0  0  0  0  0  0
    2.7580   -5.8087   26.8693 C   0  0  0  0  0  0  0  0  0  0  0  0
    0.8380   -9.8150   16.2211 He  0  0  0  0  0  0  0  0  0  0  0  0
  1  4  3  0
  1 12  2  0
  1 13  4  0
  1 17  3  0
  1 20  4  0
  1 21  4  0
  1 25  4  0
  2  5  1  0
  2 13  1  0
  2 24  3  0
  2 26  4  0
  2 27  4  0
  3 13  4  0
  3 21  3  0
  3 23  2  0
  3 27  1  0
  4 13  1  0
  4 14  3  0
  4 16  3  0
  4 27  1  0
  5 11  1  0
  5 17  4  0
  5 25  1  0
  6  7  1  0
  6  9  2  0
  6 12  1  0
  6 16  1  0
  6 22  4  0
  7 18  2  0
  7 27  3  0
  8 13  2  0
  8 17  4  0
  8 26  4  0
  9 18  2  0
 10 11  1  0
 11 14  2  0
 11 26  1  0
 12 20  4  0
 13 19  2  0
 13 22  1  0
 14 15  1  0
 14 16  2  0
 14 21  2  0
 15 18  3  0
 15 24  4  0
 15 27  3  0
 16 24  4  0
 16 25  4  0
 17 26  2  0
 17 27  4  0
 18 20  1  0
 18 25  4  0
 19 21  1  0
 20 24  1  0
 20 25  1  0
 20 26  4  0
 22 23  4  0
 24 25  2  0
M  END
$$$$

 Created by Python create_sdf_string function

 28 28  0  0  0  0  0  0  0  0999 V2000
    5.8462   -8.1468   26.4892 C   0  0  0  0  0  0  0  0  0  0  0  0
    1.8377   -6.2675   27.3122 C   0  0  0  0  0  0  0  0  0  0  0  0
   -0.3074  -11.3347   15.1243 C   0  0  0  0  0  0  0  0  0  0  0  0
    4.2951   -6.3874   27.0719 C   0  0  0  0  0  0  0  0  0  0  0  0
    2.0214   -3.3980   27.0063 C   0  0  0  0  0  0  0  0  0  0  0  0
    1.8051  -11.4990   13.9963 C   0  0  0  0  0  0  0  0  0  0  0  0
    9.6872   -8.7234   28.8829 O   0  0  0  0  0  0  0  0  0  0  0  0
    0.8527   -3.9428   27.2854 C   0  0  0  0  0  0  0  0  0  0  0  0
   -0.0155  -10.7498   15.5938 C   0  0  0  0  0  0  0  0  0  0  0  0
   -1.6672   -5.2649   27.5334 O   0  0  0  0  0  0  0  0  0  0  0  0
   -0.5418   -5.8678   27.9571 N   0  0  0  0  0  0  0  0  0  0  0  0
    2.8220  -12.2136   13.0040 C   0  0  0  0  0  0  0  0  0  0  0  0
   -0.1053  -12.8436   13.3818 N   0  0  0  0  0  0  0  0  0  0  0  0
   -0.5707   -6.7765   28.8157 O   0  0  0  0  0  0  0  0  0  0  0  0
   10.6633   -7.5230   27.1637 C   0  0  0  0  0  0  0  0  0  0  0  0
    6.5452   -6.3438   27.7507 C   0  0  0  0  0  0  0  0  0  0  0  0
    3.1081   -4.2453   26.9099 C   0  0  0  0  0  0  0  0  0  0  0  0
    9.5014   -7.9977   27.8039 C   0  0  0  0  0  0  0  0  0  0  0  0
    0.7230   -9.7188   16.1491 C   0  0  0  0  0  0  0  0  0  0  0  0
    0.5340  -12.1890   13.7365 C   0  0  0  0  0  0  0  0  0  0  0  0
    8.2521   -7.9133   27.1844 C   0  0  0  0  0  0  0  0  0  0  0  0
    4.5468   -7.5596   26.5042 C   0  0  0  0  0  0  0  0  0  0  0  0
    2.4201  -10.4124   14.6544 C   0  0  0  0  0  0  0  0  0  0  0  0
    1.9677   -9.5683   15.6156 C   0  0  0  0  0  0  0  0  0  0  0  0
    5.3441   -5.7740   27.6928 C   0  0  0  0  0  0  0  0  0  0  0  0
    6.8485   -7.4771   27.1653 C   0  0  0  0  0  0  0  0  0  0  0  0
    0.7367   -5.3472   27.4752 C   0  0  0  0  0  0  0  0  0  0  0  0
    3.0747   -5.6836   27.0588 C   0  0  0  0  0  0  0  0  0  0  0  0
  1 22  4  0
  1 26  4  0
  2 27  4  0
  2 28  4  0
  3  9  4  0
  4 22  4  0
  4 25  4  0
  4 28  1  0
  5  8  4  0
  5 17  4  0
  6 12  1  0
  6 20  4  0
  6 23  4  0
  7 18  2  0
  8 27  4  0
  9 19  4  0
 10 11  1  0
 11 14  2  0
 11 27  1  0
 13 20  2  0
 15 18  1  0
 16 25  4  0
 16 26  4  0
 17 28  4  0
 18 21  1  0
 19 24  4  0
 21 26  1  0
 23 24  4  0
M  END
$$$$

 Created by Python create_sdf_string function

 28 38  0  0  0  0  0  0  0  0999 V2000
    6.2517   -8.1161   26.9350 C   0  0  0  0  0  0  0  0  0  0  0  0
    1.8254   -6.0918   27.5407 C   0  0  0  0  0  0  0  0  0  0  0  0
    4.2231   -6.3672   26.8914 C   0  0  0  0  0  0  0  0  0  0  0  0
    2.5009   -3.6755   26.9802 C   0  0  0  0  0  0  0  0  0  0  0  0
    1.9815  -11.9230   13.5307 C   0  0  0  0  0  0  0  0  0  0  0  0
    9.5574   -9.2137   29.2694 O   0  0  0  0  0  0  0  0  0  0  0  0
   -0.1101  -10.6269   15.7632 C   0  0  0  0  0  0  0  0  0  0  0  0
   -0.3662   -6.0562   27.9255 N   0  0  0  0  0  0  0  0  0  0  0  0
   -0.6948  -12.6041   13.1028 N   0  0  0  0  0  0  0  0  0  0  0  0
   11.0397   -7.3571   27.3685 C   0  0  0  0  0  0  0  0  0  0  0  0
    6.9806   -6.6856   28.5033 C   0  0  0  0  0  0  0  0  0  0  0  0
    3.0063   -3.9171   26.9878 S   0  0  0  0  0  0  0  0  0  0  0  0
    9.5741   -8.2831   28.1362 C   0  0  0  0  0  0  0  0  0  0  0  0
    0.3971   -9.7241   16.2574 C   0  0  0  0  0  0  0  0  0  0  0  0
    0.7267  -11.6563   13.5111 C   0  0  0  0  0  0  0  0  0  0  0  0
    8.1059   -8.0856   27.1814 C   0  0  0  0  0  0  0  0  0  0  0  0
    1.9705  -10.8047   15.0732 C   0  0  0  0  0  0  0  0  0  0  0  0
    5.5928   -5.8376   27.7585 C   0  0  0  0  0  0  0  0  0  0  0  0
    6.8751   -7.6040   27.2990 C   0  0  0  0  0  0  0  0  0  0  0  0
    1.3935   -4.9315   26.7131 C   0  0  0  0  0  0  0  0  0  0  0  0
    3.8925   -5.5922   26.9436 B   0  0  0  0  0  0  0  0  0  0  0  0
   -0.3164  -11.2346   14.7095 He  0  0  0  0  0  0  0  0  0  0  0  0
    0.0079   -3.7257   27.2187 He  0  0  0  0  0  0  0  0  0  0  0  0
   -1.8429   -4.6346   27.3201 He  0  0  0  0  0  0  0  0  0  0  0  0
    2.2854  -12.5795   13.4705 He  0  0  0  0  0  0  0  0  0  0  0  0
   -0.8076   -6.3106   29.1957 He  0  0  0  0  0  0  0  0  0  0  0  0
    4.2180   -7.5795   26.6955 He  0  0  0  0  0  0  0  0  0  0  0  0
    1.9736  -10.0294   15.7344 He  0  0  0  0  0  0  0  0  0  0  0  0
  1  5  3  0
  1 19  4  0
  1 21  1  0
  2 11  1  0
  2 12  3  0
  2 20  4  0
  2 21  4  0
  3  8  1  0
  3 11  2  0
  3 18  3  0
  3 21  1  0
  4 11  4  0
  4 12  4  0
  5 10  3  0
  5 15  4  0
  5 17  4  0
  5 19  1  0
  6  7  3  0
  6 13  2  0
  6 16  2  0
  7 14  1  0
  8 12  2  0
  8 20  1  0
  9 10  2  0
  9 15  2  0
  9 17  3  0
  9 19  4  0
 10 15  1  0
 11 18  4  0
 11 19  4  0
 12 16  4  0
 12 20  2  0
 12 21  4  0
 13 16  1  0
 14 19  3  0
 16 18  3  0
 16 20  4  0
 18 21  1  0
M  END
$$$$

 Created by Python create_sdf_string function

 28 28  0  0  0  0  0  0  0  0999 V2000
    5.8936   -8.1595   26.7339 C   0  0  0  0  0  0  0  0  0  0  0  0
    1.9776   -6.0634   27.3842 C   0  0  0  0  0  0  0  0  0  0  0  0
   -0.5222  -11.1899   14.6741 N   0  0  0  0  0  0  0  0  0  0  0  0
    4.4701   -6.2459   27.2764 C   0  0  0  0  0  0  0  0  0  0  0  0
    2.1923   -3.2896   26.8663 C   0  0  0  0  0  0  0  0  0  0  0  0
    1.6269  -11.7896   13.9761 C   0  0  0  0  0  0  0  0  0  0  0  0
    9.4508   -8.8089   29.1512 O   0  0  0  0  0  0  0  0  0  0  0  0
    0.9401   -3.7953   27.0434 C   0  0  0  0  0  0  0  0  0  0  0  0
    0.2579  -10.4330   15.5209 C   0  0  0  0  0  0  0  0  0  0  0  0
   -1.5626   -5.1167   27.3263 O   0  0  0  0  0  0  0  0  0  0  0  0
   -0.4346   -5.6840   27.8717 N   0  0  0  0  0  0  0  0  0  0  0  0
    2.5686  -12.4856   13.2170 F   0  0  0  0  0  0  0  0  0  0  0  0
   -0.3451  -12.6339   12.7485 N   0  0  0  0  0  0  0  0  0  0  0  0
   -0.5193   -6.5041   28.7731 O   0  0  0  0  0  0  0  0  0  0  0  0
   10.6639   -7.7613   27.3891 C   0  0  0  0  0  0  0  0  0  0  0  0
    6.7692   -6.3740   28.0127 C   0  0  0  0  0  0  0  0  0  0  0  0
    3.3290   -4.0817   26.9836 C   0  0  0  0  0  0  0  0  0  0  0  0
    9.3948   -8.1584   28.0601 C   0  0  0  0  0  0  0  0  0  0  0  0
    0.1984   -9.6631   16.5297 C   0  0  0  0  0  0  0  0  0  0  0  0
    0.1946  -11.9469   13.7807 C   0  0  0  0  0  0  0  0  0  0  0  0
    8.2754   -8.0513   27.2716 N   0  0  0  0  0  0  0  0  0  0  0  0
    4.6195   -7.4337   26.7008 C   0  0  0  0  0  0  0  0  0  0  0  0
    2.0093  -10.8592   14.9122 C   0  0  0  0  0  0  0  0  0  0  0  0
    2.5389  -10.0905   15.6473 C   0  0  0  0  0  0  0  0  0  0  0  0
    5.5962   -5.7113   27.9958 C   0  0  0  0  0  0  0  0  0  0  0  0
    6.9710   -7.5606   27.3753 C   0  0  0  0  0  0  0  0  0  0  0  0
    0.8458   -5.1581   27.4129 C   0  0  0  0  0  0  0  0  0  0  0  0
    3.2669   -5.5121   27.1855 C   0  0  0  0  0  0  0  0  0  0  0  0
  1 22  4  0
  1 26  4  0
  2 27  4  0
  2 28  4  0
  3  9  4  0
  3 20  4  0
  4 22  4  0
  4 25  4  0
  4 28  1  0
  5  8  4  0
  5 17  4  0
  6 12  1  0
  6 20  4  0
  6 23  4  0
  7 18  2  0
  8 27  4  0
  9 19  1  0
 10 11  1  0
 11 14  2  0
 11 27  1  0
 13 20  2  0
 15 18  1  0
 16 25  4  0
 16 26  4  0
 17 28  4  0
 18 21  1  0
 21 26  1  0
 23 24  1  0
M  END
$$$$

 Created by Python create_sdf_string function

 28 41  0  0  0  0  0  0  0  0999 V2000
    5.2605   -8.3904   27.1077 C   0  0  0  0  0  0  0  0  0  0  0  0
    2.3182   -6.3327   27.3854 C   0  0  0  0  0  0  0  0  0  0  0  0
   -0.2095  -11.0586   14.2575 N   0  0  0  0  0  0  0  0  0  0  0  0
    4.5932   -6.3804   26.8708 C   0  0  0  0  0  0  0  0  0  0  0  0
    2.1899   -3.6492   26.3422 C   0  0  0  0  0  0  0  0  0  0  0  0
    1.3751  -11.3977   13.6219 C   0  0  0  0  0  0  0  0  0  0  0  0
    9.1125   -9.1320   29.2321 O   0  0  0  0  0  0  0  0  0  0  0  0
    0.2629   -9.9410   15.7489 C   0  0  0  0  0  0  0  0  0  0  0  0
   -1.9011   -5.0618   27.2147 O   0  0  0  0  0  0  0  0  0  0  0  0
   -0.4947   -5.5982   27.7147 N   0  0  0  0  0  0  0  0  0  0  0  0
    2.5529  -12.6208   12.7982 F   0  0  0  0  0  0  0  0  0  0  0  0
   -0.0433  -13.1119   13.1611 N   0  0  0  0  0  0  0  0  0  0  0  0
   -0.7696   -6.4050   28.9953 O   0  0  0  0  0  0  0  0  0  0  0  0
   11.0087   -6.9358   27.7387 C   0  0  0  0  0  0  0  0  0  0  0  0
    3.6454   -3.8575   27.1251 C   0  0  0  0  0  0  0  0  0  0  0  0
    8.9719   -8.4310   27.6575 C   0  0  0  0  0  0  0  0  0  0  0  0
   -0.2719   -9.5596   16.5063 C   0  0  0  0  0  0  0  0  0  0  0  0
    4.5622   -7.3319   26.7049 C   0  0  0  0  0  0  0  0  0  0  0  0
    2.9010  -10.2912   15.6373 C   0  0  0  0  0  0  0  0  0  0  0  0
    5.3007   -5.9055   28.3131 C   0  0  0  0  0  0  0  0  0  0  0  0
    7.0731   -7.6163   27.4626 C   0  0  0  0  0  0  0  0  0  0  0  0
    0.8171   -5.2604   27.2118 C   0  0  0  0  0  0  0  0  0  0  0  0
    3.3457   -5.1016   27.1536 C   0  0  0  0  0  0  0  0  0  0  0  0
    0.9690   -4.5448   27.3613 He  0  0  0  0  0  0  0  0  0  0  0  0
    7.1139   -6.1817   27.6567 He  0  0  0  0  0  0  0  0  0  0  0  0
    0.3280  -12.2406   13.8537 He  0  0  0  0  0  0  0  0  0  0  0  0
    8.8240   -7.7627   27.2548 He  0  0  0  0  0  0  0  0  0  0  0  0
    1.9873  -10.5254   14.8150 He  0  0  0  0  0  0  0  0  0  0  0  0
  1  3  4  0
  1 16  2  0
  1 18  3  0
  1 21  4  0
  1 22  4  0
  2  3  1  0
  2  7  1  0
  2  9  4  0
  2 13  4  0
  2 16  1  0
  2 20  4  0
  3  8  4  0
  3 11  4  0
  3 14  4  0
  3 20  2  0
  3 21  4  0
  4 11  4  0
  5 11  4  0
  5 15  4  0
  6 11  1  0
  6 23  4  0
  7  8  4  0
  7 12  4  0
  7 14  3  0
  7 16  2  0
  8 17  1  0
  8 21  4  0
  9 10  1  0
 10 13  2  0
 10 15  2  0
 10 22  1  0
 13 20  2  0
 14 16  1  0
 14 21  4  0
 15 23  4  0
 18 21  1  0
 18 23  1  0
 19 22  1  0
 19 23  4  0
 20 21  4  0
 21 23  3  0
M  END
$$$$

 Created by Python create_sdf_string function

 28 29  0  0  0  0  0  0  0  0999 V2000
    5.9101   -8.1980   26.8480 C   0  0  0  0  0  0  0  0  0  0  0  0
    2.0897   -6.1128   27.4448 C   0  0  0  0  0  0  0  0  0  0  0  0
   -0.3888  -11.2047   14.5941 N   0  0  0  0  0  0  0  0  0  0  0  0
    4.5029   -6.2559   27.2563 C   0  0  0  0  0  0  0  0  0  0  0  0
    2.1613   -3.3615   26.7905 C   0  0  0  0  0  0  0  0  0  0  0  0
    1.6599  -11.6536   13.8447 C   0  0  0  0  0  0  0  0  0  0  0  0
    9.1935   -8.7991   29.1449 O   0  0  0  0  0  0  0  0  0  0  0  0
    0.9919   -3.9631   26.8949 C   0  0  0  0  0  0  0  0  0  0  0  0
    0.3782  -10.3915   15.3060 C   0  0  0  0  0  0  0  0  0  0  0  0
   -1.5245   -5.2723   27.1745 O   0  0  0  0  0  0  0  0  0  0  0  0
   -0.4162   -5.7685   27.8347 N   0  0  0  0  0  0  0  0  0  0  0  0
    2.6024  -12.2011   13.0526 C   0  0  0  0  0  0  0  0  0  0  0  0
   -0.2712  -12.9517   13.1287 N   0  0  0  0  0  0  0  0  0  0  0  0
   -0.4947   -6.5498   28.7744 O   0  0  0  0  0  0  0  0  0  0  0  0
   10.5303   -7.4569   27.6638 C   0  0  0  0  0  0  0  0  0  0  0  0
    6.7674   -6.2560   27.8638 C   0  0  0  0  0  0  0  0  0  0  0  0
    3.3431   -4.0979   26.9007 C   0  0  0  0  0  0  0  0  0  0  0  0
    9.2209   -8.0841   28.0714 C   0  0  0  0  0  0  0  0  0  0  0  0
   -0.0303   -9.4636   16.3077 C   0  0  0  0  0  0  0  0  0  0  0  0
    0.2575  -11.9717   13.8159 C   0  0  0  0  0  0  0  0  0  0  0  0
    8.2593   -7.9298   27.2669 N   0  0  0  0  0  0  0  0  0  0  0  0
    4.6054   -7.5710   26.8550 C   0  0  0  0  0  0  0  0  0  0  0  0
    1.7739  -10.6603   14.8691 C   0  0  0  0  0  0  0  0  0  0  0  0
    2.8967  -10.0308   15.4443 C   0  0  0  0  0  0  0  0  0  0  0  0
    5.5937   -5.6160   27.7155 C   0  0  0  0  0  0  0  0  0  0  0  0
    6.9571   -7.5137   27.3810 C   0  0  0  0  0  0  0  0  0  0  0  0
    0.8975   -5.2808   27.3636 C   0  0  0  0  0  0  0  0  0  0  0  0
    3.3073   -5.5392   27.1886 C   0  0  0  0  0  0  0  0  0  0  0  0
  1 22  4  0
  1 26  4  0
  2 27  4  0
  2 28  4  0
  3  9  4  0
  3 20  4  0
  4 22  4  0
  4 25  4  0
  4 28  1  0
  5  8  4  0
  5 17  4  0
  6 12  1  0
  6 20  4  0
  6 23  4  0
  7 18  2  0
  8 27  4  0
  9 19  1  0
  9 23  4  0
 10 11  1  0
 11 14  2  0
 11 27  1  0
 13 20  2  0
 15 18  1  0
 16 25  4  0
 16 26  4  0
 17 28  4  0
 18 21  1  0
 21 26  1  0
 23 24  1  0
M  END
$$$$

 Created by Python create_sdf_string function

 28 51  0  0  0  0  0  0  0  0999 V2000
    5.9328   -8.1890   26.9488 C   0  0  0  0  0  0  0  0  0  0  0  0
    2.2771   -5.5799   27.3773 C   0  0  0  0  0  0  0  0  0  0  0  0
   -0.4369  -10.6804   14.2281 N   0  0  0  0  0  0  0  0  0  0  0  0
    4.4359   -5.9789   26.7983 C   0  0  0  0  0  0  0  0  0  0  0  0
    1.7648  -11.6896   13.9608 C   0  0  0  0  0  0  0  0  0  0  0  0
    9.0210   -8.9934   29.2309 O   0  0  0  0  0  0  0  0  0  0  0  0
    0.9936   -4.3601   26.4753 Cl  0  0  0  0  0  0  0  0  0  0  0  0
    0.5042  -10.2416   15.1360 C   0  0  0  0  0  0  0  0  0  0  0  0
   -1.7683   -5.1035   27.1234 O   0  0  0  0  0  0  0  0  0  0  0  0
   -0.4553   -5.9749   27.3921 N   0  0  0  0  0  0  0  0  0  0  0  0
    2.9439  -12.5987   13.3880 C   0  0  0  0  0  0  0  0  0  0  0  0
    0.0780  -12.8319   13.3019 N   0  0  0  0  0  0  0  0  0  0  0  0
   -0.1971   -6.1976   28.7845 O   0  0  0  0  0  0  0  0  0  0  0  0
    9.9554   -6.9344   27.8552 C   0  0  0  0  0  0  0  0  0  0  0  0
    7.0163   -6.7511   27.7270 C   0  0  0  0  0  0  0  0  0  0  0  0
    3.6000   -4.0306   26.3836 C   0  0  0  0  0  0  0  0  0  0  0  0
    8.9107   -8.0554   28.1682 C   0  0  0  0  0  0  0  0  0  0  0  0
    0.4721  -12.1659   13.3040 C   0  0  0  0  0  0  0  0  0  0  0  0
    7.9000   -7.4768   27.0438 N   0  0  0  0  0  0  0  0  0  0  0  0
    1.3116  -10.8251   15.1591 C   0  0  0  0  0  0  0  0  0  0  0  0
    2.8806   -9.5933   15.6192 C   0  0  0  0  0  0  0  0  0  0  0  0
    5.9148   -5.6022   27.6765 C   0  0  0  0  0  0  0  0  0  0  0  0
    7.4068   -7.3957   27.3665 C   0  0  0  0  0  0  0  0  0  0  0  0
    1.1884   -5.4212   27.4321 O   0  0  0  0  0  0  0  0  0  0  0  0
    3.0484   -5.6520   27.1312 C   0  0  0  0  0  0  0  0  0  0  0  0
    2.6168   -3.1963   26.3809 He  0  0  0  0  0  0  0  0  0  0  0  0
    0.1655   -9.4652   16.0790 He  0  0  0  0  0  0  0  0  0  0  0  0
    4.8168   -7.5405   26.6357 He  0  0  0  0  0  0  0  0  0  0  0  0
  1  3  4  0
  1 19  2  0
  1 23  4  0
  2  3  2  0
  2 23  2  0
  2 24  4  0
  2 25  4  0
  3  4  1  0
  3  9  4  0
  3 11  4  0
  4  9  4  0
  4 17  4  0
  4 25  1  0
  5  7  4  0
  5 11  1  0
  5 12  4  0
  5 16  1  0
  5 18  4  0
  5 21  2  0
  6  7  2  0
  6 13  3  0
  6 17  2  0
  7 22  3  0
  7 24  4  0
  8 13  2  0
  8 15  1  0
  8 20  4  0
  9 10  1  0
  9 13  1  0
 10 12  4  0
 10 13  2  0
 10 24  1  0
 11 18  3  0
 12 18  2  0
 12 25  2  0
 14 17  1  0
 15 18  1  0
 15 20  2  0
 15 22  4  0
 15 23  4  0
 15 25  3  0
 16 25  3  0
 17 18  1  0
 17 19  1  0
 17 23  3  0
 17 24  2  0
 17 25  2  0
 19 23  1  0
 20 21  1  0
 20 24  4  0
 22 23  2  0
M  END
$$$$

 Created by Python create_sdf_string function

 28 29  0  0  0  0  0  0  0  0999 V2000
    5.8444   -8.1617   26.7416 C   0  0  0  0  0  0  0  0  0  0  0  0
    2.1740   -6.0125   27.3420 C   0  0  0  0  0  0  0  0  0  0  0  0
   -0.3627  -11.0370   14.3457 N   0  0  0  0  0  0  0  0  0  0  0  0
    4.5264   -6.1399   27.1595 C   0  0  0  0  0  0  0  0  0  0  0  0
    2.2410   -3.2754   26.4533 C   0  0  0  0  0  0  0  0  0  0  0  0
    1.7641  -11.7109   14.0267 C   0  0  0  0  0  0  0  0  0  0  0  0
    9.0753   -8.7827   29.2292 O   0  0  0  0  0  0  0  0  0  0  0  0
    1.0629   -3.9030   26.6943 C   0  0  0  0  0  0  0  0  0  0  0  0
    0.3361  -10.2414   15.1112 C   0  0  0  0  0  0  0  0  0  0  0  0
   -1.3903   -5.3020   27.0119 O   0  0  0  0  0  0  0  0  0  0  0  0
   -0.2619   -5.7194   27.7037 N   0  0  0  0  0  0  0  0  0  0  0  0
    2.9016  -12.4203   13.5626 C   0  0  0  0  0  0  0  0  0  0  0  0
   -0.1259  -12.8582   12.8267 N   0  0  0  0  0  0  0  0  0  0  0  0
   -0.3088   -6.4963   28.6632 O   0  0  0  0  0  0  0  0  0  0  0  0
   10.1983   -7.0211   27.9782 C   0  0  0  0  0  0  0  0  0  0  0  0
    6.8815   -6.2072   27.7233 C   0  0  0  0  0  0  0  0  0  0  0  0
    3.3900   -4.0112   26.6691 C   0  0  0  0  0  0  0  0  0  0  0  0
    9.0790   -8.0381   28.2070 C   0  0  0  0  0  0  0  0  0  0  0  0
   -0.0930   -9.2841   16.0470 C   0  0  0  0  0  0  0  0  0  0  0  0
    0.3038  -11.9260   13.6746 C   0  0  0  0  0  0  0  0  0  0  0  0
    8.1551   -8.0449   27.2389 N   0  0  0  0  0  0  0  0  0  0  0  0
    4.6393   -7.4308   26.7112 C   0  0  0  0  0  0  0  0  0  0  0  0
    1.7372  -10.6260   14.9118 C   0  0  0  0  0  0  0  0  0  0  0  0
    2.8043  -10.0211   15.5684 C   0  0  0  0  0  0  0  0  0  0  0  0
    5.6597   -5.5427   27.6635 C   0  0  0  0  0  0  0  0  0  0  0  0
    6.9689   -7.4822   27.2700 C   0  0  0  0  0  0  0  0  0  0  0  0
    1.0287   -5.1943   27.2262 C   0  0  0  0  0  0  0  0  0  0  0  0
    3.3957   -5.4355   27.0484 C   0  0  0  0  0  0  0  0  0  0  0  0
  1 22  4  0
  1 26  4  0
  2 27  4  0
  2 28  4  0
  3  9  4  0
  3 20  4  0
  4 22  4  0
  4 25  4  0
  4 28  1  0
  5  8  4  0
  5 17  4  0
  6 12  1  0
  6 20  4  0
  6 23  4  0
  7 18  2  0
  8 27  4  0
  9 19  1  0
  9 23  4  0
 10 11  1  0
 11 14  2  0
 11 27  1  0
 13 20  2  0
 15 18  1  0
 16 25  4  0
 16 26  4  0
 17 28  4  0
 18 21  1  0
 21 26  1  0
 23 24  1  0
M  END
$$$$

 Created by Python create_sdf_string function

 28 50  0  0  0  0  0  0  0  0999 V2000
    6.0331   -8.2080   26.9517 C   0  0  0  0  0  0  0  0  0  0  0  0
    1.3937   -5.8450   27.3901 C   0  0  0  0  0  0  0  0  0  0  0  0
    4.5631   -6.5931   26.7868 C   0  0  0  0  0  0  0  0  0  0  0  0
    2.1575   -3.2092   26.4895 C   0  0  0  0  0  0  0  0  0  0  0  0
    1.8191  -11.1364   14.1315 C   0  0  0  0  0  0  0  0  0  0  0  0
    8.6982   -8.8650   29.1783 O   0  0  0  0  0  0  0  0  0  0  0  0
    1.0694   -4.5533   26.5758 C   0  0  0  0  0  0  0  0  0  0  0  0
   -1.4216   -5.2221   27.2741 O   0  0  0  0  0  0  0  0  0  0  0  0
   -0.1665   -5.4613   27.7708 N   0  0  0  0  0  0  0  0  0  0  0  0
    2.5216  -12.7251   13.3217 C   0  0  0  0  0  0  0  0  0  0  0  0
   -0.2294  -12.8653   12.9144 N   0  0  0  0  0  0  0  0  0  0  0  0
   -0.6210   -6.6143   28.6744 B   0  0  0  0  0  0  0  0  0  0  0  0
   10.3166   -7.2114   28.2356 C   0  0  0  0  0  0  0  0  0  0  0  0
    7.1516   -6.2582   27.6045 C   0  0  0  0  0  0  0  0  0  0  0  0
    3.4830   -4.3174   26.3320 C   0  0  0  0  0  0  0  0  0  0  0  0
    9.4285   -7.6125   28.2055 C   0  0  0  0  0  0  0  0  0  0  0  0
   -0.2188   -8.8236   16.0059 C   0  0  0  0  0  0  0  0  0  0  0  0
    0.1018  -12.1062   13.7941 C   0  0  0  0  0  0  0  0  0  0  0  0
    4.5721   -7.3810   27.0953 C   0  0  0  0  0  0  0  0  0  0  0  0
    1.7799  -10.7042   14.9266 C   0  0  0  0  0  0  0  0  0  0  0  0
    2.8489  -10.0481   15.2185 C   0  0  0  0  0  0  0  0  0  0  0  0
    7.0481   -7.4317   27.0324 C   0  0  0  0  0  0  0  0  0  0  0  0
    1.0794   -5.2298   27.2252 C   0  0  0  0  0  0  0  0  0  0  0  0
    4.0131   -5.2320   27.0100 S   0  0  0  0  0  0  0  0  0  0  0  0
   -0.2605  -10.7974   14.2287 He  0  0  0  0  0  0  0  0  0  0  0  0
    0.2927  -10.3420   14.7868 He  0  0  0  0  0  0  0  0  0  0  0  0
    7.9341   -8.3101   27.1138 He  0  0  0  0  0  0  0  0  0  0  0  0
    5.7551   -5.9956   26.9062 He  0  0  0  0  0  0  0  0  0  0  0  0
  1  5  2  0
  1 18  3  0
  1 22  4  0
  2 17  2  0
  2 20  2  0
  2 23  4  0
  2 24  4  0
  3  7  3  0
  3  8  2  0
  3 19  4  0
  3 24  1  0
  4  7  4  0
  4 13  2  0
  4 15  4  0
  4 23  1  0
  5 10  1  0
  5 15  4  0
  5 16  3  0
  5 18  4  0
  5 19  2  0
  5 20  4  0
  6 13  3  0
  6 16  2  0
  6 19  4  0
  7 23  4  0
  8 11  4  0
  8 15  4  0
  8 19  3  0
  8 20  3  0
  8 24  3  0
  9 12  2  0
  9 23  1  0
 10 22  2  0
 10 24  1  0
 11 18  2  0
 12 14  2  0
 12 24  4  0
 13 16  1  0
 14 19  3  0
 14 22  4  0
 15 19  1  0
 15 20  3  0
 15 21  3  0
 15 24  4  0
 16 19  2  0
 16 22  2  0
 18 22  4  0
 20 21  1  0
 20 24  3  0
 22 23  3  0
M  END
$$$$

 Created by Python create_sdf_string function

 28 29  0  0  0  0  0  0  0  0999 V2000
    5.8609   -8.3205   27.0209 C   0  0  0  0  0  0  0  0  0  0  0  0
    2.1344   -6.0878   27.3744 C   0  0  0  0  0  0  0  0  0  0  0  0
   -0.4381  -10.9185   14.3476 N   0  0  0  0  0  0  0  0  0  0  0  0
    4.5593   -6.2437   27.0529 C   0  0  0  0  0  0  0  0  0  0  0  0
    2.1987   -3.3936   26.4648 C   0  0  0  0  0  0  0  0  0  0  0  0
    1.6170  -11.6582   13.9823 C   0  0  0  0  0  0  0  0  0  0  0  0
    8.8829   -8.6932   29.3521 O   0  0  0  0  0  0  0  0  0  0  0  0
    1.0224   -3.9789   26.7863 C   0  0  0  0  0  0  0  0  0  0  0  0
    0.3774  -10.1040   15.0402 C   0  0  0  0  0  0  0  0  0  0  0  0
   -1.4689   -5.2653   27.2308 O   0  0  0  0  0  0  0  0  0  0  0  0
   -0.3221   -5.8059   27.7626 N   0  0  0  0  0  0  0  0  0  0  0  0
    2.6614  -12.4658   13.4821 C   0  0  0  0  0  0  0  0  0  0  0  0
   -0.3137  -12.8243   12.9636 N   0  0  0  0  0  0  0  0  0  0  0  0
   -0.3671   -6.6471   28.6610 O   0  0  0  0  0  0  0  0  0  0  0  0
   10.2903   -7.1595   28.0848 C   0  0  0  0  0  0  0  0  0  0  0  0
    6.9294   -6.2165   27.2626 C   0  0  0  0  0  0  0  0  0  0  0  0
    3.3716   -4.1602   26.6280 C   0  0  0  0  0  0  0  0  0  0  0  0
    9.1037   -8.0349   28.2942 C   0  0  0  0  0  0  0  0  0  0  0  0
   -0.0147   -9.0008   15.8567 C   0  0  0  0  0  0  0  0  0  0  0  0
    0.1740  -11.8848   13.6829 C   0  0  0  0  0  0  0  0  0  0  0  0
    8.2389   -8.1631   27.2051 N   0  0  0  0  0  0  0  0  0  0  0  0
    4.5879   -7.5999   26.9242 C   0  0  0  0  0  0  0  0  0  0  0  0
    1.7339  -10.5264   14.8335 C   0  0  0  0  0  0  0  0  0  0  0  0
    2.8569   -9.9430   15.3458 C   0  0  0  0  0  0  0  0  0  0  0  0
    5.7198   -5.5638   27.2014 C   0  0  0  0  0  0  0  0  0  0  0  0
    7.0018   -7.5722   27.1897 C   0  0  0  0  0  0  0  0  0  0  0  0
    0.9809   -5.2744   27.2902 C   0  0  0  0  0  0  0  0  0  0  0  0
    3.3906   -5.5258   27.0131 C   0  0  0  0  0  0  0  0  0  0  0  0
  1 22  4  0
  1 26  4  0
  2 27  4  0
  2 28  4  0
  3  9  4  0
  3 20  4  0
  4 22  4  0
  4 25  4  0
  4 28  1  0
  5  8  4  0
  5 17  4  0
  6 12  1  0
  6 20  4  0
  6 23  4  0
  7 18  2  0
  8 27  4  0
  9 19  1  0
  9 23  4  0
 10 11  1  0
 11 14  2  0
 11 27  1  0
 13 20  2  0
 15 18  1  0
 16 25  4  0
 16 26  4  0
 17 28  4  0
 18 21  1  0
 21 26  1  0
 23 24  1  0
M  END
$$$$

 Created by Python create_sdf_string function

 28 47  0  0  0  0  0  0  0  0999 V2000
    6.3118   -8.1061   27.0036 C   0  0  0  0  0  0  0  0  0  0  0  0
    2.1886   -6.2379   27.3959 C   0  0  0  0  0  0  0  0  0  0  0  0
   -0.4666  -10.9727   14.4702 O   0  0  0  0  0  0  0  0  0  0  0  0
    4.6249   -5.8347   27.0060 C   0  0  0  0  0  0  0  0  0  0  0  0
    2.2573   -3.3800   26.4928 C   0  0  0  0  0  0  0  0  0  0  0  0
    1.7102  -11.5762   13.6669 C   0  0  0  0  0  0  0  0  0  0  0  0
    8.4918   -8.3366   29.5408 O   0  0  0  0  0  0  0  0  0  0  0  0
    0.9412   -3.7253   26.9801 C   0  0  0  0  0  0  0  0  0  0  0  0
    0.2092   -9.8205   15.3649 N   0  0  0  0  0  0  0  0  0  0  0  0
   -1.5328   -5.0696   27.2510 O   0  0  0  0  0  0  0  0  0  0  0  0
   -0.1900   -6.2788   27.8681 N   0  0  0  0  0  0  0  0  0  0  0  0
    2.7625  -12.1975   13.1338 C   0  0  0  0  0  0  0  0  0  0  0  0
   -0.1016  -12.4964   13.0096 N   0  0  0  0  0  0  0  0  0  0  0  0
   10.2125   -7.1599   28.1206 C   0  0  0  0  0  0  0  0  0  0  0  0
    7.2284   -6.5317   27.5147 C   0  0  0  0  0  0  0  0  0  0  0  0
    3.6073   -3.8818   26.3240 C   0  0  0  0  0  0  0  0  0  0  0  0
    9.4473   -7.9900   28.2733 C   0  0  0  0  0  0  0  0  0  0  0  0
   -0.0983   -8.5679   16.2188 C   0  0  0  0  0  0  0  0  0  0  0  0
    0.1260  -12.1384   13.2242 C   0  0  0  0  0  0  0  0  0  0  0  0
    8.6073   -8.3484   27.5089 N   0  0  0  0  0  0  0  0  0  0  0  0
    1.6163  -10.5637   14.3808 C   0  0  0  0  0  0  0  0  0  0  0  0
    2.3766   -9.8303   15.6621 C   0  0  0  0  0  0  0  0  0  0  0  0
    5.9506   -5.5719   27.8663 C   0  0  0  0  0  0  0  0  0  0  0  0
    7.1090   -7.7264   27.5937 C   0  0  0  0  0  0  0  0  0  0  0  0
    0.9217   -5.0983   27.3399 C   0  0  0  0  0  0  0  0  0  0  0  0
    3.6670   -5.5171   27.0344 I   0  0  0  0  0  0  0  0  0  0  0  0
   -0.8744   -6.6989   28.6772 He  0  0  0  0  0  0  0  0  0  0  0  0
    4.7889   -7.6899   26.8298 He  0  0  0  0  0  0  0  0  0  0  0  0
  1  2  1  0
  1 14  1  0
  1 24  4  0
  2 14  4  0
  2 16  4  0
  2 22  4  0
  2 25  4  0
  2 26  4  0
  3  7  2  0
  3  9  4  0
  3 18  1  0
  3 26  4  0
  4  7  3  0
  4 16  3  0
  4 23  4  0
  5  8  4  0
  5 13  4  0
  5 16  4  0
  6  8  4  0
  6 10  2  0
  6 12  2  0
  6 15  1  0
  6 19  1  0
  6 21  4  0
  7 17  2  0
  8 25  4  0
  9 10  3  0
  9 17  2  0
  9 18  1  0
  9 21  4  0
  9 22  2  0
 10 11  1  0
 11 12  1  0
 11 17  3  0
 11 25  1  0
 12 19  4  0
 13 14  1  0
 13 19  4  0
 14 17  1  0
 15 18  1  0
 15 23  3  0
 15 24  4  0
 16 20  4  0
 17 20  1  0
 18 23  4  0
 21 22  1  0
 21 23  1  0
M  END
$$$$

 Created by Python create_sdf_string function

 28 29  0  0  0  0  0  0  0  0999 V2000
    5.9607   -8.1987   26.8898 C   0  0  0  0  0  0  0  0  0  0  0  0
    2.2443   -6.0669   27.3985 C   0  0  0  0  0  0  0  0  0  0  0  0
   -0.5496  -10.8722   14.4135 O   0  0  0  0  0  0  0  0  0  0  0  0
    4.6204   -6.1518   27.1612 C   0  0  0  0  0  0  0  0  0  0  0  0
    2.2242   -3.3260   26.6235 C   0  0  0  0  0  0  0  0  0  0  0  0
    1.6101  -11.4588   13.8117 C   0  0  0  0  0  0  0  0  0  0  0  0
    8.8455   -8.3479   29.6098 O   0  0  0  0  0  0  0  0  0  0  0  0
    1.0506   -3.9459   26.8850 C   0  0  0  0  0  0  0  0  0  0  0  0
    0.2440  -10.0595   15.0901 N   0  0  0  0  0  0  0  0  0  0  0  0
   -1.3970   -5.2979   27.2573 O   0  0  0  0  0  0  0  0  0  0  0  0
   -0.2282   -5.8490   27.8120 N   0  0  0  0  0  0  0  0  0  0  0  0
    2.5902  -12.0454   13.1837 C   0  0  0  0  0  0  0  0  0  0  0  0
   -0.3198  -12.7034   12.8742 N   0  0  0  0  0  0  0  0  0  0  0  0
   -0.2724   -6.7278   28.6388 O   0  0  0  0  0  0  0  0  0  0  0  0
   10.3578   -7.1649   28.1059 C   0  0  0  0  0  0  0  0  0  0  0  0
    6.9953   -6.2387   27.6927 C   0  0  0  0  0  0  0  0  0  0  0  0
    3.4285   -4.0384   26.7234 C   0  0  0  0  0  0  0  0  0  0  0  0
    9.1362   -7.9583   28.4955 C   0  0  0  0  0  0  0  0  0  0  0  0
   -0.1123   -8.9978   15.9816 C   0  0  0  0  0  0  0  0  0  0  0  0
    0.1403  -11.7753   13.6216 C   0  0  0  0  0  0  0  0  0  0  0  0
    8.2921   -8.1755   27.3884 N   0  0  0  0  0  0  0  0  0  0  0  0
    4.7038   -7.4843   26.8255 C   0  0  0  0  0  0  0  0  0  0  0  0
    1.6138  -10.4040   14.7871 C   0  0  0  0  0  0  0  0  0  0  0  0
    2.7278   -9.7364   15.4372 C   0  0  0  0  0  0  0  0  0  0  0  0
    5.7788   -5.5225   27.5548 C   0  0  0  0  0  0  0  0  0  0  0  0
    7.0956   -7.5426   27.3598 C   0  0  0  0  0  0  0  0  0  0  0  0
    1.0533   -5.2809   27.3453 C   0  0  0  0  0  0  0  0  0  0  0  0
    3.4598   -5.4612   27.0880 C   0  0  0  0  0  0  0  0  0  0  0  0
  1 22  4  0
  1 26  4  0
  2 27  4  0
  2 28  4  0
  3  9  4  0
  3 20  4  0
  4 22  4  0
  4 25  4  0
  4 28  1  0
  5  8  4  0
  5 17  4  0
  6 12  2  0
  6 20  4  0
  6 23  4  0
  7 18  2  0
  8 27  4  0
  9 19  1  0
  9 23  4  0
 10 11  1  0
 11 14  2  0
 11 27  1  0
 13 20  2  0
 15 18  1  0
 16 25  4  0
 16 26  4  0
 17 28  4  0
 18 21  1  0
 21 26  1  0
 23 24  1  0
M  END
$$$$

 Created by Python create_sdf_string function

 28 39  0  0  0  0  0  0  0  0999 V2000
   -0.3898  -10.8712   14.5694 O   0  0  0  0  0  0  0  0  0  0  0  0
    4.5514   -6.4828   27.2112 C   0  0  0  0  0  0  0  0  0  0  0  0
    1.9167   -3.4532   26.3088 C   0  0  0  0  0  0  0  0  0  0  0  0
    1.5454  -11.2603   14.1759 C   0  0  0  0  0  0  0  0  0  0  0  0
    8.5475   -8.5874   29.8278 O   0  0  0  0  0  0  0  0  0  0  0  0
    1.0614   -3.9143   27.1558 P   0  0  0  0  0  0  0  0  0  0  0  0
    0.5477   -9.8806   15.2808 N   0  0  0  0  0  0  0  0  0  0  0  0
   -1.2589   -5.1164   26.7923 O   0  0  0  0  0  0  0  0  0  0  0  0
   -0.3400   -5.7328   27.5795 N   0  0  0  0  0  0  0  0  0  0  0  0
    0.1609  -12.7958   12.9188 N   0  0  0  0  0  0  0  0  0  0  0  0
    0.0884   -6.9189   28.2118 O   0  0  0  0  0  0  0  0  0  0  0  0
   10.0416   -6.9665   27.5342 O   0  0  0  0  0  0  0  0  0  0  0  0
    6.7416   -6.4651   27.8509 C   0  0  0  0  0  0  0  0  0  0  0  0
    3.4846   -4.2180   27.0484 C   0  0  0  0  0  0  0  0  0  0  0  0
    9.1286   -7.9613   28.3806 C   0  0  0  0  0  0  0  0  0  0  0  0
    0.5126   -8.6568   15.9211 C   0  0  0  0  0  0  0  0  0  0  0  0
    0.0252  -12.1606   14.0611 C   0  0  0  0  0  0  0  0  0  0  0  0
    8.1935   -8.1989   27.5033 N   0  0  0  0  0  0  0  0  0  0  0  0
    4.9290   -6.8582   27.3140 C   0  0  0  0  0  0  0  0  0  0  0  0
    1.8375  -10.3657   14.3055 F   0  0  0  0  0  0  0  0  0  0  0  0
    5.3199   -5.1335   27.7416 C   0  0  0  0  0  0  0  0  0  0  0  0
    3.3688   -5.4666   26.9605 C   0  0  0  0  0  0  0  0  0  0  0  0
    5.8121   -7.9200   26.9944 He  0  0  0  0  0  0  0  0  0  0  0  0
    2.2681   -5.9349   27.4546 He  0  0  0  0  0  0  0  0  0  0  0  0
    2.5260  -12.4844   13.4635 He  0  0  0  0  0  0  0  0  0  0  0  0
    3.0303   -9.2882   15.8852 He  0  0  0  0  0  0  0  0  0  0  0  0
    6.9752   -7.4270   26.8331 He  0  0  0  0  0  0  0  0  0  0  0  0
    0.9945   -5.1760   27.5285 He  0  0  0  0  0  0  0  0  0  0  0  0
  1  3  1  0
  1  4  2  0
  1  7  4  0
  1  8  2  0
  1  9  2  0
  1 11  1  0
  1 16  1  0
  1 17  4  0
  2 21  4  0
  3 13  2  0
  3 14  4  0
  4 17  4  0
  4 18  3  0
  4 19  1  0
  5 11  2  0
  5 15  2  0
  5 20  2  0
  6 10  2  0
  6 12  4  0
  7 12  3  0
  7 15  1  0
  7 16  4  0
  7 20  4  0
  8  9  1  0
  8 20  4  0
  9 10  2  0
  9 11  2  0
  9 15  4  0
 10 17  2  0
 11 12  3  0
 11 21  3  0
 12 15  1  0
 13 17  1  0
 13 21  4  0
 14 19  3  0
 14 22  4  0
 15 16  2  0
 15 18  1  0
 15 20  2  0
M  END
$$$$

 Created by Python create_sdf_string function

 28 29  0  0  0  0  0  0  0  0999 V2000
    5.7894   -8.1662   26.9039 C   0  0  0  0  0  0  0  0  0  0  0  0
    2.1433   -6.0025   27.4774 C   0  0  0  0  0  0  0  0  0  0  0  0
   -0.3932  -10.7766   14.5927 N   0  0  0  0  0  0  0  0  0  0  0  0
    4.5144   -6.0922   27.2689 C   0  0  0  0  0  0  0  0  0  0  0  0
    2.1799   -3.2563   26.7116 C   0  0  0  0  0  0  0  0  0  0  0  0
    1.7231  -11.5291   14.0516 C   0  0  0  0  0  0  0  0  0  0  0  0
    8.8500   -8.3647   29.5505 O   0  0  0  0  0  0  0  0  0  0  0  0
    0.9939   -3.8692   26.8674 C   0  0  0  0  0  0  0  0  0  0  0  0
    0.4665   -9.9704   15.1362 N   0  0  0  0  0  0  0  0  0  0  0  0
   -1.3817   -5.3577   27.0457 O   0  0  0  0  0  0  0  0  0  0  0  0
   -0.2497   -5.8855   27.5860 N   0  0  0  0  0  0  0  0  0  0  0  0
    2.6359  -12.1953   13.5904 O   0  0  0  0  0  0  0  0  0  0  0  0
   -0.2676  -12.7738   13.2496 N   0  0  0  0  0  0  0  0  0  0  0  0
   -0.2907   -6.8619   28.3254 O   0  0  0  0  0  0  0  0  0  0  0  0
   10.0118   -7.0636   27.8754 C   0  0  0  0  0  0  0  0  0  0  0  0
    6.8662   -6.1839   27.7716 C   0  0  0  0  0  0  0  0  0  0  0  0
    3.3575   -4.0120   26.8166 C   0  0  0  0  0  0  0  0  0  0  0  0
    9.0498   -7.9150   28.3828 C   0  0  0  0  0  0  0  0  0  0  0  0
    0.0998   -8.7911   15.8795 C   0  0  0  0  0  0  0  0  0  0  0  0
    0.2330  -11.7741   13.8879 C   0  0  0  0  0  0  0  0  0  0  0  0
    8.1088   -8.2017   27.3230 N   0  0  0  0  0  0  0  0  0  0  0  0
    4.5890   -7.4298   26.8379 C   0  0  0  0  0  0  0  0  0  0  0  0
    1.8243  -10.3481   14.8763 C   0  0  0  0  0  0  0  0  0  0  0  0
    2.9375   -9.5882   15.3592 C   0  0  0  0  0  0  0  0  0  0  0  0
    5.6621   -5.4679   27.6983 C   0  0  0  0  0  0  0  0  0  0  0  0
    6.8963   -7.4944   27.3794 C   0  0  0  0  0  0  0  0  0  0  0  0
    1.0089   -5.2208   27.2802 C   0  0  0  0  0  0  0  0  0  0  0  0
    3.3540   -5.3735   27.1997 C   0  0  0  0  0  0  0  0  0  0  0  0
  1 22  4  0
  1 26  4  0
  2 27  4  0
  2 28  4  0
  3  9  4  0
  3 20  4  0
  4 22  4  0
  4 25  4  0
  4 28  1  0
  5  8  4  0
  5 17  4  0
  6 12  2  0
  6 20  4  0
  6 23  4  0
  7 18  2  0
  8 27  4  0
  9 19  1  0
  9 23  4  0
 10 11  1  0
 11 14  2  0
 11 27  1  0
 13 20  2  0
 15 18  1  0
 16 25  4  0
 16 26  4  0
 17 28  4  0
 18 21  1  0
 21 26  1  0
 23 24  1  0
M  END
$$$$

 Created by Python create_sdf_string function

 28 40  0  0  0  0  0  0  0  0999 V2000
    1.7646   -5.8190   27.5567 C   0  0  0  0  0  0  0  0  0  0  0  0
   -0.4343  -10.8161   14.5003 N   0  0  0  0  0  0  0  0  0  0  0  0
    4.4639   -6.1730   27.3443 C   0  0  0  0  0  0  0  0  0  0  0  0
    1.9077   -3.1398   26.8201 C   0  0  0  0  0  0  0  0  0  0  0  0
    1.8245  -11.4849   14.0144 C   0  0  0  0  0  0  0  0  0  0  0  0
    8.7662   -8.5572   29.5652 O   0  0  0  0  0  0  0  0  0  0  0  0
    1.3146   -3.6405   26.5674 C   0  0  0  0  0  0  0  0  0  0  0  0
    0.5962   -9.7499   15.3112 N   0  0  0  0  0  0  0  0  0  0  0  0
   -1.1910   -5.9342   26.7988 O   0  0  0  0  0  0  0  0  0  0  0  0
   -0.3349   -5.6844   27.8002 N   0  0  0  0  0  0  0  0  0  0  0  0
   -0.2863  -13.0356   13.3568 N   0  0  0  0  0  0  0  0  0  0  0  0
   -0.1497   -6.6310   28.1690 O   0  0  0  0  0  0  0  0  0  0  0  0
    9.5783   -7.4094   28.1495 C   0  0  0  0  0  0  0  0  0  0  0  0
    6.6162   -6.0102   27.9396 C   0  0  0  0  0  0  0  0  0  0  0  0
    3.8060   -3.9916   27.2339 C   0  0  0  0  0  0  0  0  0  0  0  0
    9.1164   -7.7846   28.5948 C   0  0  0  0  0  0  0  0  0  0  0  0
   -0.2254   -8.5787   15.7554 C   0  0  0  0  0  0  0  0  0  0  0  0
    0.2031  -11.5585   14.4492 C   0  0  0  0  0  0  0  0  0  0  0  0
    8.0351   -8.2622   27.5879 N   0  0  0  0  0  0  0  0  0  0  0  0
    2.0282  -10.6484   15.0750 C   0  0  0  0  0  0  0  0  0  0  0  0
    2.8581   -9.2174   15.2561 C   0  0  0  0  0  0  0  0  0  0  0  0
    5.5593   -5.6488   27.4771 C   0  0  0  0  0  0  0  0  0  0  0  0
    6.7476   -7.4190   27.2229 C   0  0  0  0  0  0  0  0  0  0  0  0
    0.7638   -5.5862   26.9035 N   0  0  0  0  0  0  0  0  0  0  0  0
    3.2508   -5.5777   27.6204 C   0  0  0  0  0  0  0  0  0  0  0  0
    5.8140   -8.6018   26.9748 He  0  0  0  0  0  0  0  0  0  0  0  0
    2.8242  -12.2139   13.7207 He  0  0  0  0  0  0  0  0  0  0  0  0
    4.2824   -6.9824   27.2967 He  0  0  0  0  0  0  0  0  0  0  0  0
  1  5  4  0
  1 11  4  0
  1 24  4  0
  1 25  4  0
  2  6  2  0
  2  8  4  0
  2 18  4  0
  3 19  3  0
  3 21  2  0
  3 22  4  0
  3 25  1  0
  4  5  4  0
  4  7  4  0
  5 11  1  0
  5 17  4  0
  5 20  4  0
  6  8  1  0
  6 20  3  0
  6 22  3  0
  7 24  4  0
  8 17  1  0
  8 18  3  0
  8 20  4  0
  9 10  1  0
  9 15  3  0
  9 22  1  0
 10 12  1  0
 10 18  4  0
 10 24  1  0
 11 13  1  0
 11 18  4  0
 13 15  2  0
 13 16  1  0
 13 19  3  0
 14 17  4  0
 14 23  4  0
 17 20  3  0
 19 23  1  0
 20 21  1  0
 21 22  2  0
M  END
$$$$

 Created by Python create_sdf_string function

 28 29  0  0  0  0  0  0  0  0999 V2000
    5.6362   -8.1967   27.0995 C   0  0  0  0  0  0  0  0  0  0  0  0
    2.0605   -5.9574   27.4365 C   0  0  0  0  0  0  0  0  0  0  0  0
   -0.4197  -10.7863   14.6787 N   0  0  0  0  0  0  0  0  0  0  0  0
    4.4374   -6.0744   27.3398 C   0  0  0  0  0  0  0  0  0  0  0  0
    2.1459   -3.1927   26.7910 C   0  0  0  0  0  0  0  0  0  0  0  0
    1.7949  -11.4586   14.2190 C   0  0  0  0  0  0  0  0  0  0  0  0
    8.8529   -8.5714   29.6482 O   0  0  0  0  0  0  0  0  0  0  0  0
    0.9938   -3.8377   26.8219 C   0  0  0  0  0  0  0  0  0  0  0  0
    0.4087   -9.8905   15.1413 N   0  0  0  0  0  0  0  0  0  0  0  0
   -1.3533   -5.5142   26.7068 O   0  0  0  0  0  0  0  0  0  0  0  0
   -0.3303   -5.8316   27.4902 N   0  0  0  0  0  0  0  0  0  0  0  0
    2.7162  -12.1615   13.7801 O   0  0  0  0  0  0  0  0  0  0  0  0
   -0.2327  -12.8249   13.5129 N   0  0  0  0  0  0  0  0  0  0  0  0
   -0.4036   -6.7048   28.4104 O   0  0  0  0  0  0  0  0  0  0  0  0
   10.0153   -7.1431   28.0382 C   0  0  0  0  0  0  0  0  0  0  0  0
    6.8033   -6.1769   27.6735 C   0  0  0  0  0  0  0  0  0  0  0  0
    3.3106   -3.8937   27.1019 C   0  0  0  0  0  0  0  0  0  0  0  0
    8.8669   -8.0135   28.5334 C   0  0  0  0  0  0  0  0  0  0  0  0
   -0.0536   -8.6709   15.8321 C   0  0  0  0  0  0  0  0  0  0  0  0
    0.3037  -11.7468   14.1097 C   0  0  0  0  0  0  0  0  0  0  0  0
    7.9116   -8.2390   27.6093 N   0  0  0  0  0  0  0  0  0  0  0  0
    4.4602   -7.4732   27.0514 C   0  0  0  0  0  0  0  0  0  0  0  0
    1.7752  -10.2183   14.9105 C   0  0  0  0  0  0  0  0  0  0  0  0
    2.8451   -9.4118   15.3252 C   0  0  0  0  0  0  0  0  0  0  0  0
    5.6452   -5.4720   27.6565 C   0  0  0  0  0  0  0  0  0  0  0  0
    6.7692   -7.5020   27.4745 C   0  0  0  0  0  0  0  0  0  0  0  0
    0.9113   -5.1853   27.2554 C   0  0  0  0  0  0  0  0  0  0  0  0
    3.2644   -5.3474   27.2809 C   0  0  0  0  0  0  0  0  0  0  0  0
  1 22  4  0
  1 26  4  0
  2 27  4  0
  2 28  4  0
  3  9  4  0
  3 20  4  0
  4 22  4  0
  4 25  4  0
  4 28  1  0
  5  8  4  0
  5 17  4  0
  6 12  2  0
  6 20  4  0
  6 23  4  0
  7 18  2  0
  8 27  4  0
  9 19  1  0
  9 23  4  0
 10 11  2  0
 11 14  2  0
 11 27  1  0
 13 20  1  0
 15 18  1  0
 16 25  4  0
 16 26  4  0
 17 28  4  0
 18 21  1  0
 21 26  1  0
 23 24  1  0
M  END
$$$$

 Created by Python create_sdf_string function

 28 46  0  0  0  0  0  0  0  0999 V2000
    5.6843   -8.5344   26.8849 C   0  0  0  0  0  0  0  0  0  0  0  0
    1.9959   -5.9340   27.3156 C   0  0  0  0  0  0  0  0  0  0  0  0
   -0.5436  -11.1152   14.3672 N   0  0  0  0  0  0  0  0  0  0  0  0
    2.1903  -11.2670   13.8031 C   0  0  0  0  0  0  0  0  0  0  0  0
    8.9551   -8.6037   29.7295 O   0  0  0  0  0  0  0  0  0  0  0  0
    0.8884   -3.9054   27.0449 C   0  0  0  0  0  0  0  0  0  0  0  0
   -0.0309   -9.7520   15.3509 C   0  0  0  0  0  0  0  0  0  0  0  0
   -1.3562   -5.4525   26.7610 O   0  0  0  0  0  0  0  0  0  0  0  0
   -0.5725   -5.8218   27.1023 N   0  0  0  0  0  0  0  0  0  0  0  0
    2.8888  -12.1802   13.8491 O   0  0  0  0  0  0  0  0  0  0  0  0
   -0.2302  -12.8937   13.2915 N   0  0  0  0  0  0  0  0  0  0  0  0
   -0.6527   -6.8698   28.4504 N   0  0  0  0  0  0  0  0  0  0  0  0
    9.6182   -6.9793   27.9595 C   0  0  0  0  0  0  0  0  0  0  0  0
    6.4680   -6.0193   27.4913 C   0  0  0  0  0  0  0  0  0  0  0  0
    3.3293   -3.9319   27.3445 C   0  0  0  0  0  0  0  0  0  0  0  0
    9.2763   -8.2080   28.0742 C   0  0  0  0  0  0  0  0  0  0  0  0
    0.2448   -8.5681   15.9711 C   0  0  0  0  0  0  0  0  0  0  0  0
    0.2276  -12.2652   13.8418 C   0  0  0  0  0  0  0  0  0  0  0  0
    7.9533   -8.3933   27.4136 F   0  0  0  0  0  0  0  0  0  0  0  0
    4.2156   -7.2922   27.1065 C   0  0  0  0  0  0  0  0  0  0  0  0
    1.8683  -10.5450   15.3382 C   0  0  0  0  0  0  0  0  0  0  0  0
    2.9621   -9.2789   15.3696 C   0  0  0  0  0  0  0  0  0  0  0  0
    6.9483   -7.6956   27.2511 C   0  0  0  0  0  0  0  0  0  0  0  0
    0.8551   -5.3734   27.3905 S   0  0  0  0  0  0  0  0  0  0  0  0
    3.3793   -5.0345   27.2113 C   0  0  0  0  0  0  0  0  0  0  0  0
    4.5936   -6.0606   27.1231 He  0  0  0  0  0  0  0  0  0  0  0  0
    2.2187   -3.1791   26.7995 He  0  0  0  0  0  0  0  0  0  0  0  0
    5.7953   -5.5271   28.0276 He  0  0  0  0  0  0  0  0  0  0  0  0
  1  8  4  0
  1 13  3  0
  1 15  1  0
  1 20  4  0
  1 23  4  0
  2  5  1  0
  2  7  1  0
  2 21  1  0
  2 24  1  0
  2 25  4  0
  3  9  1  0
  3 10  2  0
  3 20  4  0
  3 21  2  0
  3 24  2  0
  4 10  2  0
  4 18  4  0
  4 21  4  0
  4 23  2  0
  5 16  2  0
  6  7  2  0
  6  8  4  0
  6 24  4  0
  7 16  4  0
  7 17  1  0
  7 21  4  0
  8  9  2  0
  8 16  4  0
  8 20  3  0
  9 23  2  0
  9 24  1  0
 10 14  4  0
 10 22  2  0
 11 12  1  0
 11 18  1  0
 11 24  2  0
 11 25  1  0
 13 14  3  0
 13 16  1  0
 13 20  3  0
 14 18  1  0
 14 23  4  0
 15 25  4  0
 16 19  1  0
 18 25  2  0
 19 23  1  0
M  END
$$$$

 Created by Python create_sdf_string function

 28 29  0  0  0  0  0  0  0  0999 V2000
    5.6161   -8.1811   26.9414 C   0  0  0  0  0  0  0  0  0  0  0  0
    2.0626   -5.9790   27.3541 C   0  0  0  0  0  0  0  0  0  0  0  0
   -0.3949  -10.8994   14.5906 N   0  0  0  0  0  0  0  0  0  0  0  0
    4.4440   -6.0780   27.2890 C   0  0  0  0  0  0  0  0  0  0  0  0
    2.1461   -3.1334   26.9733 C   0  0  0  0  0  0  0  0  0  0  0  0
    1.8361  -11.5236   14.1880 C   0  0  0  0  0  0  0  0  0  0  0  0
    9.0349   -8.6442   29.4453 O   0  0  0  0  0  0  0  0  0  0  0  0
    0.9512   -3.7815   26.9475 C   0  0  0  0  0  0  0  0  0  0  0  0
    0.3817   -9.9751   15.1739 C   0  0  0  0  0  0  0  0  0  0  0  0
   -1.4626   -5.3329   26.6843 O   0  0  0  0  0  0  0  0  0  0  0  0
   -0.4413   -5.7871   27.3840 C   0  0  0  0  0  0  0  0  0  0  0  0
    2.7702  -12.1186   13.8198 O   0  0  0  0  0  0  0  0  0  0  0  0
   -0.0967  -12.9091   13.2491 N   0  0  0  0  0  0  0  0  0  0  0  0
   -0.5443   -6.7327   28.2884 N   0  0  0  0  0  0  0  0  0  0  0  0
    9.8482   -6.9520   27.8699 C   0  0  0  0  0  0  0  0  0  0  0  0
    6.7610   -6.2642   27.7053 C   0  0  0  0  0  0  0  0  0  0  0  0
    3.3237   -3.9004   27.1036 C   0  0  0  0  0  0  0  0  0  0  0  0
    8.9626   -8.0306   28.3631 C   0  0  0  0  0  0  0  0  0  0  0  0
   -0.0285   -8.8045   15.9538 C   0  0  0  0  0  0  0  0  0  0  0  0
    0.4317  -11.8524   13.9705 C   0  0  0  0  0  0  0  0  0  0  0  0
    7.9257   -8.3001   27.4233 N   0  0  0  0  0  0  0  0  0  0  0  0
    4.4451   -7.4382   26.9410 C   0  0  0  0  0  0  0  0  0  0  0  0
    1.7575  -10.2975   14.9452 C   0  0  0  0  0  0  0  0  0  0  0  0
    2.7730   -9.4969   15.4045 C   0  0  0  0  0  0  0  0  0  0  0  0
    5.6208   -5.4757   27.6229 C   0  0  0  0  0  0  0  0  0  0  0  0
    6.7801   -7.5760   27.3692 C   0  0  0  0  0  0  0  0  0  0  0  0
    0.9063   -5.1687   27.2092 C   0  0  0  0  0  0  0  0  0  0  0  0
    3.3129   -5.3526   27.2606 C   0  0  0  0  0  0  0  0  0  0  0  0
  1 22  4  0
  1 26  4  0
  2 27  4  0
  2 28  4  0
  3  9  4  0
  3 20  4  0
  4 22  4  0
  4 25  4  0
  4 28  1  0
  5  8  4  0
  5 17  4  0
  6 12  2  0
  6 20  4  0
  6 23  4  0
  7 18  2  0
  8 27  4  0
  9 19  1  0
  9 23  4  0
 10 11  2  0
 11 14  1  0
 11 27  1  0
 13 20  1  0
 15 18  1  0
 16 25  4  0
 16 26  4  0
 17 28  4  0
 18 21  1  0
 21 26  1  0
 23 24  1  0
M  END
$$$$

 Created by Python create_sdf_string function

 28 49  0  0  0  0  0  0  0  0999 V2000
    5.7206   -8.4011   27.2621 P   0  0  0  0  0  0  0  0  0  0  0  0
    2.4900   -6.0468   27.2848 C   0  0  0  0  0  0  0  0  0  0  0  0
   -0.3758  -11.2170   14.6363 N   0  0  0  0  0  0  0  0  0  0  0  0
    4.0965   -5.9821   26.9167 C   0  0  0  0  0  0  0  0  0  0  0  0
    2.3329   -3.0097   26.8531 C   0  0  0  0  0  0  0  0  0  0  0  0
    1.6100  -11.6907   14.0838 F   0  0  0  0  0  0  0  0  0  0  0  0
    8.9562   -8.6510   29.2049 O   0  0  0  0  0  0  0  0  0  0  0  0
    0.7970   -3.7138   26.9297 C   0  0  0  0  0  0  0  0  0  0  0  0
    0.5529   -9.9659   15.2749 C   0  0  0  0  0  0  0  0  0  0  0  0
   -1.1358   -5.4955   26.5903 O   0  0  0  0  0  0  0  0  0  0  0  0
    2.8513  -12.5510   13.8524 O   0  0  0  0  0  0  0  0  0  0  0  0
   -0.3526  -12.7580   13.3003 N   0  0  0  0  0  0  0  0  0  0  0  0
   -0.6604   -6.7555   28.4128 N   0  0  0  0  0  0  0  0  0  0  0  0
    9.6598   -7.1707   27.6632 C   0  0  0  0  0  0  0  0  0  0  0  0
    6.7280   -6.4056   28.0655 C   0  0  0  0  0  0  0  0  0  0  0  0
    3.1408   -3.9256   27.4144 C   0  0  0  0  0  0  0  0  0  0  0  0
    8.8684   -7.8613   28.1054 C   0  0  0  0  0  0  0  0  0  0  0  0
   -0.0326   -8.7053   15.5305 C   0  0  0  0  0  0  0  0  0  0  0  0
    0.5717  -11.8065   14.1432 F   0  0  0  0  0  0  0  0  0  0  0  0
    1.7533   -9.9704   14.6290 C   0  0  0  0  0  0  0  0  0  0  0  0
    2.9291   -9.3704   15.2200 C   0  0  0  0  0  0  0  0  0  0  0  0
    5.8011   -5.2162   27.7181 C   0  0  0  0  0  0  0  0  0  0  0  0
    7.0764   -7.3371   27.3595 C   0  0  0  0  0  0  0  0  0  0  0  0
    0.6603   -4.9720   27.4779 C   0  0  0  0  0  0  0  0  0  0  0  0
    3.3700   -5.3311   27.0847 C   0  0  0  0  0  0  0  0  0  0  0  0
   -0.1336   -5.7101   27.4925 He  0  0  0  0  0  0  0  0  0  0  0  0
    7.7040   -8.4477   27.3219 He  0  0  0  0  0  0  0  0  0  0  0  0
    4.2913   -7.8215   26.9405 He  0  0  0  0  0  0  0  0  0  0  0  0
  1 23  4  0
  2  4  3  0
  2 17  3  0
  2 20  3  0
  2 22  1  0
  2 24  4  0
  2 25  4  0
  3  8  4  0
  3  9  4  0
  3 19  4  0
  4 22  4  0
  5  6  1  0
  5  8  4  0
  5 11  4  0
  5 14  3  0
  5 16  4  0
  6  8  1  0
  6 11  2  0
  6 16  2  0
  6 18  3  0
  6 19  4  0
  6 20  4  0
  6 21  4  0
  7  8  3  0
  7 17  4  0
  8 20  2  0
  8 22  2  0
  9 18  1  0
  9 20  4  0
 11 22  3  0
 12 17  1  0
 12 19  1  0
 12 20  3  0
 12 25  3  0
 13 15  3  0
 13 18  3  0
 13 25  2  0
 14 17  1  0
 14 24  2  0
 15 16  4  0
 15 22  4  0
 15 23  1  0
 16 21  3  0
 16 25  4  0
 17 18  1  0
 18 19  3  0
 18 24  2  0
 19 21  1  0
 20 21  1  0
M  END
$$$$

 Created by Python create_sdf_string function

 28 29  0  0  0  0  0  0  0  0999 V2000
    5.6058   -8.1978   27.0224 C   0  0  0  0  0  0  0  0  0  0  0  0
    2.0394   -5.9187   27.3652 C   0  0  0  0  0  0  0  0  0  0  0  0
   -0.3684  -10.9033   14.6341 N   0  0  0  0  0  0  0  0  0  0  0  0
    4.4456   -6.0461   27.3044 C   0  0  0  0  0  0  0  0  0  0  0  0
    2.2044   -3.1082   26.9648 C   0  0  0  0  0  0  0  0  0  0  0  0
    1.7913  -11.6037   14.1574 C   0  0  0  0  0  0  0  0  0  0  0  0
    9.0824   -8.6034   29.3332 O   0  0  0  0  0  0  0  0  0  0  0  0
    1.0027   -3.7249   27.0020 C   0  0  0  0  0  0  0  0  0  0  0  0
    0.4200   -9.9695   15.0509 C   0  0  0  0  0  0  0  0  0  0  0  0
   -1.3420   -5.4028   26.6047 O   0  0  0  0  0  0  0  0  0  0  0  0
   -0.3610   -5.7459   27.3974 C   0  0  0  0  0  0  0  0  0  0  0  0
    2.7041  -12.2836   13.8215 O   0  0  0  0  0  0  0  0  0  0  0  0
   -0.2690  -12.8880   13.4322 N   0  0  0  0  0  0  0  0  0  0  0  0
   -0.5231   -6.6127   28.3999 N   0  0  0  0  0  0  0  0  0  0  0  0
    9.9404   -7.0804   27.6054 C   0  0  0  0  0  0  0  0  0  0  0  0
    6.7802   -6.2489   27.7441 C   0  0  0  0  0  0  0  0  0  0  0  0
    3.3739   -3.8879   27.0374 C   0  0  0  0  0  0  0  0  0  0  0  0
    8.9830   -8.0258   28.2045 C   0  0  0  0  0  0  0  0  0  0  0  0
   -0.0141   -8.7536   15.6780 C   0  0  0  0  0  0  0  0  0  0  0  0
    0.3810  -11.8516   14.0595 N   0  0  0  0  0  0  0  0  0  0  0  0
    7.8857   -8.3020   27.4093 N   0  0  0  0  0  0  0  0  0  0  0  0
    4.4164   -7.4073   26.9239 C   0  0  0  0  0  0  0  0  0  0  0  0
    1.7904  -10.2941   14.7834 C   0  0  0  0  0  0  0  0  0  0  0  0
    2.8497   -9.4438   15.0439 C   0  0  0  0  0  0  0  0  0  0  0  0
    5.6351   -5.4739   27.6948 C   0  0  0  0  0  0  0  0  0  0  0  0
    6.7704   -7.5876   27.4337 C   0  0  0  0  0  0  0  0  0  0  0  0
    0.9549   -5.1212   27.2276 C   0  0  0  0  0  0  0  0  0  0  0  0
    3.3131   -5.3241   27.2403 C   0  0  0  0  0  0  0  0  0  0  0  0
  1 22  4  0
  1 26  4  0
  2 27  4  0
  2 28  4  0
  3  9  4  0
  3 20  4  0
  4 22  4  0
  4 25  4  0
  4 28  1  0
  5  8  4  0
  5 17  4  0
  6 12  2  0
  6 20  4  0
  6 23  4  0
  7 18  2  0
  8 27  4  0
  9 19  1  0
  9 23  4  0
 10 11  2  0
 11 14  1  0
 11 27  1  0
 13 20  1  0
 15 18  1  0
 16 25  4  0
 16 26  4  0
 17 28  4  0
 18 21  1  0
 21 26  1  0
 23 24  1  0
M  END
$$$$

 Created by Python create_sdf_string function

 28 46  0  0  0  0  0  0  0  0999 V2000
    5.3326   -7.9721   26.6822 C   0  0  0  0  0  0  0  0  0  0  0  0
    1.9625   -5.9140   27.3107 C   0  0  0  0  0  0  0  0  0  0  0  0
   -0.1091  -10.8736   14.8965 N   0  0  0  0  0  0  0  0  0  0  0  0
    4.7598   -6.3292   27.2787 C   0  0  0  0  0  0  0  0  0  0  0  0
    1.9544   -2.9061   26.8439 C   0  0  0  0  0  0  0  0  0  0  0  0
    2.1008  -11.6432   14.2698 C   0  0  0  0  0  0  0  0  0  0  0  0
    0.9220   -3.4121   26.8637 O   0  0  0  0  0  0  0  0  0  0  0  0
    0.5955   -9.8513   14.9849 C   0  0  0  0  0  0  0  0  0  0  0  0
   -1.3312   -5.2947   26.4616 O   0  0  0  0  0  0  0  0  0  0  0  0
   -0.4913   -5.5672   27.2117 C   0  0  0  0  0  0  0  0  0  0  0  0
    2.8466  -12.3724   13.9732 O   0  0  0  0  0  0  0  0  0  0  0  0
   -0.2383  -12.6826   13.4434 F   0  0  0  0  0  0  0  0  0  0  0  0
   -0.2328   -6.4435   28.2201 N   0  0  0  0  0  0  0  0  0  0  0  0
    9.6914   -7.2059   27.6154 C   0  0  0  0  0  0  0  0  0  0  0  0
    7.0870   -6.2940   28.1122 P   0  0  0  0  0  0  0  0  0  0  0  0
    3.3404   -3.9758   26.7260 C   0  0  0  0  0  0  0  0  0  0  0  0
    9.1612   -7.9183   27.8020 C   0  0  0  0  0  0  0  0  0  0  0  0
   -0.2022   -9.0844   15.3853 C   0  0  0  0  0  0  0  0  0  0  0  0
    0.2383  -11.7443   13.7790 N   0  0  0  0  0  0  0  0  0  0  0  0
    7.9759   -8.5992   27.5084 N   0  0  0  0  0  0  0  0  0  0  0  0
    4.4507   -7.2360   27.0957 O   0  0  0  0  0  0  0  0  0  0  0  0
    2.5632   -9.5790   14.9874 S   0  0  0  0  0  0  0  0  0  0  0  0
    5.9275   -5.5777   28.0355 C   0  0  0  0  0  0  0  0  0  0  0  0
    6.6993   -7.7088   27.3394 C   0  0  0  0  0  0  0  0  0  0  0  0
    0.8785   -5.3264   27.3874 C   0  0  0  0  0  0  0  0  0  0  0  0
    9.1560   -8.6683   29.4523 He  0  0  0  0  0  0  0  0  0  0  0  0
    1.9311  -10.1264   14.9816 He  0  0  0  0  0  0  0  0  0  0  0  0
    3.2037   -5.3498   27.1177 He  0  0  0  0  0  0  0  0  0  0  0  0
  1 11  4  0
  1 13  2  0
  1 24  4  0
  3  8  4  0
  3 10  1  0
  4 11  1  0
  4 23  4  0
  5  6  4  0
  5  7  4  0
  5  8  4  0
  5 16  4  0
  5 21  3  0
  5 22  3  0
  6 11  2  0
  6 13  1  0
  6 19  4  0
  6 21  3  0
  7 19  2  0
  7 25  4  0
  8 16  2  0
  8 18  1  0
  8 19  1  0
  9 10  2  0
  9 11  2  0
  9 15  4  0
  9 23  3  0
 10 13  1  0
 10 18  4  0
 10 25  1  0
 11 18  4  0
 12 19  1  0
 12 20  1  0
 12 21  2  0
 12 25  2  0
 13 17  3  0
 14 16  4  0
 14 17  1  0
 14 19  2  0
 14 25  4  0
 15 19  1  0
 15 23  4  0
 15 24  4  0
 17 20  1  0
 19 20  3  0
 20 24  1  0
 21 23  3  0
M  END
$$$$

 Created by Python create_sdf_string function

 28 29  0  0  0  0  0  0  0  0999 V2000
    5.6509   -8.1399   26.8554 C   0  0  0  0  0  0  0  0  0  0  0  0
    2.0719   -5.8533   27.3356 C   0  0  0  0  0  0  0  0  0  0  0  0
   -0.3502  -10.9213   14.5529 N   0  0  0  0  0  0  0  0  0  0  0  0
    4.4763   -6.0321   27.2827 C   0  0  0  0  0  0  0  0  0  0  0  0
    2.2421   -3.0967   26.7488 C   0  0  0  0  0  0  0  0  0  0  0  0
    1.8241  -11.5947   14.1999 C   0  0  0  0  0  0  0  0  0  0  0  0
    9.2600   -8.6053   29.3095 O   0  0  0  0  0  0  0  0  0  0  0  0
    1.0266   -3.6781   26.8380 C   0  0  0  0  0  0  0  0  0  0  0  0
    0.4098   -9.9779   14.9916 C   0  0  0  0  0  0  0  0  0  0  0  0
   -1.3620   -5.2622   26.5642 O   0  0  0  0  0  0  0  0  0  0  0  0
   -0.3862   -5.6530   27.2949 C   0  0  0  0  0  0  0  0  0  0  0  0
    2.7497  -12.2549   13.9274 O   0  0  0  0  0  0  0  0  0  0  0  0
   -0.1586  -12.9109   13.3866 C   0  0  0  0  0  0  0  0  0  0  0  0
   -0.5158   -6.5618   28.2317 N   0  0  0  0  0  0  0  0  0  0  0  0
    9.9491   -7.1074   27.4711 C   0  0  0  0  0  0  0  0  0  0  0  0
    6.7833   -6.3057   27.9167 C   0  0  0  0  0  0  0  0  0  0  0  0
    3.4110   -3.8653   26.9487 C   0  0  0  0  0  0  0  0  0  0  0  0
    9.0219   -8.0559   28.1934 C   0  0  0  0  0  0  0  0  0  0  0  0
   -0.1088   -8.7883   15.5900 C   0  0  0  0  0  0  0  0  0  0  0  0
    0.4648  -11.8368   14.0633 N   0  0  0  0  0  0  0  0  0  0  0  0
    7.8952   -8.3508   27.4497 N   0  0  0  0  0  0  0  0  0  0  0  0
    4.4816   -7.3477   26.7877 C   0  0  0  0  0  0  0  0  0  0  0  0
    1.7768  -10.2756   14.7933 C   0  0  0  0  0  0  0  0  0  0  0  0
    2.9180   -9.3672   15.1269 C   0  0  0  0  0  0  0  0  0  0  0  0
    5.6264   -5.5283   27.8310 C   0  0  0  0  0  0  0  0  0  0  0  0
    6.7592   -7.5823   27.4184 C   0  0  0  0  0  0  0  0  0  0  0  0
    0.9619   -5.0329   27.1439 C   0  0  0  0  0  0  0  0  0  0  0  0
    3.3392   -5.2700   27.1991 C   0  0  0  0  0  0  0  0  0  0  0  0
  1 22  4  0
  1 26  4  0
  2 27  4  0
  2 28  4  0
  3  9  4  0
  3 20  4  0
  4 22  4  0
  4 25  4  0
  4 28  1  0
  5  8  4  0
  5 17  4  0
  6 12  2  0
  6 20  4  0
  6 23  4  0
  7 18  2  0
  8 27  4  0
  9 19  1  0
  9 23  4  0
 10 11  2  0
 11 14  1  0
 11 27  1  0
 13 20  1  0
 15 18  1  0
 16 25  4  0
 16 26  4  0
 17 28  4  0
 18 21  1  0
 21 26  1  0
 23 24  1  0
M  END
$$$$

 Created by Python create_sdf_string function

 28 32  0  0  0  0  0  0  0  0999 V2000
    5.4998   -8.0073   27.0127 Cl  0  0  0  0  0  0  0  0  0  0  0  0
    1.8973   -6.0207   27.0691 C   0  0  0  0  0  0  0  0  0  0  0  0
   -0.2498  -11.0279   14.5597 N   0  0  0  0  0  0  0  0  0  0  0  0
    4.5480   -6.1323   27.0753 C   0  0  0  0  0  0  0  0  0  0  0  0
    2.2554   -2.9949   26.6911 C   0  0  0  0  0  0  0  0  0  0  0  0
    2.1959  -11.6599   14.4755 C   0  0  0  0  0  0  0  0  0  0  0  0
    9.0288   -8.8925   29.7444 O   0  0  0  0  0  0  0  0  0  0  0  0
    1.0858   -3.4448   27.0185 C   0  0  0  0  0  0  0  0  0  0  0  0
    0.8243   -9.8793   14.9749 C   0  0  0  0  0  0  0  0  0  0  0  0
   -0.9660   -5.3764   26.3453 O   0  0  0  0  0  0  0  0  0  0  0  0
    2.6433  -12.1574   13.6970 O   0  0  0  0  0  0  0  0  0  0  0  0
   -0.0123  -13.0565   13.4502 C   0  0  0  0  0  0  0  0  0  0  0  0
   -0.4776   -6.3999   28.2987 N   0  0  0  0  0  0  0  0  0  0  0  0
   10.0066   -6.8760   27.5728 C   0  0  0  0  0  0  0  0  0  0  0  0
    6.8239   -6.3201   27.7529 C   0  0  0  0  0  0  0  0  0  0  0  0
    3.4158   -3.8540   26.8615 C   0  0  0  0  0  0  0  0  0  0  0  0
    8.9193   -8.2438   28.0087 C   0  0  0  0  0  0  0  0  0  0  0  0
    0.1285   -8.8999   15.5408 C   0  0  0  0  0  0  0  0  0  0  0  0
    4.8379   -7.2897   26.7343 C   0  0  0  0  0  0  0  0  0  0  0  0
    1.8030  -10.0030   14.7463 S   0  0  0  0  0  0  0  0  0  0  0  0
    2.9108   -9.4116   15.2449 C   0  0  0  0  0  0  0  0  0  0  0  0
    0.7459   -5.0326   27.3133 C   0  0  0  0  0  0  0  0  0  0  0  0
    3.2369   -5.3206   27.0396 C   0  0  0  0  0  0  0  0  0  0  0  0
    0.2329   -5.8287   27.4986 He  0  0  0  0  0  0  0  0  0  0  0  0
    0.3809  -11.9572   13.9883 He  0  0  0  0  0  0  0  0  0  0  0  0
    7.9993   -8.5610   27.5837 He  0  0  0  0  0  0  0  0  0  0  0  0
    5.3221   -5.8266   27.6873 He  0  0  0  0  0  0  0  0  0  0  0  0
    6.9980   -7.5791   27.4893 He  0  0  0  0  0  0  0  0  0  0  0  0
  1  8  1  0
  1 19  4  0
  2 12  3  0
  2 19  1  0
  2 23  4  0
  3  9  3  0
  3 10  2  0
  3 18  3  0
  4 19  4  0
  5  8  4  0
  5 13  1  0
  5 16  4  0
  6 11  2  0
  6 16  4  0
  6 20  4  0
  7 17  2  0
  8 10  2  0
  8 18  1  0
  8 22  4  0
  9 13  3  0
  9 18  4  0
  9 20  4  0
  9 22  3  0
 10 13  4  0
 11 13  4  0
 12 20  1  0
 14 17  1  0
 14 18  3  0
 14 20  4  0
 15 18  4  0
 16 23  4  0
 20 22  1  0
M  END
$$$$

 Created by Python create_sdf_string function

 28 29  0  0  0  0  0  0  0  0999 V2000
    5.7106   -8.1643   26.8126 C   0  0  0  0  0  0  0  0  0  0  0  0
    2.1204   -5.8616   27.1976 C   0  0  0  0  0  0  0  0  0  0  0  0
   -0.3006  -10.8947   14.6046 N   0  0  0  0  0  0  0  0  0  0  0  0
    4.5091   -6.0543   27.1447 C   0  0  0  0  0  0  0  0  0  0  0  0
    2.3101   -3.0409   26.8238 C   0  0  0  0  0  0  0  0  0  0  0  0
    1.9317  -11.5423   14.1507 C   0  0  0  0  0  0  0  0  0  0  0  0
    9.1969   -8.7150   29.4381 O   0  0  0  0  0  0  0  0  0  0  0  0
    1.0864   -3.6348   26.9185 C   0  0  0  0  0  0  0  0  0  0  0  0
    0.4865   -9.9347   15.0358 C   0  0  0  0  0  0  0  0  0  0  0  0
   -1.2365   -5.3483   26.4789 O   0  0  0  0  0  0  0  0  0  0  0  0
   -0.2713   -5.6344   27.3276 C   0  0  0  0  0  0  0  0  0  0  0  0
    2.8241  -12.1566   13.7995 O   0  0  0  0  0  0  0  0  0  0  0  0
   -0.0564  -13.0656   13.5178 C   0  0  0  0  0  0  0  0  0  0  0  0
   -0.4765   -6.4327   28.3389 N   0  0  0  0  0  0  0  0  0  0  0  0
    9.9286   -7.1118   27.6684 C   0  0  0  0  0  0  0  0  0  0  0  0
    6.7559   -6.3338   27.8587 C   0  0  0  0  0  0  0  0  0  0  0  0
    3.4599   -3.8688   26.8539 C   0  0  0  0  0  0  0  0  0  0  0  0
    9.0186   -8.1248   28.3548 C   0  0  0  0  0  0  0  0  0  0  0  0
    0.0010   -8.7527   15.5743 C   0  0  0  0  0  0  0  0  0  0  0  0
    0.5402  -11.8445   14.0718 N   0  0  0  0  0  0  0  0  0  0  0  0
    7.9074   -8.3752   27.5622 N   0  0  0  0  0  0  0  0  0  0  0  0
    4.5320   -7.3858   26.6947 C   0  0  0  0  0  0  0  0  0  0  0  0
    1.8809  -10.2564   14.8137 C   0  0  0  0  0  0  0  0  0  0  0  0
    2.9270   -9.4416   15.1879 C   0  0  0  0  0  0  0  0  0  0  0  0
    5.6440   -5.5220   27.6860 C   0  0  0  0  0  0  0  0  0  0  0  0
    6.8021   -7.6133   27.4255 C   0  0  0  0  0  0  0  0  0  0  0  0
    1.0238   -5.0284   27.1288 C   0  0  0  0  0  0  0  0  0  0  0  0
    3.3890   -5.2993   27.0601 C   0  0  0  0  0  0  0  0  0  0  0  0
  1 22  4  0
  1 26  4  0
  2 27  4  0
  2 28  4  0
  3  9  4  0
  3 20  4  0
  4 22  4  0
  4 25  4  0
  4 28  1  0
  5  8  4  0
  5 17  4  0
  6 12  2  0
  6 20  4  0
  6 23  4  0
  7 18  2  0
  8 27  4  0
  9 19  1  0
  9 23  4  0
 10 11  2  0
 11 14  1  0
 11 27  1  0
 13 20  1  0
 15 18  1  0
 16 25  4  0
 16 26  4  0
 17 28  4  0
 18 21  1  0
 21 26  1  0
 23 24  1  0
M  END
$$$$

 Created by Python create_sdf_string function

 28 40  0  0  0  0  0  0  0  0999 V2000
    5.9159   -7.9688   26.7268 C   0  0  0  0  0  0  0  0  0  0  0  0
    2.5131   -5.7296   27.2050 C   0  0  0  0  0  0  0  0  0  0  0  0
   -0.2902  -10.4604   14.5149 N   0  0  0  0  0  0  0  0  0  0  0  0
    4.3241   -5.9553   26.9270 C   0  0  0  0  0  0  0  0  0  0  0  0
    1.8398   -3.2922   27.0397 C   0  0  0  0  0  0  0  0  0  0  0  0
    2.1456  -11.4207   14.2980 C   0  0  0  0  0  0  0  0  0  0  0  0
    9.3078   -8.8416   29.2630 O   0  0  0  0  0  0  0  0  0  0  0  0
    0.5372   -9.7410   14.9856 C   0  0  0  0  0  0  0  0  0  0  0  0
   -1.3872   -5.2265   26.4109 O   0  0  0  0  0  0  0  0  0  0  0  0
   -0.1927   -5.7774   27.1867 C   0  0  0  0  0  0  0  0  0  0  0  0
    2.9172  -11.9373   13.9688 O   0  0  0  0  0  0  0  0  0  0  0  0
   -0.5989   -6.5494   28.6094 N   0  0  0  0  0  0  0  0  0  0  0  0
    9.7817   -7.3042   27.3821 C   0  0  0  0  0  0  0  0  0  0  0  0
    6.7275   -6.2943   27.8977 C   0  0  0  0  0  0  0  0  0  0  0  0
    9.1256   -8.1026   28.4690 C   0  0  0  0  0  0  0  0  0  0  0  0
    0.0340   -9.0057   15.4927 C   0  0  0  0  0  0  0  0  0  0  0  0
    0.3406  -11.5196   14.1310 N   0  0  0  0  0  0  0  0  0  0  0  0
    8.2863   -8.1720   27.2760 N   0  0  0  0  0  0  0  0  0  0  0  0
    4.1686   -7.4699   26.8466 C   0  0  0  0  0  0  0  0  0  0  0  0
    2.0852  -10.3464   14.8827 C   0  0  0  0  0  0  0  0  0  0  0  0
    2.7377   -9.5812   15.1943 C   0  0  0  0  0  0  0  0  0  0  0  0
    5.4152   -5.4445   27.6972 C   0  0  0  0  0  0  0  0  0  0  0  0
    1.0185   -4.8910   27.1914 C   0  0  0  0  0  0  0  0  0  0  0  0
    3.6815   -5.3984   26.9114 C   0  0  0  0  0  0  0  0  0  0  0  0
    1.1648   -3.5563   26.8556 He  0  0  0  0  0  0  0  0  0  0  0  0
   -0.2569  -13.2079   13.3349 He  0  0  0  0  0  0  0  0  0  0  0  0
    3.2198   -3.8304   26.9689 He  0  0  0  0  0  0  0  0  0  0  0  0
    6.4787   -7.8154   27.2324 He  0  0  0  0  0  0  0  0  0  0  0  0
  1  2  2  0
  1 22  3  0
  2 18  3  0
  2 20  1  0
  3  8  4  0
  3  9  3  0
  3 17  4  0
  3 21  4  0
  4 19  4  0
  4 22  4  0
  4 24  1  0
  5 10  4  0
  6 10  2  0
  6 11  2  0
  6 14  3  0
  6 15  3  0
  6 17  4  0
  6 20  4  0
  6 21  1  0
  7 11  4  0
  7 15  2  0
  7 20  1  0
  8 13  4  0
  8 16  1  0
  8 17  3  0
  8 20  4  0
  8 23  3  0
  9 10  2  0
  9 14  1  0
  9 16  1  0
 10 12  1  0
 10 14  3  0
 10 23  1  0
 11 18  2  0
 13 15  1  0
 14 18  3  0
 14 22  4  0
 15 18  2  0
 17 21  1  0
 20 21  1  0
M  END
$$$$

 Created by Python create_sdf_string function

 28 29  0  0  0  0  0  0  0  0999 V2000
    5.6860   -8.1372   26.7413 C   0  0  0  0  0  0  0  0  0  0  0  0
    2.0760   -5.8734   27.1733 C   0  0  0  0  0  0  0  0  0  0  0  0
   -0.3080  -10.7958   14.4559 N   0  0  0  0  0  0  0  0  0  0  0  0
    4.4727   -6.0322   27.1491 C   0  0  0  0  0  0  0  0  0  0  0  0
    2.2194   -3.0473   26.8640 C   0  0  0  0  0  0  0  0  0  0  0  0
    1.8702  -11.5534   14.1633 C   0  0  0  0  0  0  0  0  0  0  0  0
    9.3423   -8.7347   29.2337 O   0  0  0  0  0  0  0  0  0  0  0  0
    0.9928   -3.6466   26.9518 C   0  0  0  0  0  0  0  0  0  0  0  0
    0.4677   -9.8876   14.9723 C   0  0  0  0  0  0  0  0  0  0  0  0
   -1.3126   -5.2985   26.5055 O   0  0  0  0  0  0  0  0  0  0  0  0
   -0.3540   -5.6409   27.3140 C   0  0  0  0  0  0  0  0  0  0  0  0
    2.8002  -12.1680   13.8952 O   0  0  0  0  0  0  0  0  0  0  0  0
   -0.1407  -12.8855   13.4488 C   0  0  0  0  0  0  0  0  0  0  0  0
   -0.5231   -6.4640   28.3324 N   0  0  0  0  0  0  0  0  0  0  0  0
   10.0782   -7.3060   27.4571 C   0  0  0  0  0  0  0  0  0  0  0  0
    6.7374   -6.2733   27.7870 C   0  0  0  0  0  0  0  0  0  0  0  0
    3.4031   -3.8343   26.9565 C   0  0  0  0  0  0  0  0  0  0  0  0
    9.0209   -8.1307   28.1747 C   0  0  0  0  0  0  0  0  0  0  0  0
    0.0180   -8.6822   15.5931 C   0  0  0  0  0  0  0  0  0  0  0  0
    0.4984  -11.7588   14.0094 N   0  0  0  0  0  0  0  0  0  0  0  0
    7.9285   -8.2882   27.5006 N   0  0  0  0  0  0  0  0  0  0  0  0
    4.5178   -7.3241   26.6328 C   0  0  0  0  0  0  0  0  0  0  0  0
    1.8355  -10.2353   14.8441 C   0  0  0  0  0  0  0  0  0  0  0  0
    2.8833   -9.4259   15.3078 C   0  0  0  0  0  0  0  0  0  0  0  0
    5.6139   -5.4988   27.7100 C   0  0  0  0  0  0  0  0  0  0  0  0
    6.7560   -7.5326   27.3457 C   0  0  0  0  0  0  0  0  0  0  0  0
    0.9641   -5.0259   27.1291 C   0  0  0  0  0  0  0  0  0  0  0  0
    3.3444   -5.2744   27.1019 C   0  0  0  0  0  0  0  0  0  0  0  0
  1 22  4  0
  1 26  4  0
  2 27  4  0
  2 28  4  0
  3  9  4  0
  3 20  4  0
  4 22  4  0
  4 25  4  0
  4 28  1  0
  5  8  4  0
  5 17  4  0
  6 12  2  0
  6 20  4  0
  6 23  4  0
  7 18  2  0
  8 27  4  0
  9 19  1  0
  9 23  4  0
 10 11  2  0
 11 14  1  0
 11 27  1  0
 13 20  1  0
 15 18  1  0
 16 25  4  0
 16 26  4  0
 17 28  4  0
 18 21  1  0
 21 26  1  0
 23 24  1  0
M  END
$$$$

 Created by Python create_sdf_string function

 28 52  0  0  0  0  0  0  0  0999 V2000
    5.9016   -8.3530   26.7881 N   0  0  0  0  0  0  0  0  0  0  0  0
    2.4956   -5.7597   27.1136 C   0  0  0  0  0  0  0  0  0  0  0  0
   -0.6769  -11.0495   14.2912 F   0  0  0  0  0  0  0  0  0  0  0  0
    4.5022   -5.9491   27.1996 F   0  0  0  0  0  0  0  0  0  0  0  0
    2.2459   -2.8285   26.7550 C   0  0  0  0  0  0  0  0  0  0  0  0
    1.7116  -11.7200   14.0795 C   0  0  0  0  0  0  0  0  0  0  0  0
    9.2313   -8.9254   29.3154 N   0  0  0  0  0  0  0  0  0  0  0  0
    1.0178   -3.7633   26.8467 C   0  0  0  0  0  0  0  0  0  0  0  0
    0.2895   -9.8673   14.9825 C   0  0  0  0  0  0  0  0  0  0  0  0
   -1.1109   -5.0813   26.4400 O   0  0  0  0  0  0  0  0  0  0  0  0
   -0.1556   -5.8612   27.3265 C   0  0  0  0  0  0  0  0  0  0  0  0
    2.9271  -11.9761   13.9983 O   0  0  0  0  0  0  0  0  0  0  0  0
   -0.2697  -13.1156   13.0965 C   0  0  0  0  0  0  0  0  0  0  0  0
   -0.4795   -6.3768   28.5242 N   0  0  0  0  0  0  0  0  0  0  0  0
   10.1963   -7.4780   27.4031 C   0  0  0  0  0  0  0  0  0  0  0  0
    6.7884   -6.3310   27.9186 C   0  0  0  0  0  0  0  0  0  0  0  0
    3.2191   -3.9484   27.0550 C   0  0  0  0  0  0  0  0  0  0  0  0
    8.7819   -8.1340   28.3456 O   0  0  0  0  0  0  0  0  0  0  0  0
   -0.1064   -8.7957   15.6161 C   0  0  0  0  0  0  0  0  0  0  0  0
    0.3543  -11.8454   14.5792 N   0  0  0  0  0  0  0  0  0  0  0  0
    7.6938   -7.9384   27.3320 N   0  0  0  0  0  0  0  0  0  0  0  0
    4.4377   -7.2449   26.8396 C   0  0  0  0  0  0  0  0  0  0  0  0
    1.7889  -10.3752   14.6136 C   0  0  0  0  0  0  0  0  0  0  0  0
    2.9531   -9.2709   15.2663 C   0  0  0  0  0  0  0  0  0  0  0  0
    5.4735   -5.4648   27.7542 C   0  0  0  0  0  0  0  0  0  0  0  0
    6.4273   -7.6445   27.1066 C   0  0  0  0  0  0  0  0  0  0  0  0
    0.8081   -4.8131   27.1310 C   0  0  0  0  0  0  0  0  0  0  0  0
    3.2967   -5.4579   27.1179 C   0  0  0  0  0  0  0  0  0  0  0  0
  1 21  2  0
  1 22  4  0
  1 26  4  0
  2 13  3  0
  2 23  3  0
  2 27  4  0
  2 28  4  0
  3  9  4  0
  3 20  4  0
  3 27  1  0
  4 25  4  0
  4 28  1  0
  5  8  4  0
  5 11  2  0
  5 17  4  0
  5 20  3  0
  6 11  3  0
  6 12  2  0
  6 20  4  0
  6 23  4  0
  6 26  4  0
  7 18  2  0
  8 10  1  0
  8 11  1  0
  8 13  3  0
  8 27  4  0
  9 13  3  0
  9 17  1  0
  9 20  1  0
  9 23  4  0
  9 28  2  0
 10 11  2  0
 10 13  2  0
 11 14  1  0
 11 26  2  0
 11 27  1  0
 12 14  3  0
 13 20  1  0
 13 25  4  0
 14 20  3  0
 15 18  1  0
 15 21  4  0
 15 28  1  0
 16 25  4  0
 16 26  4  0
 18 21  3  0
 19 21  1  0
 19 24  3  0
 21 26  1  0
 23 24  1  0
 23 25  1  0
 26 27  4  0
M  END
$$$$

 Created by Python create_sdf_string function

 28 29  0  0  0  0  0  0  0  0999 V2000
    5.6842   -8.1132   26.7616 C   0  0  0  0  0  0  0  0  0  0  0  0
    2.1024   -5.8354   27.2340 C   0  0  0  0  0  0  0  0  0  0  0  0
   -0.4630  -10.9535   14.4724 N   0  0  0  0  0  0  0  0  0  0  0  0
    4.4864   -6.0366   27.1991 C   0  0  0  0  0  0  0  0  0  0  0  0
    2.2771   -3.0363   26.8122 C   0  0  0  0  0  0  0  0  0  0  0  0
    1.7472  -11.6192   14.1470 C   0  0  0  0  0  0  0  0  0  0  0  0
    9.1928   -8.8052   29.2503 O   0  0  0  0  0  0  0  0  0  0  0  0
    1.0587   -3.6237   26.8411 C   0  0  0  0  0  0  0  0  0  0  0  0
    0.2818   -9.9878   14.9436 C   0  0  0  0  0  0  0  0  0  0  0  0
   -1.2932   -5.2369   26.5443 O   0  0  0  0  0  0  0  0  0  0  0  0
   -0.3191   -5.5868   27.3333 C   0  0  0  0  0  0  0  0  0  0  0  0
    2.6904  -12.2355   13.9023 O   0  0  0  0  0  0  0  0  0  0  0  0
   -0.2041  -13.1038   13.3847 C   0  0  0  0  0  0  0  0  0  0  0  0
   -0.5173   -6.4264   28.3374 N   0  0  0  0  0  0  0  0  0  0  0  0
   10.1890   -7.5384   27.4476 C   0  0  0  0  0  0  0  0  0  0  0  0
    6.7459   -6.2436   27.8310 C   0  0  0  0  0  0  0  0  0  0  0  0
    3.4251   -3.8160   26.9559 C   0  0  0  0  0  0  0  0  0  0  0  0
    8.9940   -8.1721   28.1405 C   0  0  0  0  0  0  0  0  0  0  0  0
   -0.1779   -8.7496   15.5408 C   0  0  0  0  0  0  0  0  0  0  0  0
    0.4000  -11.8899   13.9918 N   0  0  0  0  0  0  0  0  0  0  0  0
    7.8720   -8.2351   27.4393 N   0  0  0  0  0  0  0  0  0  0  0  0
    4.5326   -7.3547   26.7046 C   0  0  0  0  0  0  0  0  0  0  0  0
    1.6591  -10.2852   14.7824 C   0  0  0  0  0  0  0  0  0  0  0  0
    2.6694   -9.4112   15.1396 C   0  0  0  0  0  0  0  0  0  0  0  0
    5.6132   -5.4847   27.7611 C   0  0  0  0  0  0  0  0  0  0  0  0
    6.7791   -7.5100   27.3661 C   0  0  0  0  0  0  0  0  0  0  0  0
    1.0011   -4.9975   27.1152 C   0  0  0  0  0  0  0  0  0  0  0  0
    3.3684   -5.2653   27.1283 C   0  0  0  0  0  0  0  0  0  0  0  0
  1 22  4  0
  1 26  4  0
  2 27  4  0
  2 28  4  0
  3  9  4  0
  3 20  4  0
  4 22  4  0
  4 25  4  0
  4 28  1  0
  5  8  4  0
  5 17  4  0
  6 12  2  0
  6 20  4  0
  6 23  4  0
  7 18  2  0
  8 27  4  0
  9 19  1  0
  9 23  4  0
 10 11  2  0
 11 14  1  0
 11 27  1  0
 13 20  1  0
 15 18  1  0
 16 25  4  0
 16 26  4  0
 17 28  4  0
 18 21  1  0
 21 26  1  0
 23 24  1  0
M  END
$$$$

 Created by Python create_sdf_string function

 28 48  0  0  0  0  0  0  0  0999 V2000
    5.5393   -7.8334   26.7602 C   0  0  0  0  0  0  0  0  0  0  0  0
    1.9369   -6.2655   27.2988 C   0  0  0  0  0  0  0  0  0  0  0  0
   -0.4404  -11.3926   14.5766 I   0  0  0  0  0  0  0  0  0  0  0  0
    4.3471   -6.2207   27.3554 C   0  0  0  0  0  0  0  0  0  0  0  0
    2.2800   -3.3226   26.8904 C   0  0  0  0  0  0  0  0  0  0  0  0
    1.8652  -12.0061   14.2838 C   0  0  0  0  0  0  0  0  0  0  0  0
    8.9527   -8.5784   29.3149 O   0  0  0  0  0  0  0  0  0  0  0  0
    1.1864   -3.8108   26.8028 C   0  0  0  0  0  0  0  0  0  0  0  0
    0.2790   -9.9711   14.7549 C   0  0  0  0  0  0  0  0  0  0  0  0
   -1.4353   -4.7677   26.7033 O   0  0  0  0  0  0  0  0  0  0  0  0
   -0.4281   -5.5970   27.6140 C   0  0  0  0  0  0  0  0  0  0  0  0
    2.6727  -12.1080   13.8592 O   0  0  0  0  0  0  0  0  0  0  0  0
   -0.3276  -12.9600   13.5930 C   0  0  0  0  0  0  0  0  0  0  0  0
   -0.3055   -6.5742   28.3747 N   0  0  0  0  0  0  0  0  0  0  0  0
   10.4142   -7.6658   27.2095 N   0  0  0  0  0  0  0  0  0  0  0  0
    3.1925   -3.7282   26.7386 C   0  0  0  0  0  0  0  0  0  0  0  0
    8.9312   -8.2150   28.1490 F   0  0  0  0  0  0  0  0  0  0  0  0
   -0.3100   -8.6173   15.6962 C   0  0  0  0  0  0  0  0  0  0  0  0
    0.4433  -11.9268   14.2713 N   0  0  0  0  0  0  0  0  0  0  0  0
    7.9247   -8.1163   27.4741 N   0  0  0  0  0  0  0  0  0  0  0  0
    4.4995   -6.9893   26.7411 C   0  0  0  0  0  0  0  0  0  0  0  0
    1.5250  -10.1267   14.5362 C   0  0  0  0  0  0  0  0  0  0  0  0
    2.3286   -9.2920   15.1120 C   0  0  0  0  0  0  0  0  0  0  0  0
    5.9601   -5.5081   27.8754 C   0  0  0  0  0  0  0  0  0  0  0  0
    6.8530   -7.4580   27.2922 C   0  0  0  0  0  0  0  0  0  0  0  0
    1.0215   -5.0906   27.0599 C   0  0  0  0  0  0  0  0  0  0  0  0
    3.5594   -5.2374   27.1503 C   0  0  0  0  0  0  0  0  0  0  0  0
    6.8893   -6.1779   28.0600 He  0  0  0  0  0  0  0  0  0  0  0  0
  1  2  4  0
  1  3  1  0
  1  8  4  0
  1  9  1  0
  1 20  3  0
  1 21  4  0
  1 27  2  0
  2  8  3  0
  2 19  4  0
  2 26  4  0
  2 27  4  0
  3  7  4  0
  3  9  4  0
  3 10  1  0
  3 19  4  0
  4  9  1  0
  4 21  4  0
  4 24  4  0
  4 27  1  0
  5  8  4  0
  5 11  1  0
  5 16  2  0
  6 11  3  0
  6 12  2  0
  6 15  1  0
  6 19  4  0
  6 22  4  0
  7 16  2  0
  7 17  2  0
  7 20  2  0
  8 18  3  0
  8 25  2  0
  8 26  4  0
  9 12  2  0
  9 22  4  0
 10 11  2  0
 10 22  2  0
 10 23  1  0
 11 26  1  0
 13 19  1  0
 15 17  1  0
 16 17  2  0
 16 27  4  0
 17 20  1  0
 19 26  2  0
 20 25  1  0
 21 23  4  0
 22 23  1  0
M  END
$$$$

 Created by Python create_sdf_string function

 28 29  0  0  0  0  0  0  0  0999 V2000
    5.7589   -8.0221   26.6970 C   0  0  0  0  0  0  0  0  0  0  0  0
    2.1076   -5.8425   27.3007 C   0  0  0  0  0  0  0  0  0  0  0  0
   -0.5315  -11.0877   14.6045 N   0  0  0  0  0  0  0  0  0  0  0  0
    4.5135   -6.0050   27.2328 C   0  0  0  0  0  0  0  0  0  0  0  0
    2.2581   -3.0764   26.7062 C   0  0  0  0  0  0  0  0  0  0  0  0
    1.6904  -11.6256   14.1634 C   0  0  0  0  0  0  0  0  0  0  0  0
    9.0813   -8.4560   29.2935 O   0  0  0  0  0  0  0  0  0  0  0  0
    1.0585   -3.6489   26.8106 C   0  0  0  0  0  0  0  0  0  0  0  0
    0.1927  -10.0346   14.9681 C   0  0  0  0  0  0  0  0  0  0  0  0
   -1.4165   -5.0074   26.8696 O   0  0  0  0  0  0  0  0  0  0  0  0
   -0.3839   -5.5802   27.4342 C   0  0  0  0  0  0  0  0  0  0  0  0
    2.6656  -12.1876   13.8874 O   0  0  0  0  0  0  0  0  0  0  0  0
   -0.2355  -13.2320   13.6409 C   0  0  0  0  0  0  0  0  0  0  0  0
   -0.5234   -6.5577   28.2787 N   0  0  0  0  0  0  0  0  0  0  0  0
   10.3022   -7.8105   27.3049 C   0  0  0  0  0  0  0  0  0  0  0  0
    6.7939   -6.2329   27.9417 C   0  0  0  0  0  0  0  0  0  0  0  0
    3.4271   -3.8464   26.9588 C   0  0  0  0  0  0  0  0  0  0  0  0
    9.0449   -8.1495   28.0891 C   0  0  0  0  0  0  0  0  0  0  0  0
   -0.3014   -8.7793   15.4999 C   0  0  0  0  0  0  0  0  0  0  0  0
    0.3608  -11.9893   14.1250 N   0  0  0  0  0  0  0  0  0  0  0  0
    7.9603   -8.1658   27.2816 N   0  0  0  0  0  0  0  0  0  0  0  0
    4.5822   -7.2730   26.6625 C   0  0  0  0  0  0  0  0  0  0  0  0
    1.5519  -10.2736   14.7231 C   0  0  0  0  0  0  0  0  0  0  0  0
    2.5321   -9.2990   14.9835 C   0  0  0  0  0  0  0  0  0  0  0  0
    5.6309   -5.5046   27.8809 C   0  0  0  0  0  0  0  0  0  0  0  0
    6.8350   -7.4558   27.3370 C   0  0  0  0  0  0  0  0  0  0  0  0
    0.9748   -5.0096   27.1703 C   0  0  0  0  0  0  0  0  0  0  0  0
    3.3813   -5.2591   27.1607 C   0  0  0  0  0  0  0  0  0  0  0  0
  1 22  4  0
  1 26  4  0
  2 27  4  0
  2 28  4  0
  3  9  4  0
  3 20  4  0
  4 22  4  0
  4 25  4  0
  4 28  1  0
  5  8  4  0
  5 17  4  0
  6 12  2  0
  6 20  4  0
  6 23  4  0
  7 18  2  0
  8 27  4  0
  9 19  1  0
  9 23  4  0
 10 11  2  0
 11 14  1  0
 11 27  1  0
 13 20  1  0
 15 18  1  0
 16 25  4  0
 16 26  4  0
 17 28  4  0
 18 21  1  0
 21 26  1  0
 23 24  1  0
M  END
$$$$

 Created by Python create_sdf_string function

 28 36  0  0  0  0  0  0  0  0999 V2000
    5.6885   -8.0768   26.8484 C   0  0  0  0  0  0  0  0  0  0  0  0
    1.9836   -6.2184   27.1748 C   0  0  0  0  0  0  0  0  0  0  0  0
    4.4204   -6.1435   27.3985 C   0  0  0  0  0  0  0  0  0  0  0  0
    2.1903   -3.0663   26.8172 C   0  0  0  0  0  0  0  0  0  0  0  0
    1.7726  -11.4722   14.1234 C   0  0  0  0  0  0  0  0  0  0  0  0
    9.0078   -8.2455   29.3492 O   0  0  0  0  0  0  0  0  0  0  0  0
    0.9623   -3.6801   26.6804 C   0  0  0  0  0  0  0  0  0  0  0  0
    0.0711  -10.1241   14.9870 C   0  0  0  0  0  0  0  0  0  0  0  0
   -1.3234   -4.8111   26.8512 O   0  0  0  0  0  0  0  0  0  0  0  0
   -0.1497   -5.6808   27.5052 C   0  0  0  0  0  0  0  0  0  0  0  0
    2.7786  -12.1216   14.2157 O   0  0  0  0  0  0  0  0  0  0  0  0
   -0.4757  -13.1893   13.7093 C   0  0  0  0  0  0  0  0  0  0  0  0
   -0.3852   -6.5430   28.2989 C   0  0  0  0  0  0  0  0  0  0  0  0
   10.1566   -7.7684   27.2122 C   0  0  0  0  0  0  0  0  0  0  0  0
    6.7737   -6.3177   27.7615 C   0  0  0  0  0  0  0  0  0  0  0  0
    3.4852   -3.5724   26.8209 C   0  0  0  0  0  0  0  0  0  0  0  0
    8.9099   -7.7724   27.9591 C   0  0  0  0  0  0  0  0  0  0  0  0
   -0.1972   -8.7885   15.5365 C   0  0  0  0  0  0  0  0  0  0  0  0
    0.1507  -12.1412   14.1731 N   0  0  0  0  0  0  0  0  0  0  0  0
    8.1117   -7.9776   27.2697 N   0  0  0  0  0  0  0  0  0  0  0  0
    4.7982   -7.2838   26.6661 C   0  0  0  0  0  0  0  0  0  0  0  0
    1.4827  -10.3370   14.9165 C   0  0  0  0  0  0  0  0  0  0  0  0
    2.4179   -9.5201   14.8043 C   0  0  0  0  0  0  0  0  0  0  0  0
    6.9860   -7.2654   27.2392 C   0  0  0  0  0  0  0  0  0  0  0  0
    1.1495   -5.1506   27.0942 C   0  0  0  0  0  0  0  0  0  0  0  0
   -0.5165  -10.8556   14.4686 He  0  0  0  0  0  0  0  0  0  0  0  0
    5.3364   -5.6143   27.7242 He  0  0  0  0  0  0  0  0  0  0  0  0
    3.5777   -5.2525   26.9875 He  0  0  0  0  0  0  0  0  0  0  0  0
  1  3  3  0
  1 21  4  0
  1 24  4  0
  2 21  1  0
  2 25  4  0
  4  5  2  0
  4  7  4  0
  4 16  4  0
  5 11  2  0
  5 15  4  0
  5 19  4  0
  5 22  4  0
  5 24  1  0
  6 17  2  0
  6 18  4  0
  7 25  4  0
  8 18  1  0
  8 21  1  0
  8 22  4  0
  8 25  3  0
  9 11  4  0
 10 13  1  0
 10 19  4  0
 10 25  1  0
 11 18  2  0
 11 25  3  0
 12 13  2  0
 12 19  1  0
 13 20  4  0
 13 21  3  0
 14 17  1  0
 15 23  2  0
 15 24  4  0
 17 20  1  0
 20 24  1  0
 22 23  1  0
M  END
$$$$

 Created by Python create_sdf_string function

 28 29  0  0  0  0  0  0  0  0999 V2000
    5.7564   -8.0308   26.6994 C   0  0  0  0  0  0  0  0  0  0  0  0
    2.0987   -5.8540   27.1707 C   0  0  0  0  0  0  0  0  0  0  0  0
   -0.6182  -11.0289   14.5399 N   0  0  0  0  0  0  0  0  0  0  0  0
    4.4823   -6.0050   27.1736 C   0  0  0  0  0  0  0  0  0  0  0  0
    2.2826   -3.0714   26.7024 C   0  0  0  0  0  0  0  0  0  0  0  0
    1.6000  -11.6732   14.2722 C   0  0  0  0  0  0  0  0  0  0  0  0
    9.0371   -8.1476   29.2661 O   0  0  0  0  0  0  0  0  0  0  0  0
    1.0270   -3.6505   26.7976 C   0  0  0  0  0  0  0  0  0  0  0  0
    0.1394  -10.0122   14.9515 C   0  0  0  0  0  0  0  0  0  0  0  0
   -1.3590   -5.0044   26.9231 O   0  0  0  0  0  0  0  0  0  0  0  0
   -0.3222   -5.5949   27.4265 C   0  0  0  0  0  0  0  0  0  0  0  0
    2.5877  -12.2650   14.0641 O   0  0  0  0  0  0  0  0  0  0  0  0
   -0.3657  -13.2052   13.6576 C   0  0  0  0  0  0  0  0  0  0  0  0
   -0.4332   -6.5803   28.2857 N   0  0  0  0  0  0  0  0  0  0  0  0
   10.3657   -7.8504   27.2249 C   0  0  0  0  0  0  0  0  0  0  0  0
    6.7503   -6.2107   27.8530 C   0  0  0  0  0  0  0  0  0  0  0  0
    3.4281   -3.8679   26.8972 C   0  0  0  0  0  0  0  0  0  0  0  0
    9.0702   -7.9963   28.0375 C   0  0  0  0  0  0  0  0  0  0  0  0
   -0.3174   -8.7705   15.5540 C   0  0  0  0  0  0  0  0  0  0  0  0
    0.2267  -11.9943   14.1452 N   0  0  0  0  0  0  0  0  0  0  0  0
    8.0131   -8.0273   27.1914 N   0  0  0  0  0  0  0  0  0  0  0  0
    4.5476   -7.3251   26.6868 C   0  0  0  0  0  0  0  0  0  0  0  0
    1.4880  -10.2966   14.7601 C   0  0  0  0  0  0  0  0  0  0  0  0
    2.5185   -9.3941   14.9569 C   0  0  0  0  0  0  0  0  0  0  0  0
    5.5927   -5.4675   27.7601 C   0  0  0  0  0  0  0  0  0  0  0  0
    6.8403   -7.4120   27.2910 C   0  0  0  0  0  0  0  0  0  0  0  0
    0.9544   -5.0294   27.1117 C   0  0  0  0  0  0  0  0  0  0  0  0
    3.3532   -5.2719   27.0679 C   0  0  0  0  0  0  0  0  0  0  0  0
  1 22  4  0
  1 26  4  0
  2 27  4  0
  2 28  4  0
  3  9  4  0
  3 20  4  0
  4 22  4  0
  4 25  4  0
  4 28  1  0
  5  8  4  0
  5 17  4  0
  6 12  2  0
  6 20  4  0
  6 23  4  0
  7 18  2  0
  8 27  4  0
  9 19  1  0
  9 23  4  0
 10 11  2  0
 11 14  1  0
 11 27  1  0
 13 20  1  0
 15 18  1  0
 16 25  4  0
 16 26  4  0
 17 28  4  0
 18 21  1  0
 21 26  1  0
 23 24  1  0
M  END
$$$$

 Created by Python create_sdf_string function

 28 40  0  0  0  0  0  0  0  0999 V2000
    5.7012   -7.8969   26.6929 C   0  0  0  0  0  0  0  0  0  0  0  0
    2.1273   -5.7639   27.1265 C   0  0  0  0  0  0  0  0  0  0  0  0
   -0.5410  -11.2504   14.4929 N   0  0  0  0  0  0  0  0  0  0  0  0
    4.6732   -6.2248   27.3022 C   0  0  0  0  0  0  0  0  0  0  0  0
    2.3943   -3.3089   26.7261 C   0  0  0  0  0  0  0  0  0  0  0  0
    1.7964  -11.6005   14.0610 C   0  0  0  0  0  0  0  0  0  0  0  0
    9.1584   -8.2059   28.9167 O   0  0  0  0  0  0  0  0  0  0  0  0
    0.8496   -3.9183   26.4816 C   0  0  0  0  0  0  0  0  0  0  0  0
   -0.0625  -10.0782   14.9131 C   0  0  0  0  0  0  0  0  0  0  0  0
   -1.5056   -5.0005   27.2688 O   0  0  0  0  0  0  0  0  0  0  0  0
   -0.0110   -5.4959   27.7025 C   0  0  0  0  0  0  0  0  0  0  0  0
    2.5586  -12.0668   13.9550 O   0  0  0  0  0  0  0  0  0  0  0  0
   -0.5005  -13.2544   13.8509 C   0  0  0  0  0  0  0  0  0  0  0  0
   -0.6865   -6.3957   28.3976 F   0  0  0  0  0  0  0  0  0  0  0  0
   10.4341   -7.9552   27.3321 C   0  0  0  0  0  0  0  0  0  0  0  0
    6.5868   -6.3845   27.8688 C   0  0  0  0  0  0  0  0  0  0  0  0
    9.1122   -8.0948   28.0143 C   0  0  0  0  0  0  0  0  0  0  0  0
   -0.3243   -8.8586   15.5174 C   0  0  0  0  0  0  0  0  0  0  0  0
    0.1706  -11.6738   14.1102 N   0  0  0  0  0  0  0  0  0  0  0  0
    7.8642   -8.0943   27.1514 N   0  0  0  0  0  0  0  0  0  0  0  0
    4.5645   -7.4414   26.8031 C   0  0  0  0  0  0  0  0  0  0  0  0
    1.2842  -10.1565   14.9610 C   0  0  0  0  0  0  0  0  0  0  0  0
    5.4863   -5.8380   27.7673 C   0  0  0  0  0  0  0  0  0  0  0  0
    6.6409   -7.2794   27.4242 P   0  0  0  0  0  0  0  0  0  0  0  0
    0.7832   -4.8619   27.3007 C   0  0  0  0  0  0  0  0  0  0  0  0
    3.3185   -5.2477   27.1650 Cl  0  0  0  0  0  0  0  0  0  0  0  0
    3.3623   -3.8892   26.9001 He  0  0  0  0  0  0  0  0  0  0  0  0
    2.3835   -9.6214   14.7193 He  0  0  0  0  0  0  0  0  0  0  0  0
  1  3  2  0
  1 11  4  0
  1 12  3  0
  1 21  4  0
  2 10  1  0
  2 20  4  0
  2 22  2  0
  2 25  4  0
  2 26  4  0
  3  5  1  0
  3  9  4  0
  3 19  4  0
  4  5  4  0
  4 10  3  0
  4 16  4  0
  4 19  1  0
  4 21  4  0
  4 23  4  0
  4 24  3  0
  4 26  1  0
  5  8  4  0
  5 24  3  0
  6 19  4  0
  6 20  4  0
  6 22  4  0
  7 17  2  0
  8 25  4  0
  9 18  1  0
  9 22  4  0
 10 17  4  0
 11 14  1  0
 11 25  1  0
 13 19  1  0
 15 17  1  0
 16 23  4  0
 16 24  4  0
 17 20  1  0
 20 24  1  0
 21 22  1  0
 23 26  1  0
M  END
$$$$

 Created by Python create_sdf_string function

 28 29  0  0  0  0  0  0  0  0999 V2000
    5.7143   -8.0755   26.6671 C   0  0  0  0  0  0  0  0  0  0  0  0
    2.0278   -5.8447   27.3299 C   0  0  0  0  0  0  0  0  0  0  0  0
   -0.6988  -11.0869   14.5741 N   0  0  0  0  0  0  0  0  0  0  0  0
    4.4359   -6.0837   27.2316 C   0  0  0  0  0  0  0  0  0  0  0  0
    2.2478   -3.1233   26.6052 C   0  0  0  0  0  0  0  0  0  0  0  0
    1.5006  -11.6160   14.1793 C   0  0  0  0  0  0  0  0  0  0  0  0
    9.0836   -8.1579   29.1630 O   0  0  0  0  0  0  0  0  0  0  0  0
    0.9990   -3.6880   26.7631 C   0  0  0  0  0  0  0  0  0  0  0  0
    0.0313  -10.0489   14.9482 C   0  0  0  0  0  0  0  0  0  0  0  0
   -1.4230   -4.9654   27.2059 O   0  0  0  0  0  0  0  0  0  0  0  0
   -0.3581   -5.5282   27.6295 C   0  0  0  0  0  0  0  0  0  0  0  0
    2.4898  -12.1572   13.8772 O   0  0  0  0  0  0  0  0  0  0  0  0
   -0.4054  -13.2373   13.7174 C   0  0  0  0  0  0  0  0  0  0  0  0
   -0.4671   -6.4757   28.4589 N   0  0  0  0  0  0  0  0  0  0  0  0
   10.4485   -8.1141   27.1625 C   0  0  0  0  0  0  0  0  0  0  0  0
    6.7050   -6.3099   27.9031 C   0  0  0  0  0  0  0  0  0  0  0  0
    3.4022   -3.8986   26.8664 C   0  0  0  0  0  0  0  0  0  0  0  0
    9.0939   -8.0706   27.9411 C   0  0  0  0  0  0  0  0  0  0  0  0
   -0.4965   -8.8392   15.5367 C   0  0  0  0  0  0  0  0  0  0  0  0
    0.1699  -11.9771   14.1566 N   0  0  0  0  0  0  0  0  0  0  0  0
    8.0185   -8.0513   27.1121 N   0  0  0  0  0  0  0  0  0  0  0  0
    4.5024   -7.3455   26.6676 C   0  0  0  0  0  0  0  0  0  0  0  0
    1.3921  -10.2722   14.7096 C   0  0  0  0  0  0  0  0  0  0  0  0
    2.4063   -9.3902   14.9211 C   0  0  0  0  0  0  0  0  0  0  0  0
    5.5373   -5.5933   27.8927 C   0  0  0  0  0  0  0  0  0  0  0  0
    6.7983   -7.4680   27.2636 C   0  0  0  0  0  0  0  0  0  0  0  0
    0.9156   -5.0176   27.2178 C   0  0  0  0  0  0  0  0  0  0  0  0
    3.2939   -5.3117   27.1363 C   0  0  0  0  0  0  0  0  0  0  0  0
  1 22  4  0
  1 26  4  0
  2 27  4  0
  2 28  4  0
  3  9  4  0
  3 20  4  0
  4 22  4  0
  4 25  4  0
  4 28  1  0
  5  8  4  0
  5 17  4  0
  6 12  2  0
  6 20  4  0
  6 23  4  0
  7 18  2  0
  8 27  4  0
  9 19  1  0
  9 23  4  0
 10 11  2  0
 11 14  1  0
 11 27  1  0
 13 20  1  0
 15 18  1  0
 16 25  4  0
 16 26  4  0
 17 28  4  0
 18 21  1  0
 21 26  1  0
 23 24  1  0
M  END
$$$$

 Created by Python create_sdf_string function

 28 37  0  0  0  0  0  0  0  0999 V2000
    5.5299   -7.9421   26.4695 C   0  0  0  0  0  0  0  0  0  0  0  0
    1.9728   -5.7559   27.4463 C   0  0  0  0  0  0  0  0  0  0  0  0
   -0.6729  -11.1753   14.6966 N   0  0  0  0  0  0  0  0  0  0  0  0
    4.4006   -6.2042   27.2284 I   0  0  0  0  0  0  0  0  0  0  0  0
    1.6466  -11.8533   14.2112 C   0  0  0  0  0  0  0  0  0  0  0  0
    8.9763   -8.1399   29.0761 O   0  0  0  0  0  0  0  0  0  0  0  0
    1.0353   -3.7649   26.6640 C   0  0  0  0  0  0  0  0  0  0  0  0
    0.2023  -10.0361   15.0997 C   0  0  0  0  0  0  0  0  0  0  0  0
   -0.5412   -5.7312   27.6428 C   0  0  0  0  0  0  0  0  0  0  0  0
    2.6111  -12.0888   13.9762 O   0  0  0  0  0  0  0  0  0  0  0  0
   -0.5450  -13.1824   13.4611 C   0  0  0  0  0  0  0  0  0  0  0  0
   -0.4553   -6.2990   28.7243 N   0  0  0  0  0  0  0  0  0  0  0  0
   10.4497   -8.2469   27.2076 C   0  0  0  0  0  0  0  0  0  0  0  0
    6.5957   -6.5419   27.8174 C   0  0  0  0  0  0  0  0  0  0  0  0
    3.5172   -3.9025   26.7799 C   0  0  0  0  0  0  0  0  0  0  0  0
    9.1194   -8.0100   28.0052 C   0  0  0  0  0  0  0  0  0  0  0  0
   -0.3708   -9.0588   15.7460 C   0  0  0  0  0  0  0  0  0  0  0  0
    0.1574  -11.9129   13.8669 N   0  0  0  0  0  0  0  0  0  0  0  0
    7.7776   -7.9233   26.9374 N   0  0  0  0  0  0  0  0  0  0  0  0
    4.7086   -7.4865   26.7784 C   0  0  0  0  0  0  0  0  0  0  0  0
    1.2609  -10.3503   14.8061 C   0  0  0  0  0  0  0  0  0  0  0  0
    2.5077   -9.3121   14.9557 C   0  0  0  0  0  0  0  0  0  0  0  0
    5.7677   -5.4516   28.1925 C   0  0  0  0  0  0  0  0  0  0  0  0
    6.7586   -7.5763   27.3965 Cl  0  0  0  0  0  0  0  0  0  0  0  0
    1.0166   -4.9586   26.9483 C   0  0  0  0  0  0  0  0  0  0  0  0
    3.2796   -5.0486   27.3600 O   0  0  0  0  0  0  0  0  0  0  0  0
    2.3391   -2.9436   26.8315 He  0  0  0  0  0  0  0  0  0  0  0  0
   -1.4081   -5.0332   27.2318 He  0  0  0  0  0  0  0  0  0  0  0  0
  1 20  4  0
  1 24  4  0
  1 26  4  0
  2 25  1  0
  2 26  4  0
  3 12  4  0
  3 13  1  0
  3 15  3  0
  3 18  4  0
  4 20  4  0
  4 26  2  0
  5 10  2  0
  5 11  2  0
  5 16  3  0
  5 18  4  0
  5 19  3  0
  5 21  4  0
  6 15  3  0
  6 16  2  0
  7  8  3  0
  7 17  4  0
  7 25  4  0
  8 17  1  0
  8 21  2  0
  9 12  1  0
  9 25  1  0
 10 21  4  0
 11 18  1  0
 12 15  4  0
 14 23  4  0
 14 24  4  0
 15 26  4  0
 16 19  1  0
 19 24  1  0
 21 22  1  0
 21 25  1  0
 23 26  4  0
M  END
$$$$

 Created by Python create_sdf_string function

 28 29  0  0  0  0  0  0  0  0999 V2000
    5.6709   -7.9842   26.5815 C   0  0  0  0  0  0  0  0  0  0  0  0
    2.0589   -5.7938   27.3939 C   0  0  0  0  0  0  0  0  0  0  0  0
   -0.6932  -11.1389   14.6275 N   0  0  0  0  0  0  0  0  0  0  0  0
    4.4333   -6.0313   27.2907 C   0  0  0  0  0  0  0  0  0  0  0  0
    2.2827   -3.0510   26.6388 C   0  0  0  0  0  0  0  0  0  0  0  0
    1.5256  -11.6534   14.1603 C   0  0  0  0  0  0  0  0  0  0  0  0
    8.9723   -8.0534   29.1278 O   0  0  0  0  0  0  0  0  0  0  0  0
    1.0459   -3.6389   26.7774 C   0  0  0  0  0  0  0  0  0  0  0  0
    0.0587  -10.1378   15.0826 C   0  0  0  0  0  0  0  0  0  0  0  0
   -1.4572   -5.0264   27.0690 O   0  0  0  0  0  0  0  0  0  0  0  0
   -0.3686   -5.4957   27.6479 C   0  0  0  0  0  0  0  0  0  0  0  0
    2.4945  -12.2113   13.8828 O   0  0  0  0  0  0  0  0  0  0  0  0
   -0.4497  -13.1517   13.4520 C   0  0  0  0  0  0  0  0  0  0  0  0
   -0.4132   -6.4194   28.5845 N   0  0  0  0  0  0  0  0  0  0  0  0
   10.4305   -8.2886   27.1660 C   0  0  0  0  0  0  0  0  0  0  0  0
    6.6931   -6.3451   27.9806 C   0  0  0  0  0  0  0  0  0  0  0  0
    3.4450   -3.8549   26.9301 C   0  0  0  0  0  0  0  0  0  0  0  0
    9.0355   -8.0827   27.8948 C   0  0  0  0  0  0  0  0  0  0  0  0
   -0.4598   -8.9948   15.7770 C   0  0  0  0  0  0  0  0  0  0  0  0
    0.1752  -11.9879   14.0790 N   0  0  0  0  0  0  0  0  0  0  0  0
    7.9719   -8.0424   27.0145 N   0  0  0  0  0  0  0  0  0  0  0  0
    4.4794   -7.2653   26.6468 C   0  0  0  0  0  0  0  0  0  0  0  0
    1.4289  -10.3257   14.7879 C   0  0  0  0  0  0  0  0  0  0  0  0
    2.4334   -9.4030   15.0013 C   0  0  0  0  0  0  0  0  0  0  0  0
    5.5373   -5.5872   28.0170 C   0  0  0  0  0  0  0  0  0  0  0  0
    6.7666   -7.4439   27.2287 C   0  0  0  0  0  0  0  0  0  0  0  0
    0.9433   -4.9540   27.2594 C   0  0  0  0  0  0  0  0  0  0  0  0
    3.3135   -5.2423   27.2003 C   0  0  0  0  0  0  0  0  0  0  0  0
  1 22  4  0
  1 26  4  0
  2 27  4  0
  2 28  4  0
  3  9  4  0
  3 20  4  0
  4 22  4  0
  4 25  4  0
  4 28  1  0
  5  8  4  0
  5 17  4  0
  6 12  2  0
  6 20  4  0
  6 23  4  0
  7 18  2  0
  8 27  4  0
  9 19  1  0
  9 23  4  0
 10 11  2  0
 11 14  1  0
 11 27  1  0
 13 20  1  0
 15 18  1  0
 16 25  4  0
 16 26  4  0
 17 28  4  0
 18 21  1  0
 21 26  1  0
 23 24  1  0
M  END
$$$$

 Created by Python create_sdf_string function

 28 42  0  0  0  0  0  0  0  0999 V2000
    5.7623   -8.0866   26.7507 C   0  0  0  0  0  0  0  0  0  0  0  0
    2.1227   -5.7063   27.5915 C   0  0  0  0  0  0  0  0  0  0  0  0
    4.5488   -6.0263   27.2688 C   0  0  0  0  0  0  0  0  0  0  0  0
    2.1444   -3.3298   26.6438 C   0  0  0  0  0  0  0  0  0  0  0  0
    1.6543  -11.7379   14.1562 C   0  0  0  0  0  0  0  0  0  0  0  0
    8.9623   -8.0922   29.0529 O   0  0  0  0  0  0  0  0  0  0  0  0
    0.9967   -3.2710   26.8310 C   0  0  0  0  0  0  0  0  0  0  0  0
    0.0408  -10.1799   15.3211 C   0  0  0  0  0  0  0  0  0  0  0  0
   -1.3024   -4.9889   26.9911 O   0  0  0  0  0  0  0  0  0  0  0  0
   -0.5510   -5.5551   27.5684 C   0  0  0  0  0  0  0  0  0  0  0  0
    2.5252  -12.1599   13.6971 O   0  0  0  0  0  0  0  0  0  0  0  0
   -0.4563  -13.1648   13.4085 C   0  0  0  0  0  0  0  0  0  0  0  0
   -0.3491   -6.4453   28.6281 N   0  0  0  0  0  0  0  0  0  0  0  0
   10.3873   -8.3875   27.1264 C   0  0  0  0  0  0  0  0  0  0  0  0
    6.7122   -6.2278   28.0193 O   0  0  0  0  0  0  0  0  0  0  0  0
    3.3752   -4.0005   26.9553 C   0  0  0  0  0  0  0  0  0  0  0  0
    8.8851   -8.1695   27.7034 C   0  0  0  0  0  0  0  0  0  0  0  0
   -0.3396   -9.1777   15.7718 C   0  0  0  0  0  0  0  0  0  0  0  0
    0.1702  -12.1163   14.0335 P   0  0  0  0  0  0  0  0  0  0  0  0
    7.9110   -8.1835   26.9579 N   0  0  0  0  0  0  0  0  0  0  0  0
    4.5808   -7.3736   26.5916 C   0  0  0  0  0  0  0  0  0  0  0  0
    1.6568  -10.2698   14.7140 F   0  0  0  0  0  0  0  0  0  0  0  0
    2.3492   -9.2407   15.0744 C   0  0  0  0  0  0  0  0  0  0  0  0
    5.6554   -5.3469   28.1298 C   0  0  0  0  0  0  0  0  0  0  0  0
    6.7445   -7.4435   27.3896 C   0  0  0  0  0  0  0  0  0  0  0  0
    0.8433   -5.2176   27.0468 C   0  0  0  0  0  0  0  0  0  0  0  0
    3.2728   -5.0849   26.9924 C   0  0  0  0  0  0  0  0  0  0  0  0
   -0.6682  -11.1582   14.4403 He  0  0  0  0  0  0  0  0  0  0  0  0
  1  2  4  0
  1  9  4  0
  1 21  2  0
  1 25  4  0
  2  6  4  0
  2 26  4  0
  2 27  4  0
  3  5  1  0
  3 21  4  0
  3 24  4  0
  3 27  1  0
  4  7  4  0
  4 16  4  0
  4 18  3  0
  4 25  2  0
  5 11  2  0
  5 18  2  0
  5 19  4  0
  5 22  4  0
  6 17  2  0
  7 13  4  0
  7 17  2  0
  7 22  1  0
  7 26  4  0
  8 18  1  0
  8 20  4  0
  8 22  4  0
  9 10  2  0
 10 13  1  0
 10 26  4  0
 11 12  4  0
 11 20  4  0
 12 19  1  0
 12 24  4  0
 13 15  3  0
 14 17  1  0
 15 24  4  0
 15 25  4  0
 17 22  4  0
 20 27  3  0
 22 23  1  0
 23 27  2  0
M  END
$$$$

 Created by Python create_sdf_string function

 28 29  0  0  0  0  0  0  0  0999 V2000
    5.7147   -8.0068   26.6625 C   0  0  0  0  0  0  0  0  0  0  0  0
    2.0485   -5.7807   27.4027 C   0  0  0  0  0  0  0  0  0  0  0  0
   -0.6463  -11.1800   14.6369 N   0  0  0  0  0  0  0  0  0  0  0  0
    4.4553   -5.9918   27.2743 C   0  0  0  0  0  0  0  0  0  0  0  0
    2.2368   -3.0699   26.6416 C   0  0  0  0  0  0  0  0  0  0  0  0
    1.5589  -11.6417   14.0843 C   0  0  0  0  0  0  0  0  0  0  0  0
    9.0058   -8.0587   29.0709 O   0  0  0  0  0  0  0  0  0  0  0  0
    0.9895   -3.6294   26.7861 C   0  0  0  0  0  0  0  0  0  0  0  0
    0.1029  -10.1734   15.1102 C   0  0  0  0  0  0  0  0  0  0  0  0
   -1.4394   -5.0349   27.0056 O   0  0  0  0  0  0  0  0  0  0  0  0
   -0.4031   -5.5116   27.5842 C   0  0  0  0  0  0  0  0  0  0  0  0
    2.5279  -12.1753   13.7161 O   0  0  0  0  0  0  0  0  0  0  0  0
   -0.3772  -13.2058   13.4020 C   0  0  0  0  0  0  0  0  0  0  0  0
   -0.4789   -6.4850   28.4856 N   0  0  0  0  0  0  0  0  0  0  0  0
   10.4148   -8.4193   27.0878 C   0  0  0  0  0  0  0  0  0  0  0  0
    6.7245   -6.2818   27.9880 C   0  0  0  0  0  0  0  0  0  0  0  0
    3.4112   -3.8504   26.8375 C   0  0  0  0  0  0  0  0  0  0  0  0
    9.0220   -8.1443   27.8346 C   0  0  0  0  0  0  0  0  0  0  0  0
   -0.3773   -9.0531   15.8678 C   0  0  0  0  0  0  0  0  0  0  0  0
    0.1773  -12.0393   14.0225 N   0  0  0  0  0  0  0  0  0  0  0  0
    7.9864   -8.0562   27.0573 N   0  0  0  0  0  0  0  0  0  0  0  0
    4.5067   -7.2315   26.6752 C   0  0  0  0  0  0  0  0  0  0  0  0
    1.4458  -10.3668   14.7762 C   0  0  0  0  0  0  0  0  0  0  0  0
    2.4158   -9.3777   15.0606 C   0  0  0  0  0  0  0  0  0  0  0  0
    5.5693   -5.5227   27.9450 C   0  0  0  0  0  0  0  0  0  0  0  0
    6.7958   -7.4471   27.2818 C   0  0  0  0  0  0  0  0  0  0  0  0
    0.9333   -4.9517   27.2522 C   0  0  0  0  0  0  0  0  0  0  0  0
    3.3338   -5.2370   27.1733 C   0  0  0  0  0  0  0  0  0  0  0  0
  1 22  4  0
  1 26  4  0
  2 27  4  0
  2 28  4  0
  3  9  4  0
  3 20  4  0
  4 22  4  0
  4 25  4  0
  4 28  1  0
  5  8  4  0
  5 17  4  0
  6 12  2  0
  6 20  4  0
  6 23  4  0
  7 18  2  0
  8 27  4  0
  9 19  1  0
  9 23  4  0
 10 11  2  0
 11 14  1  0
 11 27  1  0
 13 20  1  0
 15 18  1  0
 16 25  4  0
 16 26  4  0
 17 28  4  0
 18 21  1  0
 21 26  1  0
 23 24  1  0
M  END
$$$$

 Created by Python create_sdf_string function

 28 31  0  0  0  0  0  0  0  0999 V2000
    5.9607   -8.1287   26.3647 C   0  0  0  0  0  0  0  0  0  0  0  0
    2.1014   -5.6312   27.3240 C   0  0  0  0  0  0  0  0  0  0  0  0
    4.4719   -6.1015   27.3336 C   0  0  0  0  0  0  0  0  0  0  0  0
    2.1901   -3.1857   26.6072 C   0  0  0  0  0  0  0  0  0  0  0  0
    1.4832  -11.6976   13.9396 C   0  0  0  0  0  0  0  0  0  0  0  0
    8.9916   -8.1258   29.1792 O   0  0  0  0  0  0  0  0  0  0  0  0
    1.0089   -3.7004   26.8558 C   0  0  0  0  0  0  0  0  0  0  0  0
   -0.0255  -10.2018   15.3476 C   0  0  0  0  0  0  0  0  0  0  0  0
   -0.5425   -5.3757   27.6331 C   0  0  0  0  0  0  0  0  0  0  0  0
    2.3933  -12.3374   13.5921 O   0  0  0  0  0  0  0  0  0  0  0  0
   -0.4623   -6.6752   28.3614 N   0  0  0  0  0  0  0  0  0  0  0  0
   10.1877   -8.2779   26.9523 C   0  0  0  0  0  0  0  0  0  0  0  0
    3.3362   -3.8391   26.9996 C   0  0  0  0  0  0  0  0  0  0  0  0
    9.0437   -8.1218   27.8770 C   0  0  0  0  0  0  0  0  0  0  0  0
   -0.4707   -9.2168   15.7949 C   0  0  0  0  0  0  0  0  0  0  0  0
    0.2485  -12.0897   13.9785 N   0  0  0  0  0  0  0  0  0  0  0  0
    7.9305   -8.1843   26.9251 N   0  0  0  0  0  0  0  0  0  0  0  0
    4.7087   -7.2170   26.6741 C   0  0  0  0  0  0  0  0  0  0  0  0
    1.2423  -10.4736   14.9430 C   0  0  0  0  0  0  0  0  0  0  0  0
    2.3994   -9.5106   14.9542 C   0  0  0  0  0  0  0  0  0  0  0  0
    7.1120   -7.4068   27.2408 C   0  0  0  0  0  0  0  0  0  0  0  0
    3.4487   -5.2153   27.3184 C   0  0  0  0  0  0  0  0  0  0  0  0
   -0.6150  -11.1421   14.6616 He  0  0  0  0  0  0  0  0  0  0  0  0
   -1.3975   -5.1316   26.9935 He  0  0  0  0  0  0  0  0  0  0  0  0
   -0.1909  -13.2048   13.3324 He  0  0  0  0  0  0  0  0  0  0  0  0
    6.7072   -6.1982   28.0039 He  0  0  0  0  0  0  0  0  0  0  0  0
    5.5709   -5.5057   27.9466 He  0  0  0  0  0  0  0  0  0  0  0  0
    0.6957   -4.9472   27.2406 He  0  0  0  0  0  0  0  0  0  0  0  0
  1 12  2  0
  1 18  4  0
  1 21  4  0
  2 11  4  0
  2 22  4  0
  3  7  2  0
  3 18  4  0
  3 22  1  0
  4  7  4  0
  4 13  4  0
  4 16  3  0
  5 10  2  0
  5 16  4  0
  5 19  4  0
  5 22  1  0
  6 14  2  0
  6 15  4  0
  7  9  2  0
  7 10  1  0
  8 13  2  0
  8 15  1  0
  8 19  4  0
  9 11  1  0
 10 17  3  0
 11 12  1  0
 12 14  1  0
 13 22  4  0
 14 17  1  0
 16 20  2  0
 17 21  1  0
 19 20  1  0
M  END
$$$$

 Created by Python create_sdf_string function

 28 29  0  0  0  0  0  0  0  0999 V2000
    5.7544   -7.8955   26.5154 C   0  0  0  0  0  0  0  0  0  0  0  0
    2.0492   -5.7679   27.4247 C   0  0  0  0  0  0  0  0  0  0  0  0
   -0.7058  -11.2586   14.6588 N   0  0  0  0  0  0  0  0  0  0  0  0
    4.4738   -5.9769   27.2498 C   0  0  0  0  0  0  0  0  0  0  0  0
    2.2472   -3.0554   26.6969 C   0  0  0  0  0  0  0  0  0  0  0  0
    1.4878  -11.6695   14.0688 C   0  0  0  0  0  0  0  0  0  0  0  0
    9.0506   -8.0700   29.1242 O   0  0  0  0  0  0  0  0  0  0  0  0
    1.0028   -3.6125   26.8273 C   0  0  0  0  0  0  0  0  0  0  0  0
    0.0307  -10.2437   15.1727 C   0  0  0  0  0  0  0  0  0  0  0  0
   -1.4523   -5.0366   26.9935 O   0  0  0  0  0  0  0  0  0  0  0  0
   -0.4051   -5.5406   27.5252 C   0  0  0  0  0  0  0  0  0  0  0  0
    2.4414  -12.1899   13.6230 O   0  0  0  0  0  0  0  0  0  0  0  0
   -0.3411  -13.1965   13.3372 C   0  0  0  0  0  0  0  0  0  0  0  0
   -0.4598   -6.5838   28.3760 N   0  0  0  0  0  0  0  0  0  0  0  0
   10.3950   -8.3343   27.0394 C   0  0  0  0  0  0  0  0  0  0  0  0
    6.7612   -6.2721   27.9580 C   0  0  0  0  0  0  0  0  0  0  0  0
    3.4055   -3.8499   26.9052 C   0  0  0  0  0  0  0  0  0  0  0  0
    9.0759   -8.1194   27.8879 C   0  0  0  0  0  0  0  0  0  0  0  0
   -0.4916   -9.1605   15.9120 C   0  0  0  0  0  0  0  0  0  0  0  0
    0.1105  -12.1111   13.9813 N   0  0  0  0  0  0  0  0  0  0  0  0
    8.0031   -8.0259   27.0457 N   0  0  0  0  0  0  0  0  0  0  0  0
    4.5687   -7.1699   26.5929 C   0  0  0  0  0  0  0  0  0  0  0  0
    1.3753  -10.4275   14.8186 C   0  0  0  0  0  0  0  0  0  0  0  0
    2.3901   -9.5051   15.0606 C   0  0  0  0  0  0  0  0  0  0  0  0
    5.5827   -5.5343   27.9554 C   0  0  0  0  0  0  0  0  0  0  0  0
    6.8527   -7.4018   27.2121 C   0  0  0  0  0  0  0  0  0  0  0  0
    0.9192   -4.9537   27.2559 C   0  0  0  0  0  0  0  0  0  0  0  0
    3.3203   -5.2219   27.1906 C   0  0  0  0  0  0  0  0  0  0  0  0
  1 22  4  0
  1 26  4  0
  2 27  4  0
  2 28  4  0
  3  9  4  0
  3 20  4  0
  4 22  4  0
  4 25  4  0
  4 28  1  0
  5  8  4  0
  5 17  4  0
  6 12  2  0
  6 20  4  0
  6 23  4  0
  7 18  2  0
  8 27  4  0
  9 19  1  0
  9 23  4  0
 10 11  2  0
 11 14  1  0
 11 27  1  0
 13 20  1  0
 15 18  1  0
 16 25  4  0
 16 26  4  0
 17 28  4  0
 18 21  1  0
 21 26  1  0
 23 24  1  0
M  END
$$$$

 Created by Python create_sdf_string function

 28 36  0  0  0  0  0  0  0  0999 V2000
    5.7217   -7.7051   26.6623 C   0  0  0  0  0  0  0  0  0  0  0  0
    2.0069   -5.6827   27.3557 C   0  0  0  0  0  0  0  0  0  0  0  0
   -0.4744  -11.1978   14.5104 N   0  0  0  0  0  0  0  0  0  0  0  0
    4.4667   -5.9607   27.2491 C   0  0  0  0  0  0  0  0  0  0  0  0
    2.1870   -3.1325   26.7249 C   0  0  0  0  0  0  0  0  0  0  0  0
    1.3817  -11.7503   14.2043 C   0  0  0  0  0  0  0  0  0  0  0  0
    9.1804   -8.0027   29.1471 O   0  0  0  0  0  0  0  0  0  0  0  0
    0.9935   -3.5265   26.8037 C   0  0  0  0  0  0  0  0  0  0  0  0
   -0.0723  -10.4415   14.9489 C   0  0  0  0  0  0  0  0  0  0  0  0
   -1.3941   -4.9072   27.0352 O   0  0  0  0  0  0  0  0  0  0  0  0
   -0.3254   -5.4832   27.4429 C   0  0  0  0  0  0  0  0  0  0  0  0
    2.5343  -12.3583   13.6435 O   0  0  0  0  0  0  0  0  0  0  0  0
   -0.2844  -13.1801   13.3235 C   0  0  0  0  0  0  0  0  0  0  0  0
   -0.6653   -6.4797   28.3372 N   0  0  0  0  0  0  0  0  0  0  0  0
   10.3378   -8.5164   27.1287 C   0  0  0  0  0  0  0  0  0  0  0  0
    6.8072   -6.2475   28.0477 C   0  0  0  0  0  0  0  0  0  0  0  0
    3.4097   -3.8309   26.9982 C   0  0  0  0  0  0  0  0  0  0  0  0
    8.9433   -8.0903   27.9760 C   0  0  0  0  0  0  0  0  0  0  0  0
   -0.5195   -9.2027   15.7933 C   0  0  0  0  0  0  0  0  0  0  0  0
    0.1492  -12.0734   13.9257 N   0  0  0  0  0  0  0  0  0  0  0  0
    8.1131   -8.0651   27.2111 N   0  0  0  0  0  0  0  0  0  0  0  0
    4.5743   -7.2989   26.7338 C   0  0  0  0  0  0  0  0  0  0  0  0
    1.3333  -10.3601   14.7863 C   0  0  0  0  0  0  0  0  0  0  0  0
    5.6232   -5.6041   27.8911 C   0  0  0  0  0  0  0  0  0  0  0  0
    6.9382   -7.2918   27.2485 C   0  0  0  0  0  0  0  0  0  0  0  0
    0.7610   -4.9161   27.2880 C   0  0  0  0  0  0  0  0  0  0  0  0
    3.4689   -5.2136   27.2611 C   0  0  0  0  0  0  0  0  0  0  0  0
    2.3626   -9.5153   15.0272 He  0  0  0  0  0  0  0  0  0  0  0  0
  1 22  2  0
  1 25  3  0
  2 26  4  0
  2 27  4  0
  3  9  4  0
  3 20  4  0
  4 22  4  0
  4 24  4  0
  4 27  1  0
  5  8  4  0
  5 17  4  0
  6 12  2  0
  6 20  4  0
  6 23  4  0
  6 24  4  0
  7 18  2  0
  8  9  1  0
  8 26  4  0
  9 19  1  0
  9 23  4  0
 10 11  2  0
 11 14  2  0
 11 19  2  0
 11 26  1  0
 12 18  4  0
 13 16  4  0
 13 20  1  0
 14 17  2  0
 15 18  1  0
 15 27  2  0
 16 24  4  0
 16 25  4  0
 17 27  4  0
 18 21  1  0
 21 22  2  0
 21 25  1  0
M  END
$$$$

 Created by Python create_sdf_string function

 28 29  0  0  0  0  0  0  0  0999 V2000
    5.7678   -7.8671   26.6220 C   0  0  0  0  0  0  0  0  0  0  0  0
    2.0479   -5.7219   27.3848 C   0  0  0  0  0  0  0  0  0  0  0  0
   -0.7095  -11.2649   14.5078 N   0  0  0  0  0  0  0  0  0  0  0  0
    4.4812   -5.9259   27.2941 C   0  0  0  0  0  0  0  0  0  0  0  0
    2.2682   -2.9954   26.7280 C   0  0  0  0  0  0  0  0  0  0  0  0
    1.4930  -11.7003   14.0739 C   0  0  0  0  0  0  0  0  0  0  0  0
    9.1379   -7.9461   29.1559 O   0  0  0  0  0  0  0  0  0  0  0  0
    1.0056   -3.5495   26.8426 C   0  0  0  0  0  0  0  0  0  0  0  0
   -0.0055  -10.2525   15.0413 C   0  0  0  0  0  0  0  0  0  0  0  0
   -1.4358   -4.8796   26.9782 O   0  0  0  0  0  0  0  0  0  0  0  0
   -0.4220   -5.4584   27.5184 C   0  0  0  0  0  0  0  0  0  0  0  0
    2.4478  -12.2565   13.7377 O   0  0  0  0  0  0  0  0  0  0  0  0
   -0.3356  -13.2146   13.3126 C   0  0  0  0  0  0  0  0  0  0  0  0
   -0.5672   -6.5075   28.2951 N   0  0  0  0  0  0  0  0  0  0  0  0
   10.3764   -8.5232   27.1495 C   0  0  0  0  0  0  0  0  0  0  0  0
    6.7738   -6.2107   27.9885 C   0  0  0  0  0  0  0  0  0  0  0  0
    3.4192   -3.7891   26.9423 C   0  0  0  0  0  0  0  0  0  0  0  0
    9.0885   -8.1076   27.9323 C   0  0  0  0  0  0  0  0  0  0  0  0
   -0.5855   -9.1715   15.7865 C   0  0  0  0  0  0  0  0  0  0  0  0
    0.1746  -12.0890   13.9509 N   0  0  0  0  0  0  0  0  0  0  0  0
    8.0116   -8.0026   27.1350 N   0  0  0  0  0  0  0  0  0  0  0  0
    4.5653   -7.1636   26.6752 C   0  0  0  0  0  0  0  0  0  0  0  0
    1.3624  -10.4213   14.7733 C   0  0  0  0  0  0  0  0  0  0  0  0
    2.3608   -9.5172   15.0739 C   0  0  0  0  0  0  0  0  0  0  0  0
    5.5979   -5.4786   27.9603 C   0  0  0  0  0  0  0  0  0  0  0  0
    6.8502   -7.3596   27.2804 C   0  0  0  0  0  0  0  0  0  0  0  0
    0.9227   -4.8970   27.2348 C   0  0  0  0  0  0  0  0  0  0  0  0
    3.3293   -5.1738   27.2072 C   0  0  0  0  0  0  0  0  0  0  0  0
  1 22  4  0
  1 26  4  0
  2 27  4  0
  2 28  4  0
  3  9  4  0
  3 20  4  0
  4 22  4  0
  4 25  4  0
  4 28  1  0
  5  8  4  0
  5 17  4  0
  6 12  2  0
  6 20  4  0
  6 23  4  0
  7 18  2  0
  8 27  4  0
  9 19  1  0
  9 23  4  0
 10 11  2  0
 11 14  1  0
 11 27  1  0
 13 20  1  0
 15 18  1  0
 16 25  4  0
 16 26  4  0
 17 28  4  0
 18 21  1  0
 21 26  1  0
 23 24  1  0
M  END
$$$$

 Created by Python create_sdf_string function

 28 36  0  0  0  0  0  0  0  0999 V2000
    5.8399   -7.8402   26.6627 C   0  0  0  0  0  0  0  0  0  0  0  0
    1.9817   -5.5949   27.2345 C   0  0  0  0  0  0  0  0  0  0  0  0
    4.4002   -5.9912   27.1575 C   0  0  0  0  0  0  0  0  0  0  0  0
    2.2157   -2.8680   26.7456 C   0  0  0  0  0  0  0  0  0  0  0  0
    1.6400  -11.6250   14.1904 C   0  0  0  0  0  0  0  0  0  0  0  0
    9.2636   -7.9440   29.1289 O   0  0  0  0  0  0  0  0  0  0  0  0
    1.0221   -3.5621   26.7357 C   0  0  0  0  0  0  0  0  0  0  0  0
    0.1876  -10.2855   14.9881 C   0  0  0  0  0  0  0  0  0  0  0  0
   -1.4001   -5.0076   26.8785 O   0  0  0  0  0  0  0  0  0  0  0  0
   -0.4639   -5.4521   27.4996 C   0  0  0  0  0  0  0  0  0  0  0  0
    2.4459  -12.2811   13.6649 O   0  0  0  0  0  0  0  0  0  0  0  0
   -0.1148  -13.2706   13.1566 C   0  0  0  0  0  0  0  0  0  0  0  0
   -0.6119   -6.5992   28.2793 N   0  0  0  0  0  0  0  0  0  0  0  0
   10.5478   -8.5489   27.2031 C   0  0  0  0  0  0  0  0  0  0  0  0
    6.6245   -6.2640   27.9488 C   0  0  0  0  0  0  0  0  0  0  0  0
    3.4824   -3.9037   26.8030 C   0  0  0  0  0  0  0  0  0  0  0  0
   -0.4618   -9.1442   15.8086 C   0  0  0  0  0  0  0  0  0  0  0  0
    0.2296  -12.2830   13.8519 N   0  0  0  0  0  0  0  0  0  0  0  0
    8.1069   -7.9781   27.2292 N   0  0  0  0  0  0  0  0  0  0  0  0
    4.6595   -7.1908   26.6272 C   0  0  0  0  0  0  0  0  0  0  0  0
    1.3986  -10.4294   14.7961 C   0  0  0  0  0  0  0  0  0  0  0  0
    2.5218   -9.5472   15.0929 C   0  0  0  0  0  0  0  0  0  0  0  0
    5.6189   -5.4997   27.9500 C   0  0  0  0  0  0  0  0  0  0  0  0
    6.8413   -7.2435   27.2476 O   0  0  0  0  0  0  0  0  0  0  0  0
    0.7503   -4.9682   27.1428 C   0  0  0  0  0  0  0  0  0  0  0  0
    3.1528   -5.3460   27.1567 C   0  0  0  0  0  0  0  0  0  0  0  0
   -0.6482  -11.1977   14.6501 He  0  0  0  0  0  0  0  0  0  0  0  0
    9.0222   -7.9434   27.8515 He  0  0  0  0  0  0  0  0  0  0  0  0
  1 17  1  0
  1 20  4  0
  1 24  4  0
  2 25  4  0
  2 26  3  0
  3 18  2  0
  3 20  4  0
  3 23  4  0
  4  7  4  0
  4 13  2  0
  4 16  4  0
  4 24  1  0
  5 10  2  0
  5 11  2  0
  5 18  4  0
  5 21  4  0
  6 16  2  0
  6 23  2  0
  7 25  4  0
  8 17  1  0
  8 21  4  0
  9 10  1  0
  9 15  4  0
 10 13  1  0
 10 25  4  0
 12 15  3  0
 12 18  1  0
 12 25  2  0
 14 21  3  0
 15 23  4  0
 15 24  4  0
 16 26  4  0
 19 24  1  0
 20 24  4  0
 21 22  1  0
 21 26  3  0
M  END
$$$$

 Created by Python create_sdf_string function

 28 29  0  0  0  0  0  0  0  0999 V2000
    5.8037   -7.8754   26.5894 C   0  0  0  0  0  0  0  0  0  0  0  0
    1.9443   -5.7493   27.2867 C   0  0  0  0  0  0  0  0  0  0  0  0
   -0.6453  -11.2713   14.5568 N   0  0  0  0  0  0  0  0  0  0  0  0
    4.4687   -5.9682   27.2142 C   0  0  0  0  0  0  0  0  0  0  0  0
    2.2307   -2.9953   26.6654 C   0  0  0  0  0  0  0  0  0  0  0  0
    1.5601  -11.7075   14.0618 C   0  0  0  0  0  0  0  0  0  0  0  0
    9.1870   -7.8012   29.1441 O   0  0  0  0  0  0  0  0  0  0  0  0
    0.9661   -3.5528   26.8102 C   0  0  0  0  0  0  0  0  0  0  0  0
    0.0804  -10.2373   15.0755 C   0  0  0  0  0  0  0  0  0  0  0  0
   -1.4998   -4.9487   26.8786 O   0  0  0  0  0  0  0  0  0  0  0  0
   -0.4640   -5.4906   27.4415 C   0  0  0  0  0  0  0  0  0  0  0  0
    2.5108  -12.2351   13.7010 O   0  0  0  0  0  0  0  0  0  0  0  0
   -0.2109  -13.2633   13.2297 C   0  0  0  0  0  0  0  0  0  0  0  0
   -0.5445   -6.5267   28.2315 N   0  0  0  0  0  0  0  0  0  0  0  0
   10.4869   -8.5034   27.2182 C   0  0  0  0  0  0  0  0  0  0  0  0
    6.7266   -6.2005   27.9654 C   0  0  0  0  0  0  0  0  0  0  0  0
    3.3768   -3.8317   26.8530 C   0  0  0  0  0  0  0  0  0  0  0  0
    9.1466   -8.0201   27.9352 C   0  0  0  0  0  0  0  0  0  0  0  0
   -0.4829   -9.1198   15.7977 C   0  0  0  0  0  0  0  0  0  0  0  0
    0.2364  -12.1024   13.9533 N   0  0  0  0  0  0  0  0  0  0  0  0
    8.0538   -7.9433   27.1455 N   0  0  0  0  0  0  0  0  0  0  0  0
    4.5821   -7.1763   26.5886 C   0  0  0  0  0  0  0  0  0  0  0  0
    1.4486  -10.4279   14.7908 C   0  0  0  0  0  0  0  0  0  0  0  0
    2.4733   -9.5367   15.1215 C   0  0  0  0  0  0  0  0  0  0  0  0
    5.5420   -5.4820   27.9349 C   0  0  0  0  0  0  0  0  0  0  0  0
    6.8536   -7.3284   27.2760 C   0  0  0  0  0  0  0  0  0  0  0  0
    0.8457   -4.9077   27.1699 C   0  0  0  0  0  0  0  0  0  0  0  0
    3.2505   -5.1993   27.1055 C   0  0  0  0  0  0  0  0  0  0  0  0
  1 22  4  0
  1 26  4  0
  2 27  4  0
  2 28  4  0
  3  9  4  0
  3 20  4  0
  4 22  4  0
  4 25  4  0
  4 28  1  0
  5  8  4  0
  5 17  4  0
  6 12  2  0
  6 20  4  0
  6 23  4  0
  7 18  2  0
  8 27  4  0
  9 19  1  0
  9 23  4  0
 10 11  1  0
 11 14  1  0
 11 27  1  0
 13 20  1  0
 15 18  1  0
 16 25  4  0
 16 26  4  0
 17 28  4  0
 18 21  1  0
 21 26  1  0
 23 24  1  0
M  END
$$$$

 Created by Python create_sdf_string function

 28 33  0  0  0  0  0  0  0  0999 V2000
    5.7462   -7.9789   26.5523 C   0  0  0  0  0  0  0  0  0  0  0  0
    2.0141   -5.6426   27.3280 C   0  0  0  0  0  0  0  0  0  0  0  0
   -0.6986  -11.2454   14.5587 N   0  0  0  0  0  0  0  0  0  0  0  0
    4.5802   -5.9105   27.2101 C   0  0  0  0  0  0  0  0  0  0  0  0
    2.3662   -2.9137   26.7680 S   0  0  0  0  0  0  0  0  0  0  0  0
    1.5967  -11.5882   13.9833 C   0  0  0  0  0  0  0  0  0  0  0  0
    9.3064   -7.8502   29.1587 N   0  0  0  0  0  0  0  0  0  0  0  0
    0.8817   -3.3882   27.0168 C   0  0  0  0  0  0  0  0  0  0  0  0
    0.0586  -10.3685   14.9659 N   0  0  0  0  0  0  0  0  0  0  0  0
   -1.3718   -4.9253   26.8347 O   0  0  0  0  0  0  0  0  0  0  0  0
   -0.3707   -5.4291   27.5460 C   0  0  0  0  0  0  0  0  0  0  0  0
    2.4907  -12.3041   13.7477 O   0  0  0  0  0  0  0  0  0  0  0  0
   -0.1328  -13.2152   13.2507 C   0  0  0  0  0  0  0  0  0  0  0  0
   -0.4030   -6.4417   28.3619 N   0  0  0  0  0  0  0  0  0  0  0  0
   10.4070   -8.6843   27.1145 C   0  0  0  0  0  0  0  0  0  0  0  0
    6.8244   -6.3219   27.8002 C   0  0  0  0  0  0  0  0  0  0  0  0
    3.4335   -3.7254   26.9431 C   0  0  0  0  0  0  0  0  0  0  0  0
   -0.5953   -9.1907   15.9324 C   0  0  0  0  0  0  0  0  0  0  0  0
    0.3848  -12.2159   13.9377 N   0  0  0  0  0  0  0  0  0  0  0  0
    8.2085   -7.8692   27.1193 N   0  0  0  0  0  0  0  0  0  0  0  0
    4.5845   -7.2767   26.6759 C   0  0  0  0  0  0  0  0  0  0  0  0
    1.4451  -10.3453   14.7386 C   0  0  0  0  0  0  0  0  0  0  0  0
    2.4809   -9.3942   14.9469 C   0  0  0  0  0  0  0  0  0  0  0  0
    5.4834   -5.5186   27.8568 O   0  0  0  0  0  0  0  0  0  0  0  0
    6.9940   -7.3141   27.3797 C   0  0  0  0  0  0  0  0  0  0  0  0
    0.9394   -4.9116   27.0573 C   0  0  0  0  0  0  0  0  0  0  0  0
    3.3965   -5.1855   27.0833 C   0  0  0  0  0  0  0  0  0  0  0  0
    9.1404   -8.0826   27.9444 He  0  0  0  0  0  0  0  0  0  0  0  0
  1 10  1  0
  1 21  4  0
  1 25  4  0
  2  6  2  0
  2  7  3  0
  2 26  4  0
  2 27  4  0
  3  9  4  0
  3 19  4  0
  4 21  4  0
  4 24  4  0
  4 27  1  0
  5  8  3  0
  5  9  4  0
  6 12  2  0
  6 13  4  0
  6 19  4  0
  6 22  4  0
  8 26  4  0
  9 14  4  0
  9 15  2  0
  9 18  1  0
  9 22  4  0
 10 11  1  0
 11 14  1  0
 11 26  1  0
 12 15  1  0
 13 19  1  0
 13 27  2  0
 16 24  4  0
 16 25  4  0
 17 27  4  0
 22 23  1  0
M  END
$$$$

 Created by Python create_sdf_string function

 28 29  0  0  0  0  0  0  0  0999 V2000
    5.7878   -7.9201   26.6150 C   0  0  0  0  0  0  0  0  0  0  0  0
    2.0592   -5.6855   27.2769 C   0  0  0  0  0  0  0  0  0  0  0  0
   -0.6319  -11.2834   14.5466 N   0  0  0  0  0  0  0  0  0  0  0  0
    4.4854   -5.9425   27.1978 C   0  0  0  0  0  0  0  0  0  0  0  0
    2.2945   -2.9114   26.7961 C   0  0  0  0  0  0  0  0  0  0  0  0
    1.5875  -11.6430   14.0596 C   0  0  0  0  0  0  0  0  0  0  0  0
    9.2504   -7.7958   29.1144 O   0  0  0  0  0  0  0  0  0  0  0  0
    1.0296   -3.4753   26.9296 C   0  0  0  0  0  0  0  0  0  0  0  0
    0.0406  -10.2570   15.0550 N   0  0  0  0  0  0  0  0  0  0  0  0
   -1.3852   -4.9397   26.8893 O   0  0  0  0  0  0  0  0  0  0  0  0
   -0.3531   -5.4432   27.5027 C   0  0  0  0  0  0  0  0  0  0  0  0
    2.5389  -12.1684   13.7204 O   0  0  0  0  0  0  0  0  0  0  0  0
   -0.1963  -13.2484   13.2707 C   0  0  0  0  0  0  0  0  0  0  0  0
   -0.4140   -6.4522   28.3302 N   0  0  0  0  0  0  0  0  0  0  0  0
   10.4666   -8.6275   27.1663 C   0  0  0  0  0  0  0  0  0  0  0  0
    6.7509   -6.2029   27.8706 C   0  0  0  0  0  0  0  0  0  0  0  0
    3.4418   -3.7707   26.9093 C   0  0  0  0  0  0  0  0  0  0  0  0
    9.1629   -8.0566   27.9100 C   0  0  0  0  0  0  0  0  0  0  0  0
   -0.5555   -9.2442   15.8463 C   0  0  0  0  0  0  0  0  0  0  0  0
    0.2446  -12.0924   13.9454 N   0  0  0  0  0  0  0  0  0  0  0  0
    8.0933   -7.9692   27.1270 N   0  0  0  0  0  0  0  0  0  0  0  0
    4.5628   -7.2086   26.6346 C   0  0  0  0  0  0  0  0  0  0  0  0
    1.4275  -10.3526   14.7315 C   0  0  0  0  0  0  0  0  0  0  0  0
    2.4036   -9.3843   14.9898 C   0  0  0  0  0  0  0  0  0  0  0  0
    5.5929   -5.4604   27.8275 C   0  0  0  0  0  0  0  0  0  0  0  0
    6.9041   -7.3621   27.2381 C   0  0  0  0  0  0  0  0  0  0  0  0
    0.9429   -4.8455   27.2339 C   0  0  0  0  0  0  0  0  0  0  0  0
    3.3319   -5.1617   27.1224 C   0  0  0  0  0  0  0  0  0  0  0  0
  1 22  4  0
  1 26  4  0
  2 27  4  0
  2 28  4  0
  3  9  4  0
  3 20  4  0
  4 22  4  0
  4 25  4  0
  4 28  1  0
  5  8  4  0
  5 17  4  0
  6 12  2  0
  6 20  4  0
  6 23  4  0
  7 18  2  0
  8 27  4  0
  9 19  1  0
  9 23  4  0
 10 11  1  0
 11 14  1  0
 11 27  1  0
 13 20  1  0
 15 18  1  0
 16 25  4  0
 16 26  4  0
 17 28  4  0
 18 21  1  0
 21 26  1  0
 23 24  1  0
M  END
$$$$

 Created by Python create_sdf_string function

 28 37  0  0  0  0  0  0  0  0999 V2000
    2.1628   -5.7337   27.1891 C   0  0  0  0  0  0  0  0  0  0  0  0
   -0.6046  -11.2797   14.6829 N   0  0  0  0  0  0  0  0  0  0  0  0
    4.5291   -6.0604   27.0042 C   0  0  0  0  0  0  0  0  0  0  0  0
    2.2932   -2.9457   26.7871 C   0  0  0  0  0  0  0  0  0  0  0  0
    1.5772  -11.6171   14.0236 C   0  0  0  0  0  0  0  0  0  0  0  0
    9.2721   -7.7564   29.0097 O   0  0  0  0  0  0  0  0  0  0  0  0
    1.1009   -3.4443   27.0362 C   0  0  0  0  0  0  0  0  0  0  0  0
    0.0047  -10.1676   15.1753 N   0  0  0  0  0  0  0  0  0  0  0  0
   -1.3003   -5.0124   26.7606 O   0  0  0  0  0  0  0  0  0  0  0  0
   -0.5876   -5.5342   27.5329 C   0  0  0  0  0  0  0  0  0  0  0  0
    2.5762  -12.2343   13.8363 O   0  0  0  0  0  0  0  0  0  0  0  0
   -0.0836  -13.3150   13.3303 C   0  0  0  0  0  0  0  0  0  0  0  0
   -0.5262   -6.5926   28.2689 N   0  0  0  0  0  0  0  0  0  0  0  0
   10.4673   -8.6185   27.0761 C   0  0  0  0  0  0  0  0  0  0  0  0
    6.8588   -6.2597   27.8341 C   0  0  0  0  0  0  0  0  0  0  0  0
    3.4561   -3.7837   26.9591 C   0  0  0  0  0  0  0  0  0  0  0  0
    9.0346   -7.9877   27.8644 C   0  0  0  0  0  0  0  0  0  0  0  0
   -0.6329   -9.1670   15.8248 N   0  0  0  0  0  0  0  0  0  0  0  0
    0.3412  -12.0398   13.9318 N   0  0  0  0  0  0  0  0  0  0  0  0
    8.0964   -7.9399   27.2810 N   0  0  0  0  0  0  0  0  0  0  0  0
    4.6169   -7.2844   26.5761 C   0  0  0  0  0  0  0  0  0  0  0  0
    1.4219  -10.2937   14.7378 C   0  0  0  0  0  0  0  0  0  0  0  0
    2.4523   -9.4264   15.0869 C   0  0  0  0  0  0  0  0  0  0  0  0
    5.5920   -5.6063   27.7798 C   0  0  0  0  0  0  0  0  0  0  0  0
    6.9209   -7.2736   27.3038 C   0  0  0  0  0  0  0  0  0  0  0  0
    0.8403   -4.8856   27.3086 C   0  0  0  0  0  0  0  0  0  0  0  0
    3.1914   -5.1892   27.2440 C   0  0  0  0  0  0  0  0  0  0  0  0
    5.7105   -7.9817   26.5417 He  0  0  0  0  0  0  0  0  0  0  0  0
  1 26  4  0
  1 27  4  0
  2  8  4  0
  3 21  4  0
  3 24  4  0
  3 27  1  0
  4  7  4  0
  4 11  4  0
  4 16  4  0
  4 26  3  0
  5 11  2  0
  5 19  4  0
  5 22  4  0
  6 17  2  0
  6 27  4  0
  7 18  3  0
  7 26  4  0
  8 18  1  0
  8 22  4  0
  8 26  3  0
  9 10  1  0
 10 13  1  0
 10 26  1  0
 11 23  2  0
 12 19  1  0
 13 14  2  0
 14 17  1  0
 15 24  2  0
 15 25  4  0
 16 27  4  0
 17 20  1  0
 17 21  1  0
 17 26  2  0
 18 19  3  0
 18 21  3  0
 20 25  1  0
 22 23  1  0
M  END
$$$$

 Created by Python create_sdf_string function

 28 29  0  0  0  0  0  0  0  0999 V2000
    5.7709   -7.9450   26.5641 C   0  0  0  0  0  0  0  0  0  0  0  0
    2.0380   -5.7306   27.3039 C   0  0  0  0  0  0  0  0  0  0  0  0
   -0.6079  -11.2673   14.6224 N   0  0  0  0  0  0  0  0  0  0  0  0
    4.4819   -5.9654   27.1552 C   0  0  0  0  0  0  0  0  0  0  0  0
    2.2908   -2.9485   26.8604 C   0  0  0  0  0  0  0  0  0  0  0  0
    1.5967  -11.5971   14.1139 C   0  0  0  0  0  0  0  0  0  0  0  0
    9.2633   -7.6950   29.0332 O   0  0  0  0  0  0  0  0  0  0  0  0
    1.0238   -3.5170   26.9935 C   0  0  0  0  0  0  0  0  0  0  0  0
    0.0309  -10.2235   15.0988 C   0  0  0  0  0  0  0  0  0  0  0  0
   -1.3896   -4.9817   26.8091 O   0  0  0  0  0  0  0  0  0  0  0  0
   -0.4051   -5.4983   27.4789 C   0  0  0  0  0  0  0  0  0  0  0  0
    2.5688  -12.1411   13.7848 O   0  0  0  0  0  0  0  0  0  0  0  0
   -0.1471  -13.2493   13.3635 C   0  0  0  0  0  0  0  0  0  0  0  0
   -0.5073   -6.5652   28.2754 N   0  0  0  0  0  0  0  0  0  0  0  0
   10.4396   -8.5719   27.0995 C   0  0  0  0  0  0  0  0  0  0  0  0
    6.7980   -6.2198   27.8552 C   0  0  0  0  0  0  0  0  0  0  0  0
    3.4494   -3.7836   26.9296 C   0  0  0  0  0  0  0  0  0  0  0  0
    9.1504   -8.0331   27.8551 C   0  0  0  0  0  0  0  0  0  0  0  0
   -0.6083   -9.2262   15.7989 N   0  0  0  0  0  0  0  0  0  0  0  0
    0.2670  -12.0649   14.0109 N   0  0  0  0  0  0  0  0  0  0  0  0
    8.0239   -8.0411   27.1110 N   0  0  0  0  0  0  0  0  0  0  0  0
    4.5652   -7.2189   26.5661 C   0  0  0  0  0  0  0  0  0  0  0  0
    1.4195  -10.3204   14.7818 C   0  0  0  0  0  0  0  0  0  0  0  0
    2.3904   -9.3962   15.0906 C   0  0  0  0  0  0  0  0  0  0  0  0
    5.6091   -5.4955   27.7795 C   0  0  0  0  0  0  0  0  0  0  0  0
    6.8609   -7.3914   27.2128 C   0  0  0  0  0  0  0  0  0  0  0  0
    0.9072   -4.8956   27.2580 C   0  0  0  0  0  0  0  0  0  0  0  0
    3.2979   -5.1812   27.1136 C   0  0  0  0  0  0  0  0  0  0  0  0
  1 22  4  0
  1 26  4  0
  2 27  4  0
  2 28  4  0
  3  9  4  0
  3 20  4  0
  4 22  4  0
  4 25  4  0
  4 28  1  0
  5  8  4  0
  5 17  4  0
  6 12  2  0
  6 20  4  0
  6 23  4  0
  7 18  2  0
  8 27  4  0
  9 19  1  0
  9 23  4  0
 10 11  1  0
 11 14  1  0
 11 27  1  0
 13 20  1  0
 15 18  1  0
 16 25  4  0
 16 26  4  0
 17 28  4  0
 18 21  1  0
 21 26  1  0
 23 24  1  0
M  END
$$$$

 Created by Python create_sdf_string function

 28 32  0  0  0  0  0  0  0  0999 V2000
    5.7004   -7.8601   26.4852 C   0  0  0  0  0  0  0  0  0  0  0  0
    2.1053   -5.7976   27.3609 C   0  0  0  0  0  0  0  0  0  0  0  0
   -0.6366  -11.2830   14.6038 N   0  0  0  0  0  0  0  0  0  0  0  0
    4.4897   -5.9217   27.1930 C   0  0  0  0  0  0  0  0  0  0  0  0
    2.3637   -2.9032   26.8363 C   0  0  0  0  0  0  0  0  0  0  0  0
    1.4792  -11.5012   14.2058 C   0  0  0  0  0  0  0  0  0  0  0  0
    9.3964   -7.6484   29.0839 O   0  0  0  0  0  0  0  0  0  0  0  0
    1.0077   -3.5859   26.9980 C   0  0  0  0  0  0  0  0  0  0  0  0
    0.1086  -10.3109   15.0425 C   0  0  0  0  0  0  0  0  0  0  0  0
   -1.3983   -4.9475   26.8026 O   0  0  0  0  0  0  0  0  0  0  0  0
   -0.3104   -5.5568   27.6659 C   0  0  0  0  0  0  0  0  0  0  0  0
    2.5917  -11.9972   13.8162 O   0  0  0  0  0  0  0  0  0  0  0  0
   -0.0730  -13.3307   13.2264 C   0  0  0  0  0  0  0  0  0  0  0  0
   -0.5244   -6.5757   28.3048 N   0  0  0  0  0  0  0  0  0  0  0  0
   10.6003   -8.4303   27.0698 C   0  0  0  0  0  0  0  0  0  0  0  0
    6.7642   -6.2274   27.8735 C   0  0  0  0  0  0  0  0  0  0  0  0
    3.4672   -3.9159   27.0455 C   0  0  0  0  0  0  0  0  0  0  0  0
    9.0791   -8.0636   27.8415 C   0  0  0  0  0  0  0  0  0  0  0  0
   -0.6037   -9.2855   15.7388 N   0  0  0  0  0  0  0  0  0  0  0  0
    0.3376  -12.0770   14.0114 N   0  0  0  0  0  0  0  0  0  0  0  0
    8.0633   -8.0313   27.1086 N   0  0  0  0  0  0  0  0  0  0  0  0
    4.5402   -7.3082   26.6419 C   0  0  0  0  0  0  0  0  0  0  0  0
    1.5448  -10.2259   14.7651 C   0  0  0  0  0  0  0  0  0  0  0  0
    2.3705   -9.4067   15.2233 C   0  0  0  0  0  0  0  0  0  0  0  0
    5.6440   -5.4583   27.8295 C   0  0  0  0  0  0  0  0  0  0  0  0
    6.8312   -7.3452   27.3588 C   0  0  0  0  0  0  0  0  0  0  0  0
    0.9616   -4.8282   27.1427 C   0  0  0  0  0  0  0  0  0  0  0  0
    3.1991   -5.0814   27.1067 F   0  0  0  0  0  0  0  0  0  0  0  0
  1 22  4  0
  1 26  4  0
  2  7  1  0
  2 27  4  0
  2 28  4  0
  3  9  4  0
  3 20  4  0
  4 22  4  0
  4 25  4  0
  4 28  1  0
  5  8  4  0
  5 17  4  0
  6 12  2  0
  6 20  4  0
  6 23  4  0
  7 18  2  0
  8 27  4  0
  9 19  1  0
  9 23  4  0
 10 11  1  0
 11 14  1  0
 11 27  1  0
 13 20  1  0
 15 18  1  0
 16 25  4  0
 16 26  4  0
 17 28  4  0
 18 21  1  0
 19 24  3  0
 20 25  3  0
 21 26  1  0
 23 24  1  0
M  END
$$$$

 Created by Python create_sdf_string function

 28 29  0  0  0  0  0  0  0  0999 V2000
    5.7588   -7.9108   26.5818 C   0  0  0  0  0  0  0  0  0  0  0  0
    2.0601   -5.7315   27.3143 C   0  0  0  0  0  0  0  0  0  0  0  0
   -0.6255  -11.2885   14.5855 N   0  0  0  0  0  0  0  0  0  0  0  0
    4.4899   -5.9462   27.2056 C   0  0  0  0  0  0  0  0  0  0  0  0
    2.2987   -2.9440   26.8473 C   0  0  0  0  0  0  0  0  0  0  0  0
    1.6041  -11.5623   14.1176 C   0  0  0  0  0  0  0  0  0  0  0  0
    9.3009   -7.6329   29.0328 O   0  0  0  0  0  0  0  0  0  0  0  0
    1.0445   -3.5380   26.9648 C   0  0  0  0  0  0  0  0  0  0  0  0
    0.0225  -10.2441   15.0720 C   0  0  0  0  0  0  0  0  0  0  0  0
   -1.3493   -4.9699   26.8819 O   0  0  0  0  0  0  0  0  0  0  0  0
   -0.3504   -5.4944   27.5333 C   0  0  0  0  0  0  0  0  0  0  0  0
    2.5845  -12.0198   13.7901 O   0  0  0  0  0  0  0  0  0  0  0  0
   -0.0634  -13.2417   13.3074 C   0  0  0  0  0  0  0  0  0  0  0  0
   -0.4487   -6.5727   28.3111 N   0  0  0  0  0  0  0  0  0  0  0  0
   10.4870   -8.4605   27.0701 C   0  0  0  0  0  0  0  0  0  0  0  0
    6.7750   -6.2066   27.8866 C   0  0  0  0  0  0  0  0  0  0  0  0
    3.4492   -3.7787   26.9774 C   0  0  0  0  0  0  0  0  0  0  0  0
    9.1826   -7.9928   27.8601 C   0  0  0  0  0  0  0  0  0  0  0  0
   -0.5999   -9.2555   15.7417 N   0  0  0  0  0  0  0  0  0  0  0  0
    0.3051  -12.0681   13.9939 N   0  0  0  0  0  0  0  0  0  0  0  0
    8.0442   -8.0465   27.1448 N   0  0  0  0  0  0  0  0  0  0  0  0
    4.5454   -7.2112   26.5946 C   0  0  0  0  0  0  0  0  0  0  0  0
    1.4102  -10.3078   14.8176 C   0  0  0  0  0  0  0  0  0  0  0  0
    2.3513   -9.3730   15.2100 C   0  0  0  0  0  0  0  0  0  0  0  0
    5.6253   -5.4578   27.8438 C   0  0  0  0  0  0  0  0  0  0  0  0
    6.8518   -7.3755   27.2302 C   0  0  0  0  0  0  0  0  0  0  0  0
    0.9413   -4.8987   27.2752 C   0  0  0  0  0  0  0  0  0  0  0  0
    3.3279   -5.1658   27.1636 C   0  0  0  0  0  0  0  0  0  0  0  0
  1 22  4  0
  1 26  4  0
  2 27  4  0
  2 28  4  0
  3  9  4  0
  3 20  4  0
  4 22  4  0
  4 25  4  0
  4 28  1  0
  5  8  4  0
  5 17  4  0
  6 12  2  0
  6 20  4  0
  6 23  4  0
  7 18  2  0
  8 27  4  0
  9 19  1  0
  9 23  4  0
 10 11  1  0
 11 14  1  0
 11 27  1  0
 13 20  1  0
 15 18  1  0
 16 25  4  0
 16 26  4  0
 17 28  4  0
 18 21  1  0
 21 26  1  0
 23 24  1  0
M  END
$$$$

 Created by Python create_sdf_string function

 28 36  0  0  0  0  0  0  0  0999 V2000
    5.7937   -7.8137   26.5244 C   0  0  0  0  0  0  0  0  0  0  0  0
    2.0481   -5.7337   27.3469 C   0  0  0  0  0  0  0  0  0  0  0  0
   -0.6254  -11.2934   14.6231 N   0  0  0  0  0  0  0  0  0  0  0  0
    4.5194   -5.9106   27.2125 F   0  0  0  0  0  0  0  0  0  0  0  0
    2.3070   -2.9793   26.7238 C   0  0  0  0  0  0  0  0  0  0  0  0
    1.6162  -11.4579   14.1581 C   0  0  0  0  0  0  0  0  0  0  0  0
    9.1616   -7.5950   29.0403 O   0  0  0  0  0  0  0  0  0  0  0  0
    1.0833   -3.4994   26.9942 C   0  0  0  0  0  0  0  0  0  0  0  0
    0.0967  -10.0975   15.0655 C   0  0  0  0  0  0  0  0  0  0  0  0
   -1.3183   -5.0572   26.8105 O   0  0  0  0  0  0  0  0  0  0  0  0
   -0.4229   -5.4865   27.5833 C   0  0  0  0  0  0  0  0  0  0  0  0
    2.6515  -11.9801   13.8109 O   0  0  0  0  0  0  0  0  0  0  0  0
   -0.0444  -13.2258   13.3318 C   0  0  0  0  0  0  0  0  0  0  0  0
   -0.5387   -6.5727   28.2469 N   0  0  0  0  0  0  0  0  0  0  0  0
   10.4909   -8.4528   27.1525 C   0  0  0  0  0  0  0  0  0  0  0  0
    6.6434   -6.1560   27.9264 C   0  0  0  0  0  0  0  0  0  0  0  0
    3.5069   -3.7320   27.0492 C   0  0  0  0  0  0  0  0  0  0  0  0
    9.2073   -8.0261   27.8842 C   0  0  0  0  0  0  0  0  0  0  0  0
   -0.6025   -9.1761   15.6795 N   0  0  0  0  0  0  0  0  0  0  0  0
    0.2562  -12.1620   13.8710 N   0  0  0  0  0  0  0  0  0  0  0  0
    8.0254   -7.9982   27.1694 N   0  0  0  0  0  0  0  0  0  0  0  0
    4.5893   -7.2856   26.6034 C   0  0  0  0  0  0  0  0  0  0  0  0
    1.3888  -10.3166   14.7436 C   0  0  0  0  0  0  0  0  0  0  0  0
    2.2296   -9.4529   15.4042 C   0  0  0  0  0  0  0  0  0  0  0  0
    5.6356   -5.4730   27.8688 C   0  0  0  0  0  0  0  0  0  0  0  0
    6.7745   -7.2736   27.2612 C   0  0  0  0  0  0  0  0  0  0  0  0
    0.9635   -4.9373   27.1497 C   0  0  0  0  0  0  0  0  0  0  0  0
    3.4031   -5.2336   27.2210 C   0  0  0  0  0  0  0  0  0  0  0  0
  1 22  4  0
  2 13  4  0
  2 27  4  0
  2 28  4  0
  3  4  4  0
  3  9  4  0
  3 20  4  0
  4 22  4  0
  4 25  4  0
  4 28  1  0
  5  8  4  0
  5 17  2  0
  5 22  3  0
  6 12  2  0
  6 20  4  0
  6 23  4  0
  6 25  1  0
  7 12  4  0
  7 18  2  0
  8 11  4  0
  8 12  3  0
  8 15  2  0
  8 18  3  0
  9 19  1  0
  9 23  4  0
 10 11  1  0
 11 14  1  0
 11 27  1  0
 13 20  1  0
 15 18  1  0
 16 25  4  0
 16 26  4  0
 17 28  4  0
 18 21  1  0
 21 26  1  0
 23 24  1  0
M  END
$$$$

 Created by Python create_sdf_string function

 28 29  0  0  0  0  0  0  0  0999 V2000
    5.7794   -7.8660   26.5530 C   0  0  0  0  0  0  0  0  0  0  0  0
    2.0557   -5.7386   27.3342 C   0  0  0  0  0  0  0  0  0  0  0  0
   -0.6296  -11.2501   14.5683 N   0  0  0  0  0  0  0  0  0  0  0  0
    4.4987   -5.9344   27.2251 C   0  0  0  0  0  0  0  0  0  0  0  0
    2.2896   -2.9690   26.8072 C   0  0  0  0  0  0  0  0  0  0  0  0
    1.6027  -11.5283   14.1160 C   0  0  0  0  0  0  0  0  0  0  0  0
    9.1949   -7.5839   29.0563 O   0  0  0  0  0  0  0  0  0  0  0  0
    1.0399   -3.5446   26.9289 C   0  0  0  0  0  0  0  0  0  0  0  0
    0.0003  -10.1916   15.0512 C   0  0  0  0  0  0  0  0  0  0  0  0
   -1.3482   -5.0116   26.8343 O   0  0  0  0  0  0  0  0  0  0  0  0
   -0.3730   -5.5027   27.4918 C   0  0  0  0  0  0  0  0  0  0  0  0
    2.6062  -11.9961   13.7814 O   0  0  0  0  0  0  0  0  0  0  0  0
   -0.0732  -13.2047   13.3471 C   0  0  0  0  0  0  0  0  0  0  0  0
   -0.4737   -6.5647   28.2659 N   0  0  0  0  0  0  0  0  0  0  0  0
   10.4574   -8.4814   27.1534 C   0  0  0  0  0  0  0  0  0  0  0  0
    6.7694   -6.1914   27.9242 C   0  0  0  0  0  0  0  0  0  0  0  0
    3.4454   -3.7699   26.9759 C   0  0  0  0  0  0  0  0  0  0  0  0
    9.1526   -7.9697   27.8976 C   0  0  0  0  0  0  0  0  0  0  0  0
   -0.6200   -9.1694   15.6785 N   0  0  0  0  0  0  0  0  0  0  0  0
    0.2958  -12.0404   13.9799 N   0  0  0  0  0  0  0  0  0  0  0  0
    8.0318   -7.9958   27.1319 N   0  0  0  0  0  0  0  0  0  0  0  0
    4.5736   -7.1755   26.5880 C   0  0  0  0  0  0  0  0  0  0  0  0
    1.3869  -10.2918   14.8332 C   0  0  0  0  0  0  0  0  0  0  0  0
    2.2794   -9.4028   15.3583 C   0  0  0  0  0  0  0  0  0  0  0  0
    5.6092   -5.4457   27.9018 C   0  0  0  0  0  0  0  0  0  0  0  0
    6.8553   -7.3359   27.2371 C   0  0  0  0  0  0  0  0  0  0  0  0
    0.9322   -4.9095   27.2579 C   0  0  0  0  0  0  0  0  0  0  0  0
    3.3308   -5.1714   27.1744 C   0  0  0  0  0  0  0  0  0  0  0  0
  1 22  4  0
  1 26  4  0
  2 27  4  0
  2 28  4  0
  3  9  4  0
  3 20  4  0
  4 22  4  0
  4 25  4  0
  4 28  1  0
  5  8  4  0
  5 17  4  0
  6 12  2  0
  6 20  4  0
  6 23  4  0
  7 18  2  0
  8 27  4  0
  9 19  1  0
  9 23  4  0
 10 11  1  0
 11 14  1  0
 11 27  1  0
 13 20  1  0
 15 18  1  0
 16 25  4  0
 16 26  4  0
 17 28  4  0
 18 21  1  0
 21 26  1  0
 23 24  1  0
M  END
$$$$

 Created by Python create_sdf_string function

 28 38  0  0  0  0  0  0  0  0999 V2000
    5.7171   -7.8271   26.5667 C   0  0  0  0  0  0  0  0  0  0  0  0
    2.0773   -5.6645   27.2656 C   0  0  0  0  0  0  0  0  0  0  0  0
   -0.5766  -11.3435   14.5588 N   0  0  0  0  0  0  0  0  0  0  0  0
    4.5036   -5.8683   27.1735 C   0  0  0  0  0  0  0  0  0  0  0  0
    2.2968   -3.0549   26.7722 C   0  0  0  0  0  0  0  0  0  0  0  0
    1.5819  -11.4376   14.1256 C   0  0  0  0  0  0  0  0  0  0  0  0
    9.1324   -7.6167   28.9947 O   0  0  0  0  0  0  0  0  0  0  0  0
    1.0665   -3.4556   26.8952 C   0  0  0  0  0  0  0  0  0  0  0  0
   -0.0146  -10.1657   15.1525 Cl  0  0  0  0  0  0  0  0  0  0  0  0
   -1.3296   -5.1008   26.9322 O   0  0  0  0  0  0  0  0  0  0  0  0
   -0.3941   -5.4581   27.4497 C   0  0  0  0  0  0  0  0  0  0  0  0
    2.6124  -12.0350   13.7770 O   0  0  0  0  0  0  0  0  0  0  0  0
   -0.0218  -13.2411   13.4455 C   0  0  0  0  0  0  0  0  0  0  0  0
   -0.4587   -6.5440   28.2801 N   0  0  0  0  0  0  0  0  0  0  0  0
   10.3831   -8.5230   27.1405 C   0  0  0  0  0  0  0  0  0  0  0  0
    6.7122   -6.3027   27.8440 C   0  0  0  0  0  0  0  0  0  0  0  0
    3.4841   -3.8655   26.9678 C   0  0  0  0  0  0  0  0  0  0  0  0
    9.2458   -7.8902   27.8711 C   0  0  0  0  0  0  0  0  0  0  0  0
   -0.6598   -9.1111   15.6561 N   0  0  0  0  0  0  0  0  0  0  0  0
    0.3271  -12.0401   14.0159 N   0  0  0  0  0  0  0  0  0  0  0  0
    7.9932   -8.0562   27.1544 N   0  0  0  0  0  0  0  0  0  0  0  0
    4.5294   -7.1590   26.6596 C   0  0  0  0  0  0  0  0  0  0  0  0
    1.4000  -10.2867   14.8274 C   0  0  0  0  0  0  0  0  0  0  0  0
    2.3556   -9.4406   15.2763 C   0  0  0  0  0  0  0  0  0  0  0  0
    5.6502   -5.5124   28.0084 C   0  0  0  0  0  0  0  0  0  0  0  0
    6.8521   -7.3243   27.2734 C   0  0  0  0  0  0  0  0  0  0  0  0
    0.9247   -4.9902   27.2653 C   0  0  0  0  0  0  0  0  0  0  0  0
    3.3824   -5.1702   27.1481 C   0  0  0  0  0  0  0  0  0  0  0  0
  1 22  4  0
  1 26  4  0
  2 27  4  0
  2 28  4  0
  3  9  4  0
  3 20  4  0
  4 16  3  0
  4 22  4  0
  4 25  4  0
  4 28  1  0
  5  6  3  0
  5  8  4  0
  5 17  4  0
  5 19  4  0
  5 26  3  0
  6 12  2  0
  6 20  4  0
  6 23  3  0
  7 18  2  0
  8 13  4  0
  8 27  4  0
  9 19  1  0
  9 23  4  0
 10 11  3  0
 11 14  1  0
 11 27  1  0
 12 27  3  0
 13 14  1  0
 13 20  1  0
 13 22  4  0
 15 18  1  0
 16 25  4  0
 16 26  4  0
 18 21  1  0
 19 24  3  0
 21 26  1  0
 23 24  1  0
 27 28  1  0
M  END
$$$$

 Created by Python create_sdf_string function

 28 29  0  0  0  0  0  0  0  0999 V2000
    5.7395   -7.8707   26.5684 C   0  0  0  0  0  0  0  0  0  0  0  0
    2.0752   -5.7143   27.3072 C   0  0  0  0  0  0  0  0  0  0  0  0
   -0.6206  -11.2636   14.5934 N   0  0  0  0  0  0  0  0  0  0  0  0
    4.4867   -5.9240   27.2345 C   0  0  0  0  0  0  0  0  0  0  0  0
    2.2983   -2.9653   26.7768 C   0  0  0  0  0  0  0  0  0  0  0  0
    1.5898  -11.5034   14.1550 C   0  0  0  0  0  0  0  0  0  0  0  0
    9.1890   -7.5711   29.0215 O   0  0  0  0  0  0  0  0  0  0  0  0
    1.0449   -3.5299   26.9106 C   0  0  0  0  0  0  0  0  0  0  0  0
   -0.0163  -10.1958   15.0801 C   0  0  0  0  0  0  0  0  0  0  0  0
   -1.3598   -5.0367   26.9063 O   0  0  0  0  0  0  0  0  0  0  0  0
   -0.3485   -5.4986   27.4565 C   0  0  0  0  0  0  0  0  0  0  0  0
    2.5988  -11.9807   13.7716 O   0  0  0  0  0  0  0  0  0  0  0  0
   -0.0590  -13.2315   13.4393 C   0  0  0  0  0  0  0  0  0  0  0  0
   -0.4294   -6.5373   28.2670 N   0  0  0  0  0  0  0  0  0  0  0  0
   10.4170   -8.5220   27.1332 C   0  0  0  0  0  0  0  0  0  0  0  0
    6.7523   -6.2295   27.9334 C   0  0  0  0  0  0  0  0  0  0  0  0
    3.4564   -3.7638   26.9329 C   0  0  0  0  0  0  0  0  0  0  0  0
    9.1421   -7.9604   27.8704 C   0  0  0  0  0  0  0  0  0  0  0  0
   -0.6652   -9.1586   15.6807 N   0  0  0  0  0  0  0  0  0  0  0  0
    0.2981  -12.0325   14.0365 N   0  0  0  0  0  0  0  0  0  0  0  0
    8.0015   -8.0367   27.1099 N   0  0  0  0  0  0  0  0  0  0  0  0
    4.5422   -7.1625   26.5999 C   0  0  0  0  0  0  0  0  0  0  0  0
    1.3705  -10.2820   14.8597 C   0  0  0  0  0  0  0  0  0  0  0  0
    2.3235   -9.3912   15.2803 C   0  0  0  0  0  0  0  0  0  0  0  0
    5.6145   -5.4757   27.9224 C   0  0  0  0  0  0  0  0  0  0  0  0
    6.8344   -7.3628   27.2416 C   0  0  0  0  0  0  0  0  0  0  0  0
    0.9611   -4.8982   27.2159 C   0  0  0  0  0  0  0  0  0  0  0  0
    3.3407   -5.1497   27.1606 C   0  0  0  0  0  0  0  0  0  0  0  0
  1 22  4  0
  1 26  4  0
  2 27  4  0
  2 28  4  0
  3  9  4  0
  3 20  4  0
  4 22  4  0
  4 25  4  0
  4 28  1  0
  5  8  4  0
  5 17  4  0
  6 12  2  0
  6 20  4  0
  6 23  4  0
  7 18  2  0
  8 27  4  0
  9 19  1  0
  9 23  4  0
 10 11  2  0
 11 14  1  0
 11 27  1  0
 13 20  1  0
 15 18  1  0
 16 25  4  0
 16 26  4  0
 17 28  4  0
 18 21  1  0
 21 26  1  0
 23 24  1  0
M  END
$$$$

 Created by Python create_sdf_string function

 28 32  0  0  0  0  0  0  0  0999 V2000
    5.8462   -7.8996   26.5519 C   0  0  0  0  0  0  0  0  0  0  0  0
   -0.5988  -11.2419   14.5748 N   0  0  0  0  0  0  0  0  0  0  0  0
    4.5618   -5.9434   27.2118 C   0  0  0  0  0  0  0  0  0  0  0  0
    2.2211   -3.0063   26.8257 C   0  0  0  0  0  0  0  0  0  0  0  0
    1.4899  -11.4774   14.1397 C   0  0  0  0  0  0  0  0  0  0  0  0
    9.1686   -7.5846   28.9526 O   0  0  0  0  0  0  0  0  0  0  0  0
    1.0116   -3.5929   26.9665 C   0  0  0  0  0  0  0  0  0  0  0  0
    0.0081  -10.1878   15.0507 C   0  0  0  0  0  0  0  0  0  0  0  0
   -1.4532   -5.0695   26.8066 O   0  0  0  0  0  0  0  0  0  0  0  0
   -0.2943   -5.5135   27.5177 C   0  0  0  0  0  0  0  0  0  0  0  0
   -0.1338  -13.2486   13.5286 C   0  0  0  0  0  0  0  0  0  0  0  0
   -0.5322   -6.5047   28.2416 N   0  0  0  0  0  0  0  0  0  0  0  0
   10.5364   -8.5616   27.1481 C   0  0  0  0  0  0  0  0  0  0  0  0
    6.7506   -6.2148   27.9554 O   0  0  0  0  0  0  0  0  0  0  0  0
    3.4570   -3.8231   26.9210 C   0  0  0  0  0  0  0  0  0  0  0  0
    9.1442   -8.0325   27.8883 C   0  0  0  0  0  0  0  0  0  0  0  0
   -0.6402   -9.1793   15.7378 N   0  0  0  0  0  0  0  0  0  0  0  0
    0.3933  -11.9804   14.0082 N   0  0  0  0  0  0  0  0  0  0  0  0
    8.0168   -8.0191   27.1057 N   0  0  0  0  0  0  0  0  0  0  0  0
    4.5580   -7.2037   26.5349 C   0  0  0  0  0  0  0  0  0  0  0  0
    1.4117  -10.2128   14.8180 C   0  0  0  0  0  0  0  0  0  0  0  0
    2.3101   -9.4504   15.3107 C   0  0  0  0  0  0  0  0  0  0  0  0
    5.4861   -5.5525   27.9707 C   0  0  0  0  0  0  0  0  0  0  0  0
    6.8295   -7.4292   27.2977 C   0  0  0  0  0  0  0  0  0  0  0  0
    1.0537   -4.8426   27.1659 C   0  0  0  0  0  0  0  0  0  0  0  0
    3.4164   -5.2166   27.0970 C   0  0  0  0  0  0  0  0  0  0  0  0
    2.1226   -5.8698   27.1843 He  0  0  0  0  0  0  0  0  0  0  0  0
    2.5859  -12.0038   13.7411 He  0  0  0  0  0  0  0  0  0  0  0  0
  1 20  4  0
  1 24  4  0
  2  7  4  0
  2  8  4  0
  2 11  1  0
  2 18  4  0
  3 20  4  0
  3 23  4  0
  3 26  1  0
  4  7  4  0
  4 15  4  0
  5 18  4  0
  5 21  4  0
  6 16  2  0
  7 25  4  0
  8 17  1  0
  8 21  4  0
  9 10  2  0
 10 12  1  0
 10 25  1  0
 11 16  4  0
 11 18  1  0
 11 26  3  0
 13 16  1  0
 14 23  4  0
 14 24  4  0
 14 26  1  0
 15 26  4  0
 16 19  1  0
 18 22  1  0
 19 24  1  0
 21 22  1  0
M  END
$$$$

 Created by Python create_sdf_string function

 28 29  0  0  0  0  0  0  0  0999 V2000
    5.7919   -7.9088   26.5339 C   0  0  0  0  0  0  0  0  0  0  0  0
    2.0889   -5.7619   27.2265 C   0  0  0  0  0  0  0  0  0  0  0  0
   -0.6484  -11.2199   14.5799 N   0  0  0  0  0  0  0  0  0  0  0  0
    4.4909   -5.9623   27.1901 C   0  0  0  0  0  0  0  0  0  0  0  0
    2.2975   -2.9838   26.8178 C   0  0  0  0  0  0  0  0  0  0  0  0
    1.5728  -11.4931   14.1347 C   0  0  0  0  0  0  0  0  0  0  0  0
    9.1974   -7.5646   28.9917 O   0  0  0  0  0  0  0  0  0  0  0  0
    1.0373   -3.5597   26.9458 C   0  0  0  0  0  0  0  0  0  0  0  0
   -0.0204  -10.1722   15.0712 C   0  0  0  0  0  0  0  0  0  0  0  0
   -1.3673   -5.0370   26.8422 O   0  0  0  0  0  0  0  0  0  0  0  0
   -0.3438   -5.5165   27.4215 C   0  0  0  0  0  0  0  0  0  0  0  0
    2.5992  -11.9709   13.7404 O   0  0  0  0  0  0  0  0  0  0  0  0
   -0.1195  -13.2219   13.5030 C   0  0  0  0  0  0  0  0  0  0  0  0
   -0.4239   -6.5270   28.2712 N   0  0  0  0  0  0  0  0  0  0  0  0
   10.4675   -8.5462   27.1742 C   0  0  0  0  0  0  0  0  0  0  0  0
    6.7351   -6.2707   27.9758 C   0  0  0  0  0  0  0  0  0  0  0  0
    3.4478   -3.7893   26.9243 C   0  0  0  0  0  0  0  0  0  0  0  0
    9.1405   -7.9903   27.8606 C   0  0  0  0  0  0  0  0  0  0  0  0
   -0.6678   -9.1721   15.7233 N   0  0  0  0  0  0  0  0  0  0  0  0
    0.2884  -12.0022   14.0421 N   0  0  0  0  0  0  0  0  0  0  0  0
    8.0349   -8.0303   27.1250 N   0  0  0  0  0  0  0  0  0  0  0  0
    4.5865   -7.1914   26.5329 C   0  0  0  0  0  0  0  0  0  0  0  0
    1.3648  -10.2675   14.8433 C   0  0  0  0  0  0  0  0  0  0  0  0
    2.3109   -9.3820   15.2926 C   0  0  0  0  0  0  0  0  0  0  0  0
    5.5787   -5.5416   27.9275 C   0  0  0  0  0  0  0  0  0  0  0  0
    6.8478   -7.3855   27.2508 C   0  0  0  0  0  0  0  0  0  0  0  0
    0.9791   -4.9301   27.1870 C   0  0  0  0  0  0  0  0  0  0  0  0
    3.3563   -5.1870   27.1034 C   0  0  0  0  0  0  0  0  0  0  0  0
  1 22  4  0
  1 26  4  0
  2 27  4  0
  2 28  4  0
  3  9  4  0
  3 20  4  0
  4 22  4  0
  4 25  4  0
  4 28  1  0
  5  8  4  0
  5 17  4  0
  6 12  2  0
  6 20  4  0
  6 23  4  0
  7 18  2  0
  8 27  4  0
  9 19  1  0
  9 23  4  0
 10 11  2  0
 11 14  1  0
 11 27  1  0
 13 20  1  0
 15 18  1  0
 16 25  4  0
 16 26  4  0
 17 28  4  0
 18 21  1  0
 21 26  1  0
 23 24  1  0
M  END
$$$$

 Created by Python create_sdf_string function

 28 34  0  0  0  0  0  0  0  0999 V2000
    5.7899   -7.9401   26.6681 C   0  0  0  0  0  0  0  0  0  0  0  0
    2.0624   -5.7082   27.1530 C   0  0  0  0  0  0  0  0  0  0  0  0
   -0.6692  -11.1710   14.5260 N   0  0  0  0  0  0  0  0  0  0  0  0
    4.5577   -5.8496   27.1510 C   0  0  0  0  0  0  0  0  0  0  0  0
    2.2654   -2.9976   26.8499 C   0  0  0  0  0  0  0  0  0  0  0  0
    1.6012  -11.5469   14.1601 C   0  0  0  0  0  0  0  0  0  0  0  0
    9.1098   -7.5852   29.0179 O   0  0  0  0  0  0  0  0  0  0  0  0
    0.9979   -3.5787   26.8456 C   0  0  0  0  0  0  0  0  0  0  0  0
   -0.0101  -10.1743   15.0526 C   0  0  0  0  0  0  0  0  0  0  0  0
   -1.3488   -5.0411   26.8023 O   0  0  0  0  0  0  0  0  0  0  0  0
   -0.3603   -5.4985   27.3623 C   0  0  0  0  0  0  0  0  0  0  0  0
    2.5740  -11.9828   13.7405 O   0  0  0  0  0  0  0  0  0  0  0  0
   -0.1036  -13.1273   13.5504 C   0  0  0  0  0  0  0  0  0  0  0  0
   -0.5300   -6.5694   28.2880 N   0  0  0  0  0  0  0  0  0  0  0  0
   10.4854   -8.4781   27.1852 C   0  0  0  0  0  0  0  0  0  0  0  0
    6.8014   -6.2266   28.0274 C   0  0  0  0  0  0  0  0  0  0  0  0
    3.5160   -3.7411   26.8561 C   0  0  0  0  0  0  0  0  0  0  0  0
    9.0264   -7.9991   27.8385 C   0  0  0  0  0  0  0  0  0  0  0  0
   -0.6325   -9.1276   15.7540 N   0  0  0  0  0  0  0  0  0  0  0  0
    0.3395  -11.9878   14.0398 N   0  0  0  0  0  0  0  0  0  0  0  0
    8.0459   -8.0529   27.1659 N   0  0  0  0  0  0  0  0  0  0  0  0
    4.5638   -7.1664   26.5875 C   0  0  0  0  0  0  0  0  0  0  0  0
    1.3659  -10.3297   14.7478 C   0  0  0  0  0  0  0  0  0  0  0  0
    2.3413   -9.3675   15.2068 C   0  0  0  0  0  0  0  0  0  0  0  0
    5.5921   -5.5257   27.9059 C   0  0  0  0  0  0  0  0  0  0  0  0
    6.8336   -7.3890   27.2711 C   0  0  0  0  0  0  0  0  0  0  0  0
    1.0341   -4.9382   27.2440 C   0  0  0  0  0  0  0  0  0  0  0  0
    3.3278   -5.1381   27.0991 C   0  0  0  0  0  0  0  0  0  0  0  0
  1 16  3  0
  1 22  4  0
  1 26  4  0
  2 19  3  0
  2 27  4  0
  2 28  4  0
  3  9  4  0
  3 20  4  0
  4 22  4  0
  4 25  4  0
  4 28  1  0
  5  8  4  0
  5 17  4  0
  5 18  3  0
  6 12  2  0
  6 20  4  0
  6 23  4  0
  6 24  4  0
  7 18  2  0
  8 27  4  0
  9 19  1  0
  9 23  4  0
  9 27  1  0
 10 11  2  0
 11 27  1  0
 13 20  1  0
 13 26  4  0
 15 18  1  0
 16 25  4  0
 16 26  4  0
 17 28  4  0
 18 21  1  0
 21 26  1  0
 23 24  1  0
M  END
$$$$

 Created by Python create_sdf_string function

 28 29  0  0  0  0  0  0  0  0999 V2000
    5.7445   -7.9052   26.6206 C   0  0  0  0  0  0  0  0  0  0  0  0
    2.1011   -5.7089   27.2101 C   0  0  0  0  0  0  0  0  0  0  0  0
   -0.6571  -11.1819   14.5506 N   0  0  0  0  0  0  0  0  0  0  0  0
    4.5023   -5.9071   27.1809 C   0  0  0  0  0  0  0  0  0  0  0  0
    2.2923   -2.9452   26.7990 C   0  0  0  0  0  0  0  0  0  0  0  0
    1.5494  -11.5112   14.1365 C   0  0  0  0  0  0  0  0  0  0  0  0
    9.1256   -7.5685   29.0093 O   0  0  0  0  0  0  0  0  0  0  0  0
    1.0444   -3.5396   26.8910 C   0  0  0  0  0  0  0  0  0  0  0  0
   -0.0156  -10.1575   15.0488 C   0  0  0  0  0  0  0  0  0  0  0  0
   -1.3230   -5.0274   26.8104 O   0  0  0  0  0  0  0  0  0  0  0  0
   -0.3387   -5.5092   27.3982 C   0  0  0  0  0  0  0  0  0  0  0  0
    2.5577  -11.9936   13.7615 O   0  0  0  0  0  0  0  0  0  0  0  0
   -0.1285  -13.1722   13.5170 C   0  0  0  0  0  0  0  0  0  0  0  0
   -0.4949   -6.5545   28.2533 N   0  0  0  0  0  0  0  0  0  0  0  0
   10.4428   -8.4971   27.1873 C   0  0  0  0  0  0  0  0  0  0  0  0
    6.7627   -6.2312   27.9831 C   0  0  0  0  0  0  0  0  0  0  0  0
    3.4606   -3.7312   26.8930 C   0  0  0  0  0  0  0  0  0  0  0  0
    9.1052   -7.9896   27.8583 C   0  0  0  0  0  0  0  0  0  0  0  0
   -0.6323   -9.1275   15.7338 N   0  0  0  0  0  0  0  0  0  0  0  0
    0.2704  -11.9952   14.0411 N   0  0  0  0  0  0  0  0  0  0  0  0
    8.0058   -8.0575   27.1214 N   0  0  0  0  0  0  0  0  0  0  0  0
    4.5769   -7.1713   26.5825 C   0  0  0  0  0  0  0  0  0  0  0  0
    1.3592  -10.2750   14.8102 C   0  0  0  0  0  0  0  0  0  0  0  0
    2.3226   -9.3646   15.2003 C   0  0  0  0  0  0  0  0  0  0  0  0
    5.6197   -5.4696   27.8951 C   0  0  0  0  0  0  0  0  0  0  0  0
    6.8393   -7.3936   27.2789 C   0  0  0  0  0  0  0  0  0  0  0  0
    0.9694   -4.9157   27.1622 C   0  0  0  0  0  0  0  0  0  0  0  0
    3.3568   -5.1280   27.0836 C   0  0  0  0  0  0  0  0  0  0  0  0
  1 22  4  0
  1 26  4  0
  2 27  4  0
  2 28  4  0
  3  9  4  0
  3 20  4  0
  4 22  4  0
  4 25  4  0
  4 28  1  0
  5  8  4  0
  5 17  4  0
  6 12  2  0
  6 20  4  0
  6 23  4  0
  7 18  2  0
  8 27  4  0
  9 19  1  0
  9 23  4  0
 10 11  2  0
 11 14  1  0
 11 27  1  0
 13 20  1  0
 15 18  1  0
 16 25  4  0
 16 26  4  0
 17 28  4  0
 18 21  1  0
 21 26  1  0
 23 24  1  0
M  END
$$$$

 Created by Python create_sdf_string function

 28 29  0  0  0  0  0  0  0  0999 V2000
    5.7186   -7.9024   26.5527 C   0  0  0  0  0  0  0  0  0  0  0  0
    2.0981   -5.6792   27.2467 C   0  0  0  0  0  0  0  0  0  0  0  0
   -0.8022  -11.1979   14.5089 N   0  0  0  0  0  0  0  0  0  0  0  0
    2.2961   -3.0473   26.7584 C   0  0  0  0  0  0  0  0  0  0  0  0
    1.5753  -11.6110   14.1641 C   0  0  0  0  0  0  0  0  0  0  0  0
    9.1144   -7.6309   29.0378 O   0  0  0  0  0  0  0  0  0  0  0  0
    1.0836   -3.5064   26.8734 S   0  0  0  0  0  0  0  0  0  0  0  0
   -0.0079  -10.1987   15.1165 C   0  0  0  0  0  0  0  0  0  0  0  0
   -1.3147   -5.0420   26.8527 O   0  0  0  0  0  0  0  0  0  0  0  0
   -0.4226   -5.4343   27.3686 C   0  0  0  0  0  0  0  0  0  0  0  0
    2.5386  -11.9940   13.7630 O   0  0  0  0  0  0  0  0  0  0  0  0
   -0.1105  -13.1377   13.5739 C   0  0  0  0  0  0  0  0  0  0  0  0
   -0.4220   -6.5696   28.1606 N   0  0  0  0  0  0  0  0  0  0  0  0
   10.5023   -8.5239   27.1706 C   0  0  0  0  0  0  0  0  0  0  0  0
    6.8119   -6.1813   28.0360 C   0  0  0  0  0  0  0  0  0  0  0  0
    3.3744   -3.6984   26.8377 C   0  0  0  0  0  0  0  0  0  0  0  0
    9.1175   -8.1031   27.8952 C   0  0  0  0  0  0  0  0  0  0  0  0
   -0.6454   -9.1137   15.7936 N   0  0  0  0  0  0  0  0  0  0  0  0
    0.2491  -11.9774   14.1097 N   0  0  0  0  0  0  0  0  0  0  0  0
    8.0940   -8.0498   27.1307 N   0  0  0  0  0  0  0  0  0  0  0  0
    4.5943   -7.2011   26.6329 C   0  0  0  0  0  0  0  0  0  0  0  0
    1.3243  -10.2661   14.8530 C   0  0  0  0  0  0  0  0  0  0  0  0
    2.3255   -9.3661   15.2570 C   0  0  0  0  0  0  0  0  0  0  0  0
    5.6423   -5.4689   27.8520 C   0  0  0  0  0  0  0  0  0  0  0  0
    6.7367   -7.4969   27.2980 C   0  0  0  0  0  0  0  0  0  0  0  0
    1.0006   -4.8917   27.1922 C   0  0  0  0  0  0  0  0  0  0  0  0
    3.3400   -5.1032   27.0652 C   0  0  0  0  0  0  0  0  0  0  0  0
    4.4992   -5.9490   27.1974 He  0  0  0  0  0  0  0  0  0  0  0  0
  1 21  4  0
  1 25  4  0
  2 26  4  0
  2 27  4  0
  3  8  4  0
  3 19  4  0
  4  7  4  0
  4 16  4  0
  5  8  2  0
  5 11  2  0
  5 19  4  0
  5 22  4  0
  6 17  2  0
  7 12  4  0
  7 26  4  0
  8 18  1  0
  8 22  4  0
  9 10  2  0
 10 26  1  0
 12 19  1  0
 14 17  1  0
 15 24  4  0
 15 25  4  0
 16 18  4  0
 16 24  2  0
 16 27  4  0
 17 20  1  0
 20 25  1  0
 22 23  1  0
M  END
$$$$

 Created by Python create_sdf_string function

 28 29  0  0  0  0  0  0  0  0999 V2000
    5.7236   -7.9050   26.5941 C   0  0  0  0  0  0  0  0  0  0  0  0
    2.1017   -5.6798   27.2536 C   0  0  0  0  0  0  0  0  0  0  0  0
   -0.7304  -11.1814   14.5773 N   0  0  0  0  0  0  0  0  0  0  0  0
    4.5005   -5.9079   27.1799 C   0  0  0  0  0  0  0  0  0  0  0  0
    2.3203   -2.9458   26.7303 C   0  0  0  0  0  0  0  0  0  0  0  0
    1.5146  -11.5126   14.1818 C   0  0  0  0  0  0  0  0  0  0  0  0
    9.1393   -7.6286   29.0369 O   0  0  0  0  0  0  0  0  0  0  0  0
    1.0316   -3.5108   26.8773 C   0  0  0  0  0  0  0  0  0  0  0  0
   -0.0655  -10.1606   15.0986 C   0  0  0  0  0  0  0  0  0  0  0  0
   -1.3404   -5.0000   26.8501 O   0  0  0  0  0  0  0  0  0  0  0  0
   -0.3380   -5.4853   27.3791 C   0  0  0  0  0  0  0  0  0  0  0  0
    2.5115  -11.9946   13.7947 O   0  0  0  0  0  0  0  0  0  0  0  0
   -0.1795  -13.1934   13.5370 C   0  0  0  0  0  0  0  0  0  0  0  0
   -0.4162   -6.5623   28.1519 N   0  0  0  0  0  0  0  0  0  0  0  0
   10.4526   -8.5402   27.1845 C   0  0  0  0  0  0  0  0  0  0  0  0
    6.7628   -6.2232   27.9687 C   0  0  0  0  0  0  0  0  0  0  0  0
    3.4557   -3.7555   26.8576 C   0  0  0  0  0  0  0  0  0  0  0  0
    9.1169   -8.0367   27.8902 C   0  0  0  0  0  0  0  0  0  0  0  0
   -0.6639   -9.1195   15.7811 N   0  0  0  0  0  0  0  0  0  0  0  0
    0.2060  -11.9919   14.0798 N   0  0  0  0  0  0  0  0  0  0  0  0
    8.0033   -8.0805   27.1346 N   0  0  0  0  0  0  0  0  0  0  0  0
    4.5533   -7.1670   26.5942 C   0  0  0  0  0  0  0  0  0  0  0  0
    1.3287  -10.2694   14.8780 C   0  0  0  0  0  0  0  0  0  0  0  0
    2.2991   -9.3507   15.2655 C   0  0  0  0  0  0  0  0  0  0  0  0
    5.6179   -5.4547   27.8700 C   0  0  0  0  0  0  0  0  0  0  0  0
    6.8249   -7.4071   27.2638 C   0  0  0  0  0  0  0  0  0  0  0  0
    0.9705   -4.8707   27.1645 C   0  0  0  0  0  0  0  0  0  0  0  0
    3.3586   -5.1246   27.0935 C   0  0  0  0  0  0  0  0  0  0  0  0
  1 22  4  0
  1 26  4  0
  2 27  4  0
  2 28  4  0
  3  9  4  0
  3 20  4  0
  4 22  4  0
  4 25  4  0
  4 28  1  0
  5  8  4  0
  5 17  4  0
  6 12  2  0
  6 20  4  0
  6 23  4  0
  7 18  2  0
  8 27  4  0
  9 19  1  0
  9 23  4  0
 10 11  2  0
 11 14  1  0
 11 27  1  0
 13 20  1  0
 15 18  1  0
 16 25  4  0
 16 26  4  0
 17 28  4  0
 18 21  1  0
 21 26  1  0
 23 24  1  0
M  END
$$$$

 Created by Python create_sdf_string function

 28 34  0  0  0  0  0  0  0  0999 V2000
    5.7090   -7.9171   26.5855 C   0  0  0  0  0  0  0  0  0  0  0  0
    2.0297   -5.5276   27.2626 C   0  0  0  0  0  0  0  0  0  0  0  0
   -0.7383  -11.2691   14.6249 N   0  0  0  0  0  0  0  0  0  0  0  0
    4.4698   -5.9199   27.1416 C   0  0  0  0  0  0  0  0  0  0  0  0
    2.2882   -2.9342   26.6749 C   0  0  0  0  0  0  0  0  0  0  0  0
    1.4416  -11.5456   14.1792 C   0  0  0  0  0  0  0  0  0  0  0  0
    9.1653   -7.6252   29.1111 O   0  0  0  0  0  0  0  0  0  0  0  0
    1.0034   -3.5519   26.8750 C   0  0  0  0  0  0  0  0  0  0  0  0
   -0.0602  -10.1416   15.1419 C   0  0  0  0  0  0  0  0  0  0  0  0
   -1.3499   -4.9834   26.8504 O   0  0  0  0  0  0  0  0  0  0  0  0
   -0.3125   -5.5195   27.3615 C   0  0  0  0  0  0  0  0  0  0  0  0
    2.5417  -11.9982   13.7708 O   0  0  0  0  0  0  0  0  0  0  0  0
   -0.2039  -13.2468   13.4824 C   0  0  0  0  0  0  0  0  0  0  0  0
   -0.5088   -6.5568   28.1268 N   0  0  0  0  0  0  0  0  0  0  0  0
   10.4120   -8.5762   27.2235 Br  0  0  0  0  0  0  0  0  0  0  0  0
    6.7583   -6.2005   27.9831 C   0  0  0  0  0  0  0  0  0  0  0  0
    3.4593   -3.7761   26.8289 C   0  0  0  0  0  0  0  0  0  0  0  0
    9.0714   -8.0241   27.8842 C   0  0  0  0  0  0  0  0  0  0  0  0
   -0.6703   -9.1048   15.8149 N   0  0  0  0  0  0  0  0  0  0  0  0
    0.3022  -12.0372   14.1332 N   0  0  0  0  0  0  0  0  0  0  0  0
    8.0908   -8.0845   27.0967 N   0  0  0  0  0  0  0  0  0  0  0  0
    4.6542   -7.1171   26.6187 C   0  0  0  0  0  0  0  0  0  0  0  0
    1.2839  -10.2861   14.8664 C   0  0  0  0  0  0  0  0  0  0  0  0
    2.2832   -9.3732   15.2482 C   0  0  0  0  0  0  0  0  0  0  0  0
    5.6232   -5.4942   27.8834 C   0  0  0  0  0  0  0  0  0  0  0  0
    6.8456   -7.4276   27.2189 C   0  0  0  0  0  0  0  0  0  0  0  0
    0.9656   -4.8867   27.1363 C   0  0  0  0  0  0  0  0  0  0  0  0
    3.3532   -5.0739   27.0322 C   0  0  0  0  0  0  0  0  0  0  0  0
  1 13  2  0
  1 22  4  0
  1 26  4  0
  2  7  3  0
  2 27  4  0
  2 28  4  0
  3  6  3  0
  3  9  4  0
  3 20  4  0
  4 22  4  0
  4 25  4  0
  4 28  1  0
  5  8  4  0
  5 17  4  0
  6 12  2  0
  6 20  4  0
  6 23  4  0
  6 24  1  0
  7 18  2  0
  8 26  1  0
  8 27  4  0
  9 19  1  0
  9 23  4  0
 10 11  2  0
 11 14  1  0
 11 27  1  0
 13 20  1  0
 15 18  1  0
 16 25  4  0
 16 26  4  0
 17 28  4  0
 18 21  1  0
 21 26  4  0
 23 24  1  0
M  END
$$$$

 Created by Python create_sdf_string function

 28 29  0  0  0  0  0  0  0  0999 V2000
    5.7176   -7.8946   26.5653 C   0  0  0  0  0  0  0  0  0  0  0  0
    2.0862   -5.6450   27.2509 C   0  0  0  0  0  0  0  0  0  0  0  0
   -0.7328  -11.2404   14.6497 N   0  0  0  0  0  0  0  0  0  0  0  0
    4.4872   -5.8791   27.1691 C   0  0  0  0  0  0  0  0  0  0  0  0
    2.2889   -2.9203   26.6797 C   0  0  0  0  0  0  0  0  0  0  0  0
    1.4885  -11.5069   14.1970 C   0  0  0  0  0  0  0  0  0  0  0  0
    9.1560   -7.6076   29.0812 O   0  0  0  0  0  0  0  0  0  0  0  0
    1.0370   -3.4908   26.8400 C   0  0  0  0  0  0  0  0  0  0  0  0
   -0.0926  -10.1574   15.1402 C   0  0  0  0  0  0  0  0  0  0  0  0
   -1.3299   -4.9721   26.8492 O   0  0  0  0  0  0  0  0  0  0  0  0
   -0.3421   -5.4756   27.3626 C   0  0  0  0  0  0  0  0  0  0  0  0
    2.5009  -11.9793   13.7894 O   0  0  0  0  0  0  0  0  0  0  0  0
   -0.1856  -13.2321   13.4991 C   0  0  0  0  0  0  0  0  0  0  0  0
   -0.4595   -6.5780   28.1276 N   0  0  0  0  0  0  0  0  0  0  0  0
   10.4214   -8.5903   27.2310 C   0  0  0  0  0  0  0  0  0  0  0  0
    6.7493   -6.2230   27.9471 C   0  0  0  0  0  0  0  0  0  0  0  0
    3.4413   -3.7174   26.8214 C   0  0  0  0  0  0  0  0  0  0  0  0
    9.1149   -8.0277   27.9076 C   0  0  0  0  0  0  0  0  0  0  0  0
   -0.6853   -9.0960   15.8108 N   0  0  0  0  0  0  0  0  0  0  0  0
    0.2118  -12.0368   14.1057 N   0  0  0  0  0  0  0  0  0  0  0  0
    7.9992   -8.0683   27.1111 N   0  0  0  0  0  0  0  0  0  0  0  0
    4.5628   -7.1390   26.5653 C   0  0  0  0  0  0  0  0  0  0  0  0
    1.2928  -10.2604   14.8872 C   0  0  0  0  0  0  0  0  0  0  0  0
    2.2590   -9.3831   15.2365 C   0  0  0  0  0  0  0  0  0  0  0  0
    5.6108   -5.4529   27.8724 C   0  0  0  0  0  0  0  0  0  0  0  0
    6.8424   -7.4051   27.2368 C   0  0  0  0  0  0  0  0  0  0  0  0
    0.9537   -4.8575   27.1512 C   0  0  0  0  0  0  0  0  0  0  0  0
    3.3436   -5.0931   27.0778 C   0  0  0  0  0  0  0  0  0  0  0  0
  1 22  4  0
  1 26  4  0
  2 27  4  0
  2 28  4  0
  3  9  4  0
  3 20  4  0
  4 22  4  0
  4 25  4  0
  4 28  1  0
  5  8  4  0
  5 17  4  0
  6 12  2  0
  6 20  4  0
  6 23  4  0
  7 18  2  0
  8 27  4  0
  9 19  1  0
  9 23  4  0
 10 11  2  0
 11 14  1  0
 11 27  1  0
 13 20  1  0
 15 18  1  0
 16 25  4  0
 16 26  4  0
 17 28  4  0
 18 21  1  0
 21 26  1  0
 23 24  1  0
M  END
$$$$

 Created by Python create_sdf_string function

 28 31  0  0  0  0  0  0  0  0999 V2000
    5.6691   -7.9111   26.6350 C   0  0  0  0  0  0  0  0  0  0  0  0
    2.0705   -5.6649   27.2585 C   0  0  0  0  0  0  0  0  0  0  0  0
   -0.7224  -11.2423   14.6167 N   0  0  0  0  0  0  0  0  0  0  0  0
    4.5289   -5.8474   27.1832 C   0  0  0  0  0  0  0  0  0  0  0  0
    2.2141   -2.9035   26.7024 C   0  0  0  0  0  0  0  0  0  0  0  0
    1.4573  -11.4865   14.1700 C   0  0  0  0  0  0  0  0  0  0  0  0
    9.1717   -7.5549   29.0942 O   0  0  0  0  0  0  0  0  0  0  0  0
    1.0412   -3.4800   26.7966 C   0  0  0  0  0  0  0  0  0  0  0  0
   -0.1050  -10.1442   15.1452 C   0  0  0  0  0  0  0  0  0  0  0  0
   -1.3779   -4.9593   26.7760 O   0  0  0  0  0  0  0  0  0  0  0  0
   -0.2907   -5.4880   27.3534 C   0  0  0  0  0  0  0  0  0  0  0  0
    2.4922  -12.0354   13.7616 O   0  0  0  0  0  0  0  0  0  0  0  0
   -0.2114  -13.2201   13.4986 C   0  0  0  0  0  0  0  0  0  0  0  0
   -0.4320   -6.5561   28.1307 N   0  0  0  0  0  0  0  0  0  0  0  0
   10.3813   -8.6180   27.2020 C   0  0  0  0  0  0  0  0  0  0  0  0
    6.7840   -6.2399   27.9581 C   0  0  0  0  0  0  0  0  0  0  0  0
    3.3772   -3.7370   26.8130 C   0  0  0  0  0  0  0  0  0  0  0  0
   -0.6564   -9.0916   15.8154 N   0  0  0  0  0  0  0  0  0  0  0  0
    0.2289  -12.0484   14.0946 N   0  0  0  0  0  0  0  0  0  0  0  0
    7.9855   -8.0860   27.1333 N   0  0  0  0  0  0  0  0  0  0  0  0
    4.6272   -7.1010   26.5548 C   0  0  0  0  0  0  0  0  0  0  0  0
    1.3018  -10.2466   14.8409 C   0  0  0  0  0  0  0  0  0  0  0  0
    2.2879   -9.4717   15.1832 C   0  0  0  0  0  0  0  0  0  0  0  0
    5.6292   -5.4013   27.9160 C   0  0  0  0  0  0  0  0  0  0  0  0
    6.8536   -7.3894   27.2241 C   0  0  0  0  0  0  0  0  0  0  0  0
    0.9534   -4.8867   27.1267 C   0  0  0  0  0  0  0  0  0  0  0  0
    3.2806   -5.0961   27.1188 C   0  0  0  0  0  0  0  0  0  0  0  0
    9.0864   -8.0170   27.8928 He  0  0  0  0  0  0  0  0  0  0  0  0
  1 21  4  0
  1 25  4  0
  2 26  4  0
  2 27  4  0
  3  9  4  0
  3 19  4  0
  4 19  2  0
  4 21  4  0
  4 24  4  0
  4 27  1  0
  5  8  4  0
  5 17  4  0
  6 12  2  0
  6 19  4  0
  6 22  4  0
  8 12  4  0
  8 26  4  0
  9 18  1  0
  9 22  4  0
 10 11  2  0
 11 14  1  0
 11 26  1  0
 13 19  1  0
 13 22  1  0
 14 16  3  0
 16 24  4  0
 16 25  4  0
 17 27  4  0
 20 25  1  0
 20 26  3  0
 22 23  1  0
M  END
$$$$

 Created by Python create_sdf_string function

 28 29  0  0  0  0  0  0  0  0999 V2000
    5.6894   -7.8764   26.5963 C   0  0  0  0  0  0  0  0  0  0  0  0
    2.0725   -5.6525   27.2581 C   0  0  0  0  0  0  0  0  0  0  0  0
   -0.7399  -11.2170   14.6423 N   0  0  0  0  0  0  0  0  0  0  0  0
    4.4850   -5.8526   27.1766 C   0  0  0  0  0  0  0  0  0  0  0  0
    2.2538   -2.9030   26.6854 C   0  0  0  0  0  0  0  0  0  0  0  0
    1.4707  -11.4990   14.1750 C   0  0  0  0  0  0  0  0  0  0  0  0
    9.1557   -7.5548   29.0224 O   0  0  0  0  0  0  0  0  0  0  0  0
    1.0077   -3.5029   26.8045 C   0  0  0  0  0  0  0  0  0  0  0  0
   -0.0988  -10.1502   15.1307 C   0  0  0  0  0  0  0  0  0  0  0  0
   -1.3315   -4.9650   26.8028 O   0  0  0  0  0  0  0  0  0  0  0  0
   -0.3308   -5.4720   27.3392 C   0  0  0  0  0  0  0  0  0  0  0  0
    2.4676  -11.9931   13.7783 O   0  0  0  0  0  0  0  0  0  0  0  0
   -0.2047  -13.1973   13.5095 C   0  0  0  0  0  0  0  0  0  0  0  0
   -0.4127   -6.5662   28.1206 N   0  0  0  0  0  0  0  0  0  0  0  0
   10.3660   -8.6153   27.2145 C   0  0  0  0  0  0  0  0  0  0  0  0
    6.7591   -6.2090   27.9415 C   0  0  0  0  0  0  0  0  0  0  0  0
    3.3965   -3.7083   26.8359 C   0  0  0  0  0  0  0  0  0  0  0  0
    9.0869   -8.0134   27.8881 C   0  0  0  0  0  0  0  0  0  0  0  0
   -0.6693   -9.1002   15.8055 N   0  0  0  0  0  0  0  0  0  0  0  0
    0.1841  -12.0129   14.0927 N   0  0  0  0  0  0  0  0  0  0  0  0
    7.9579   -8.0710   27.1383 N   0  0  0  0  0  0  0  0  0  0  0  0
    4.5620   -7.1012   26.5694 C   0  0  0  0  0  0  0  0  0  0  0  0
    1.2850  -10.2627   14.8578 C   0  0  0  0  0  0  0  0  0  0  0  0
    2.2885   -9.4148   15.2025 C   0  0  0  0  0  0  0  0  0  0  0  0
    5.6272   -5.4297   27.8793 C   0  0  0  0  0  0  0  0  0  0  0  0
    6.8121   -7.3802   27.2514 C   0  0  0  0  0  0  0  0  0  0  0  0
    0.9532   -4.8573   27.1294 C   0  0  0  0  0  0  0  0  0  0  0  0
    3.3241   -5.0793   27.0926 C   0  0  0  0  0  0  0  0  0  0  0  0
  1 22  4  0
  1 26  4  0
  2 27  4  0
  2 28  4  0
  3  9  4  0
  3 20  4  0
  4 22  4  0
  4 25  4  0
  4 28  1  0
  5  8  4  0
  5 17  4  0
  6 12  2  0
  6 20  4  0
  6 23  4  0
  7 18  2  0
  8 27  4  0
  9 19  1  0
  9 23  4  0
 10 11  2  0
 11 14  1  0
 11 27  1  0
 13 20  1  0
 15 18  1  0
 16 25  4  0
 16 26  4  0
 17 28  4  0
 18 21  1  0
 21 26  1  0
 23 24  1  0
M  END
$$$$

 Created by Python create_sdf_string function

 28 29  0  0  0  0  0  0  0  0999 V2000
    5.6939   -7.8221   26.6187 C   0  0  0  0  0  0  0  0  0  0  0  0
    2.0863   -5.6560   27.2417 C   0  0  0  0  0  0  0  0  0  0  0  0
   -0.7144  -11.2237   14.6447 N   0  0  0  0  0  0  0  0  0  0  0  0
    4.4833   -5.8356   27.1372 C   0  0  0  0  0  0  0  0  0  0  0  0
    2.2148   -2.9022   26.6754 C   0  0  0  0  0  0  0  0  0  0  0  0
    1.4644  -11.5280   14.2181 C   0  0  0  0  0  0  0  0  0  0  0  0
    9.1648   -7.5819   28.9948 O   0  0  0  0  0  0  0  0  0  0  0  0
    0.9789   -3.4887   26.7926 C   0  0  0  0  0  0  0  0  0  0  0  0
   -0.0852  -10.1626   15.1386 C   0  0  0  0  0  0  0  0  0  0  0  0
   -1.2688   -4.9271   26.8283 O   0  0  0  0  0  0  0  0  0  0  0  0
   -0.3204   -5.4908   27.3264 C   0  0  0  0  0  0  0  0  0  0  0  0
    2.4717  -11.9745   13.7684 O   0  0  0  0  0  0  0  0  0  0  0  0
   -0.2189  -13.1760   13.5468 C   0  0  0  0  0  0  0  0  0  0  0  0
   -0.4105   -6.5531   28.1147 N   0  0  0  0  0  0  0  0  0  0  0  0
   10.3781   -8.6500   27.2511 C   0  0  0  0  0  0  0  0  0  0  0  0
    6.7585   -6.1773   27.9388 C   0  0  0  0  0  0  0  0  0  0  0  0
    3.4273   -3.7261   26.8122 C   0  0  0  0  0  0  0  0  0  0  0  0
    9.0368   -8.0094   27.8493 C   0  0  0  0  0  0  0  0  0  0  0  0
   -0.7352   -9.1337   15.8322 N   0  0  0  0  0  0  0  0  0  0  0  0
    0.2042  -12.0292   14.0233 N   0  0  0  0  0  0  0  0  0  0  0  0
    7.9398   -8.0617   27.1251 N   0  0  0  0  0  0  0  0  0  0  0  0
    4.6234   -7.0729   26.6083 C   0  0  0  0  0  0  0  0  0  0  0  0
    1.2829  -10.2811   14.8289 C   0  0  0  0  0  0  0  0  0  0  0  0
    2.3098   -9.3969   15.1651 C   0  0  0  0  0  0  0  0  0  0  0  0
    5.5998   -5.4181   27.9650 C   0  0  0  0  0  0  0  0  0  0  0  0
    6.8351   -7.3540   27.2535 C   0  0  0  0  0  0  0  0  0  0  0  0
    0.9314   -4.8455   27.1580 C   0  0  0  0  0  0  0  0  0  0  0  0
    3.3261   -5.1302   27.1515 C   0  0  0  0  0  0  0  0  0  0  0  0
  1 22  4  0
  1 26  4  0
  2 27  4  0
  2 28  4  0
  3  9  4  0
  3 20  4  0
  4 22  4  0
  4 25  4  0
  4 28  1  0
  5  8  4  0
  5 17  4  0
  6 12  2  0
  6 20  4  0
  6 23  4  0
  7 18  2  0
  8 27  4  0
  9 19  1  0
  9 21  2  0
  9 23  4  0
 11 14  1  0
 11 27  1  0
 13 20  1  0
 15 18  1  0
 16 25  4  0
 16 26  4  0
 17 28  4  0
 18 21  1  0
 21 26  1  0
 23 24  1  0
M  END
$$$$

 Created by Python create_sdf_string function

 28 29  0  0  0  0  0  0  0  0999 V2000
    5.7142   -7.8322   26.5849 C   0  0  0  0  0  0  0  0  0  0  0  0
    2.0704   -5.6500   27.2638 C   0  0  0  0  0  0  0  0  0  0  0  0
   -0.7436  -11.2185   14.6486 N   0  0  0  0  0  0  0  0  0  0  0  0
    4.4803   -5.8411   27.1973 C   0  0  0  0  0  0  0  0  0  0  0  0
    2.2386   -2.8948   26.6678 C   0  0  0  0  0  0  0  0  0  0  0  0
    1.4605  -11.4993   14.1741 C   0  0  0  0  0  0  0  0  0  0  0  0
    9.1368   -7.5559   28.9780 O   0  0  0  0  0  0  0  0  0  0  0  0
    0.9939   -3.4832   26.7995 C   0  0  0  0  0  0  0  0  0  0  0  0
   -0.1009  -10.1647   15.1354 C   0  0  0  0  0  0  0  0  0  0  0  0
   -1.2798   -4.9313   26.8324 O   0  0  0  0  0  0  0  0  0  0  0  0
   -0.2912   -5.4803   27.3614 C   0  0  0  0  0  0  0  0  0  0  0  0
    2.4562  -11.9745   13.7901 O   0  0  0  0  0  0  0  0  0  0  0  0
   -0.2133  -13.1792   13.5305 C   0  0  0  0  0  0  0  0  0  0  0  0
   -0.3892   -6.5688   28.1033 N   0  0  0  0  0  0  0  0  0  0  0  0
   10.3615   -8.6497   27.2409 C   0  0  0  0  0  0  0  0  0  0  0  0
    6.7508   -6.1736   27.9462 C   0  0  0  0  0  0  0  0  0  0  0  0
    3.3946   -3.6952   26.8350 C   0  0  0  0  0  0  0  0  0  0  0  0
    9.0658   -8.0210   27.8589 C   0  0  0  0  0  0  0  0  0  0  0  0
   -0.7293   -9.1363   15.8208 N   0  0  0  0  0  0  0  0  0  0  0  0
    0.1751  -12.0055   14.0802 N   0  0  0  0  0  0  0  0  0  0  0  0
    7.9493   -8.0491   27.1279 N   0  0  0  0  0  0  0  0  0  0  0  0
    4.5602   -7.0844   26.5819 C   0  0  0  0  0  0  0  0  0  0  0  0
    1.2816  -10.2656   14.8592 C   0  0  0  0  0  0  0  0  0  0  0  0
    2.2834   -9.3828   15.1770 C   0  0  0  0  0  0  0  0  0  0  0  0
    5.6077   -5.4049   27.9127 C   0  0  0  0  0  0  0  0  0  0  0  0
    6.8136   -7.3433   27.2532 C   0  0  0  0  0  0  0  0  0  0  0  0
    0.9481   -4.8552   27.1389 C   0  0  0  0  0  0  0  0  0  0  0  0
    3.3131   -5.0665   27.0970 C   0  0  0  0  0  0  0  0  0  0  0  0
  1 22  4  0
  1 26  4  0
  2 27  4  0
  2 28  4  0
  3  9  4  0
  3 20  4  0
  4 22  4  0
  4 25  4  0
  4 28  1  0
  5  8  4  0
  5 17  4  0
  6 12  2  0
  6 20  4  0
  6 23  4  0
  7 18  2  0
  8 27  4  0
  9 19  1  0
  9 23  4  0
 10 11  2  0
 11 14  1  0
 11 27  1  0
 13 20  1  0
 15 18  1  0
 16 25  4  0
 16 26  4  0
 17 28  4  0
 18 21  1  0
 21 26  1  0
 23 24  1  0
M  END
$$$$

 Created by Python create_sdf_string function

 28 32  0  0  0  0  0  0  0  0999 V2000
    5.7221   -7.8339   26.6125 C   0  0  0  0  0  0  0  0  0  0  0  0
    2.0605   -5.6287   27.2575 C   0  0  0  0  0  0  0  0  0  0  0  0
   -0.7479  -11.2046   14.6645 N   0  0  0  0  0  0  0  0  0  0  0  0
    4.4898   -5.8435   27.1764 C   0  0  0  0  0  0  0  0  0  0  0  0
    2.2097   -2.8644   26.6508 C   0  0  0  0  0  0  0  0  0  0  0  0
    1.4652  -11.5206   14.1732 C   0  0  0  0  0  0  0  0  0  0  0  0
    9.1617   -7.5539   28.9439 O   0  0  0  0  0  0  0  0  0  0  0  0
    0.9865   -3.4616   26.7816 C   0  0  0  0  0  0  0  0  0  0  0  0
   -0.1108  -10.1832   15.1157 C   0  0  0  0  0  0  0  0  0  0  0  0
   -1.2990   -4.9705   26.8794 O   0  0  0  0  0  0  0  0  0  0  0  0
   -0.3160   -5.4672   27.3538 C   0  0  0  0  0  0  0  0  0  0  0  0
    2.4878  -12.0059   13.7715 O   0  0  0  0  0  0  0  0  0  0  0  0
   -0.1807  -13.1252   13.4907 C   0  0  0  0  0  0  0  0  0  0  0  0
   -0.3578   -6.5826   28.1060 N   0  0  0  0  0  0  0  0  0  0  0  0
   10.3172   -8.7085   27.2153 C   0  0  0  0  0  0  0  0  0  0  0  0
    6.7656   -6.1656   27.9523 C   0  0  0  0  0  0  0  0  0  0  0  0
    3.3810   -3.6933   26.8353 C   0  0  0  0  0  0  0  0  0  0  0  0
    9.0639   -8.0254   27.8300 C   0  0  0  0  0  0  0  0  0  0  0  0
   -0.7582   -9.1910   15.8472 N   0  0  0  0  0  0  0  0  0  0  0  0
    0.1676  -11.9850   14.0697 N   0  0  0  0  0  0  0  0  0  0  0  0
    7.9379   -8.0714   27.1271 N   0  0  0  0  0  0  0  0  0  0  0  0
    4.5983   -7.1056   26.5457 C   0  0  0  0  0  0  0  0  0  0  0  0
    1.3276  -10.2717   14.8604 C   0  0  0  0  0  0  0  0  0  0  0  0
    2.3003   -9.3583   15.2010 C   0  0  0  0  0  0  0  0  0  0  0  0
    5.6725   -5.3797   27.9111 C   0  0  0  0  0  0  0  0  0  0  0  0
    6.8404   -7.3304   27.2091 C   0  0  0  0  0  0  0  0  0  0  0  0
    0.9783   -4.8781   27.1033 C   0  0  0  0  0  0  0  0  0  0  0  0
    3.3113   -5.1094   27.0951 C   0  0  0  0  0  0  0  0  0  0  0  0
  1 22  4  0
  1 26  4  0
  2 27  4  0
  2 28  4  0
  3  4  4  0
  3  9  4  0
  3 20  4  0
  4 22  4  0
  4 25  4  0
  4 28  1  0
  5  8  2  0
  5 17  4  0
  6 12  2  0
  6 15  4  0
  6 20  4  0
  6 23  4  0
  7 18  2  0
  8 27  4  0
  9 19  1  0
  9 23  4  0
 10 11  2  0
 11 14  1  0
 11 27  1  0
 13 20  1  0
 15 18  1  0
 15 20  1  0
 16 25  4  0
 16 26  4  0
 17 28  4  0
 18 21  1  0
 21 26  1  0
 23 24  1  0
M  END
$$$$

 Created by Python create_sdf_string function

 28 29  0  0  0  0  0  0  0  0999 V2000
    5.7136   -7.8300   26.5708 C   0  0  0  0  0  0  0  0  0  0  0  0
    2.0841   -5.6462   27.2487 C   0  0  0  0  0  0  0  0  0  0  0  0
   -0.7444  -11.2024   14.6531 N   0  0  0  0  0  0  0  0  0  0  0  0
    4.4977   -5.8265   27.1778 C   0  0  0  0  0  0  0  0  0  0  0  0
    2.2407   -2.8930   26.6571 C   0  0  0  0  0  0  0  0  0  0  0  0
    1.4673  -11.4936   14.1748 C   0  0  0  0  0  0  0  0  0  0  0  0
    9.1359   -7.5186   28.9331 O   0  0  0  0  0  0  0  0  0  0  0  0
    0.9992   -3.4970   26.7874 C   0  0  0  0  0  0  0  0  0  0  0  0
   -0.0872  -10.1717   15.1359 C   0  0  0  0  0  0  0  0  0  0  0  0
   -1.3160   -4.9556   26.8791 O   0  0  0  0  0  0  0  0  0  0  0  0
   -0.3122   -5.4765   27.3550 C   0  0  0  0  0  0  0  0  0  0  0  0
    2.4578  -11.9924   13.7802 O   0  0  0  0  0  0  0  0  0  0  0  0
   -0.1883  -13.1346   13.4847 C   0  0  0  0  0  0  0  0  0  0  0  0
   -0.3654   -6.5911   28.0946 N   0  0  0  0  0  0  0  0  0  0  0  0
   10.3161   -8.6994   27.2188 C   0  0  0  0  0  0  0  0  0  0  0  0
    6.7598   -6.1608   27.9293 C   0  0  0  0  0  0  0  0  0  0  0  0
    3.3958   -3.6830   26.8372 C   0  0  0  0  0  0  0  0  0  0  0  0
    9.0609   -8.0233   27.8360 C   0  0  0  0  0  0  0  0  0  0  0  0
   -0.7350   -9.1775   15.8305 N   0  0  0  0  0  0  0  0  0  0  0  0
    0.1739  -11.9829   14.0795 N   0  0  0  0  0  0  0  0  0  0  0  0
    7.9446   -8.0518   27.1171 N   0  0  0  0  0  0  0  0  0  0  0  0
    4.5674   -7.0863   26.5645 C   0  0  0  0  0  0  0  0  0  0  0  0
    1.3018  -10.2581   14.8734 C   0  0  0  0  0  0  0  0  0  0  0  0
    2.2707   -9.3550   15.2114 C   0  0  0  0  0  0  0  0  0  0  0  0
    5.6303   -5.3815   27.8729 C   0  0  0  0  0  0  0  0  0  0  0  0
    6.8135   -7.3354   27.2324 C   0  0  0  0  0  0  0  0  0  0  0  0
    0.9569   -4.8587   27.1251 C   0  0  0  0  0  0  0  0  0  0  0  0
    3.3261   -5.0661   27.0872 C   0  0  0  0  0  0  0  0  0  0  0  0
  1 22  4  0
  1 26  4  0
  2 27  4  0
  2 28  4  0
  3  9  4  0
  3 20  4  0
  4 22  4  0
  4 25  4  0
  4 28  1  0
  5  8  4  0
  5 17  4  0
  6 12  2  0
  6 20  4  0
  6 23  4  0
  7 18  2  0
  8 27  4  0
  9 19  1  0
  9 23  4  0
 10 11  2  0
 11 14  1  0
 11 27  1  0
 13 20  1  0
 15 18  1  0
 16 25  4  0
 16 26  4  0
 17 28  4  0
 18 21  1  0
 21 26  1  0
 23 24  1  0
M  END
$$$$

 Created by Python create_sdf_string function

 28 30  0  0  0  0  0  0  0  0999 V2000
    5.6881   -7.8308   26.5956 C   0  0  0  0  0  0  0  0  0  0  0  0
    2.0771   -5.6415   27.2489 C   0  0  0  0  0  0  0  0  0  0  0  0
   -0.7451  -11.2381   14.6809 N   0  0  0  0  0  0  0  0  0  0  0  0
    4.4944   -5.8251   27.1676 C   0  0  0  0  0  0  0  0  0  0  0  0
    2.2366   -2.9105   26.6620 C   0  0  0  0  0  0  0  0  0  0  0  0
    1.4542  -11.4744   14.1782 C   0  0  0  0  0  0  0  0  0  0  0  0
    9.1059   -7.5331   28.9275 O   0  0  0  0  0  0  0  0  0  0  0  0
    0.9674   -3.4995   26.7926 C   0  0  0  0  0  0  0  0  0  0  0  0
   -0.0794  -10.1819   15.1414 C   0  0  0  0  0  0  0  0  0  0  0  0
   -1.3185   -4.9371   26.9223 O   0  0  0  0  0  0  0  0  0  0  0  0
   -0.3094   -5.5100   27.3465 C   0  0  0  0  0  0  0  0  0  0  0  0
    2.4525  -12.0261   13.7675 O   0  0  0  0  0  0  0  0  0  0  0  0
   -0.2088  -13.1242   13.5177 C   0  0  0  0  0  0  0  0  0  0  0  0
   -0.3688   -6.5805   28.0619 N   0  0  0  0  0  0  0  0  0  0  0  0
   10.2873   -8.7431   27.2501 C   0  0  0  0  0  0  0  0  0  0  0  0
    6.7520   -6.1641   27.9657 C   0  0  0  0  0  0  0  0  0  0  0  0
    3.3983   -3.6802   26.8458 C   0  0  0  0  0  0  0  0  0  0  0  0
    9.0459   -8.0295   27.8479 C   0  0  0  0  0  0  0  0  0  0  0  0
   -0.7015   -9.1660   15.8146 N   0  0  0  0  0  0  0  0  0  0  0  0
    0.1370  -11.9597   14.0447 N   0  0  0  0  0  0  0  0  0  0  0  0
    7.9450   -8.0713   27.1252 N   0  0  0  0  0  0  0  0  0  0  0  0
    4.5648   -7.1325   26.5624 C   0  0  0  0  0  0  0  0  0  0  0  0
    1.3032  -10.2505   14.8925 C   0  0  0  0  0  0  0  0  0  0  0  0
    5.5801   -5.3928   27.8836 C   0  0  0  0  0  0  0  0  0  0  0  0
    6.8453   -7.3432   27.2319 C   0  0  0  0  0  0  0  0  0  0  0  0
    0.9907   -4.8641   27.1001 C   0  0  0  0  0  0  0  0  0  0  0  0
    3.3305   -5.0074   27.0508 C   0  0  0  0  0  0  0  0  0  0  0  0
    2.2093   -9.3717   15.1718 He  0  0  0  0  0  0  0  0  0  0  0  0
  1 22  4  0
  1 25  4  0
  2 18  1  0
  2 26  4  0
  2 27  4  0
  3  9  4  0
  3 20  4  0
  4 22  4  0
  4 24  4  0
  4 27  1  0
  5  8  4  0
  5 17  4  0
  6 12  2  0
  6 20  4  0
  6 23  4  0
  7 18  2  0
  8 26  4  0
  9 19  1  0
  9 23  4  0
 10 11  2  0
 11 14  1  0
 11 26  1  0
 13 20  1  0
 14 15  3  0
 15 18  1  0
 16 24  4  0
 16 25  4  0
 17 27  4  0
 18 21  1  0
 21 25  1  0
M  END
$$$$

 Created by Python create_sdf_string function

 28 29  0  0  0  0  0  0  0  0999 V2000
    5.6881   -7.8351   26.5693 C   0  0  0  0  0  0  0  0  0  0  0  0
    2.0935   -5.6279   27.2322 C   0  0  0  0  0  0  0  0  0  0  0  0
   -0.7640  -11.2108   14.6772 N   0  0  0  0  0  0  0  0  0  0  0  0
    4.4692   -5.8236   27.1568 C   0  0  0  0  0  0  0  0  0  0  0  0
    2.2420   -2.8834   26.6603 C   0  0  0  0  0  0  0  0  0  0  0  0
    1.4451  -11.4791   14.1739 C   0  0  0  0  0  0  0  0  0  0  0  0
    9.0797   -7.5035   28.9074 O   0  0  0  0  0  0  0  0  0  0  0  0
    0.9946   -3.4863   26.7850 C   0  0  0  0  0  0  0  0  0  0  0  0
   -0.1093  -10.1623   15.1597 C   0  0  0  0  0  0  0  0  0  0  0  0
   -1.3097   -4.9294   26.9227 O   0  0  0  0  0  0  0  0  0  0  0  0
   -0.3110   -5.4731   27.3512 C   0  0  0  0  0  0  0  0  0  0  0  0
    2.4281  -12.0123   13.7664 O   0  0  0  0  0  0  0  0  0  0  0  0
   -0.2076  -13.1302   13.5011 C   0  0  0  0  0  0  0  0  0  0  0  0
   -0.3621   -6.6137   28.0610 N   0  0  0  0  0  0  0  0  0  0  0  0
   10.2974   -8.7358   27.2542 C   0  0  0  0  0  0  0  0  0  0  0  0
    6.7377   -6.1643   27.9408 C   0  0  0  0  0  0  0  0  0  0  0  0
    3.3931   -3.6651   26.8459 C   0  0  0  0  0  0  0  0  0  0  0  0
    9.0408   -8.0351   27.8328 C   0  0  0  0  0  0  0  0  0  0  0  0
   -0.7080   -9.1541   15.8228 N   0  0  0  0  0  0  0  0  0  0  0  0
    0.1512  -11.9684   14.0791 N   0  0  0  0  0  0  0  0  0  0  0  0
    7.9285   -8.0602   27.1124 N   0  0  0  0  0  0  0  0  0  0  0  0
    4.5463   -7.1016   26.5620 C   0  0  0  0  0  0  0  0  0  0  0  0
    1.2829  -10.2449   14.8865 C   0  0  0  0  0  0  0  0  0  0  0  0
    2.2061   -9.3636   15.1858 F   0  0  0  0  0  0  0  0  0  0  0  0
    5.6059   -5.3947   27.8574 C   0  0  0  0  0  0  0  0  0  0  0  0
    6.8008   -7.3460   27.2350 C   0  0  0  0  0  0  0  0  0  0  0  0
    0.9623   -4.8482   27.1159 C   0  0  0  0  0  0  0  0  0  0  0  0
    3.3186   -5.0437   27.0728 C   0  0  0  0  0  0  0  0  0  0  0  0
  1 22  4  0
  1 26  4  0
  2 27  4  0
  2 28  4  0
  3  9  4  0
  3 20  4  0
  4 22  4  0
  4 25  4  0
  4 28  1  0
  5  8  4  0
  5 17  4  0
  6 12  2  0
  6 20  4  0
  6 23  4  0
  7 18  2  0
  8 27  4  0
  9 19  1  0
  9 23  4  0
 10 11  2  0
 11 14  1  0
 11 27  1  0
 13 20  1  0
 15 18  1  0
 16 25  4  0
 16 26  4  0
 17 28  4  0
 18 21  1  0
 21 26  1  0
 23 24  1  0
M  END
$$$$

 Created by Python create_sdf_string function

 28 32  0  0  0  0  0  0  0  0999 V2000
    5.6966   -7.8343   26.5659 C   0  0  0  0  0  0  0  0  0  0  0  0
    2.1096   -5.6152   27.2294 C   0  0  0  0  0  0  0  0  0  0  0  0
   -0.7625  -11.1914   14.6589 N   0  0  0  0  0  0  0  0  0  0  0  0
    4.4879   -5.8289   27.1612 C   0  0  0  0  0  0  0  0  0  0  0  0
    2.2240   -2.8516   26.6659 C   0  0  0  0  0  0  0  0  0  0  0  0
    1.4496  -11.4749   14.1934 C   0  0  0  0  0  0  0  0  0  0  0  0
    9.1004   -7.4800   28.9181 O   0  0  0  0  0  0  0  0  0  0  0  0
    1.0024   -3.5100   26.7549 C   0  0  0  0  0  0  0  0  0  0  0  0
   -0.0951  -10.1837   15.1638 C   0  0  0  0  0  0  0  0  0  0  0  0
   -1.2863   -4.9498   26.8864 O   0  0  0  0  0  0  0  0  0  0  0  0
   -0.2974   -5.4658   27.3113 C   0  0  0  0  0  0  0  0  0  0  0  0
    2.4292  -12.0374   13.7743 O   0  0  0  0  0  0  0  0  0  0  0  0
   -0.2134  -13.1412   13.4867 C   0  0  0  0  0  0  0  0  0  0  0  0
   -0.3653   -6.6008   28.0260 N   0  0  0  0  0  0  0  0  0  0  0  0
   10.2939   -8.7356   27.2625 C   0  0  0  0  0  0  0  0  0  0  0  0
    6.7254   -6.1565   27.9205 C   0  0  0  0  0  0  0  0  0  0  0  0
    3.3616   -3.6731   26.8631 C   0  0  0  0  0  0  0  0  0  0  0  0
    9.0662   -8.0402   27.8277 C   0  0  0  0  0  0  0  0  0  0  0  0
   -0.7218   -9.1501   15.7952 N   0  0  0  0  0  0  0  0  0  0  0  0
    0.1799  -11.9885   14.0552 N   0  0  0  0  0  0  0  0  0  0  0  0
    7.9246   -8.0674   27.1114 N   0  0  0  0  0  0  0  0  0  0  0  0
    4.5436   -7.1186   26.5316 C   0  0  0  0  0  0  0  0  0  0  0  0
    1.2824  -10.2639   14.8597 C   0  0  0  0  0  0  0  0  0  0  0  0
    2.2131   -9.3329   15.2083 F   0  0  0  0  0  0  0  0  0  0  0  0
    5.6028   -5.3599   27.8482 C   0  0  0  0  0  0  0  0  0  0  0  0
    6.8215   -7.3407   27.2405 C   0  0  0  0  0  0  0  0  0  0  0  0
    0.9606   -4.8300   27.1465 C   0  0  0  0  0  0  0  0  0  0  0  0
    3.3193   -5.0320   27.0695 C   0  0  0  0  0  0  0  0  0  0  0  0
  1 22  4  0
  1 26  4  0
  2 27  4  0
  2 28  4  0
  3  9  4  0
  3 20  4  0
  3 23  3  0
  4 22  4  0
  4 25  4  0
  4 28  1  0
  5  8  4  0
  5 17  4  0
  6 12  2  0
  6 20  4  0
  6 23  4  0
  7 18  2  0
  8 27  4  0
  9 19  1  0
  9 23  4  0
  9 24  4  0
 10 11  2  0
 11 14  1  0
 11 23  2  0
 11 27  1  0
 13 20  1  0
 15 18  1  0
 16 25  4  0
 16 26  4  0
 17 28  4  0
 18 21  1  0
 21 26  1  0
 23 24  1  0
M  END
$$$$

 Created by Python create_sdf_string function

 28 29  0  0  0  0  0  0  0  0999 V2000
    5.6738   -7.8262   26.5487 C   0  0  0  0  0  0  0  0  0  0  0  0
    2.0944   -5.6094   27.2256 C   0  0  0  0  0  0  0  0  0  0  0  0
   -0.7665  -11.1962   14.6559 N   0  0  0  0  0  0  0  0  0  0  0  0
    4.4674   -5.8128   27.1459 C   0  0  0  0  0  0  0  0  0  0  0  0
    2.2356   -2.8556   26.6658 C   0  0  0  0  0  0  0  0  0  0  0  0
    1.4462  -11.4827   14.1806 C   0  0  0  0  0  0  0  0  0  0  0  0
    9.0675   -7.4624   28.8805 O   0  0  0  0  0  0  0  0  0  0  0  0
    1.0008   -3.4798   26.7681 C   0  0  0  0  0  0  0  0  0  0  0  0
   -0.1071  -10.1658   15.1459 C   0  0  0  0  0  0  0  0  0  0  0  0
   -1.2910   -4.9347   26.8860 O   0  0  0  0  0  0  0  0  0  0  0  0
   -0.2986   -5.4617   27.3329 C   0  0  0  0  0  0  0  0  0  0  0  0
    2.4173  -12.0138   13.7814 O   0  0  0  0  0  0  0  0  0  0  0  0
   -0.2171  -13.1369   13.4833 C   0  0  0  0  0  0  0  0  0  0  0  0
   -0.3621   -6.6114   28.0215 N   0  0  0  0  0  0  0  0  0  0  0  0
   10.3004   -8.7335   27.2666 C   0  0  0  0  0  0  0  0  0  0  0  0
    6.7176   -6.1497   27.9066 C   0  0  0  0  0  0  0  0  0  0  0  0
    3.3652   -3.6538   26.8598 C   0  0  0  0  0  0  0  0  0  0  0  0
    9.0464   -8.0302   27.8262 C   0  0  0  0  0  0  0  0  0  0  0  0
   -0.7135   -9.1421   15.8047 N   0  0  0  0  0  0  0  0  0  0  0  0
    0.1537  -11.9793   14.0767 N   0  0  0  0  0  0  0  0  0  0  0  0
    7.9180   -8.0627   27.1126 N   0  0  0  0  0  0  0  0  0  0  0  0
    4.5358   -7.0903   26.5462 C   0  0  0  0  0  0  0  0  0  0  0  0
    1.2687  -10.2505   14.8768 C   0  0  0  0  0  0  0  0  0  0  0  0
    2.1802   -9.3568   15.2048 F   0  0  0  0  0  0  0  0  0  0  0  0
    5.6048   -5.3738   27.8265 C   0  0  0  0  0  0  0  0  0  0  0  0
    6.7847   -7.3379   27.2235 C   0  0  0  0  0  0  0  0  0  0  0  0
    0.9677   -4.8328   27.1155 C   0  0  0  0  0  0  0  0  0  0  0  0
    3.3124   -5.0307   27.0746 C   0  0  0  0  0  0  0  0  0  0  0  0
  1 22  4  0
  1 26  4  0
  2 27  4  0
  2 28  4  0
  3  9  4  0
  3 20  4  0
  4 22  4  0
  4 25  4  0
  4 28  1  0
  5  8  4  0
  5 17  4  0
  6 12  2  0
  6 20  4  0
  6 23  4  0
  7 18  2  0
  8 27  4  0
  9 19  1  0
  9 23  4  0
 10 11  2  0
 11 14  1  0
 11 27  1  0
 13 20  1  0
 15 18  1  0
 16 25  4  0
 16 26  4  0
 17 28  4  0
 18 21  1  0
 21 26  1  0
 23 24  1  0
M  END
$$$$

 Created by Python create_sdf_string function

 28 31  0  0  0  0  0  0  0  0999 V2000
    5.6783   -7.8237   26.5412 C   0  0  0  0  0  0  0  0  0  0  0  0
    2.0975   -5.5841   27.2296 C   0  0  0  0  0  0  0  0  0  0  0  0
   -0.7614  -11.2062   14.6522 N   0  0  0  0  0  0  0  0  0  0  0  0
    4.4707   -5.8054   27.1488 C   0  0  0  0  0  0  0  0  0  0  0  0
    2.2296   -2.8500   26.6537 C   0  0  0  0  0  0  0  0  0  0  0  0
    1.4462  -11.4837   14.1864 C   0  0  0  0  0  0  0  0  0  0  0  0
    9.0696   -7.4490   28.8863 O   0  0  0  0  0  0  0  0  0  0  0  0
    0.9942   -3.4755   26.7774 C   0  0  0  0  0  0  0  0  0  0  0  0
   -0.1181  -10.1707   15.1277 C   0  0  0  0  0  0  0  0  0  0  0  0
   -1.3195   -4.9373   26.8791 O   0  0  0  0  0  0  0  0  0  0  0  0
   -0.3144   -5.4728   27.3321 C   0  0  0  0  0  0  0  0  0  0  0  0
    2.4130  -12.0027   13.7705 O   0  0  0  0  0  0  0  0  0  0  0  0
   -0.2091  -13.1304   13.4701 C   0  0  0  0  0  0  0  0  0  0  0  0
   -0.3729   -6.6159   28.0146 N   0  0  0  0  0  0  0  0  0  0  0  0
   10.2936   -8.7406   27.2568 C   0  0  0  0  0  0  0  0  0  0  0  0
    6.7177   -6.1533   27.9141 C   0  0  0  0  0  0  0  0  0  0  0  0
    3.3575   -3.6639   26.8692 C   0  0  0  0  0  0  0  0  0  0  0  0
    9.0555   -8.0111   27.8228 C   0  0  0  0  0  0  0  0  0  0  0  0
   -0.7171   -9.1386   15.7875 N   0  0  0  0  0  0  0  0  0  0  0  0
    0.1674  -11.9828   14.0619 N   0  0  0  0  0  0  0  0  0  0  0  0
    7.9420   -8.0577   27.0939 N   0  0  0  0  0  0  0  0  0  0  0  0
    4.5299   -7.1174   26.5664 C   0  0  0  0  0  0  0  0  0  0  0  0
    1.2927  -10.2651   14.8888 C   0  0  0  0  0  0  0  0  0  0  0  0
    2.1907   -9.3536   15.2028 F   0  0  0  0  0  0  0  0  0  0  0  0
    5.5964   -5.3810   27.8235 C   0  0  0  0  0  0  0  0  0  0  0  0
    6.7939   -7.3243   27.2276 C   0  0  0  0  0  0  0  0  0  0  0  0
    0.9780   -4.8279   27.1084 C   0  0  0  0  0  0  0  0  0  0  0  0
    3.2882   -5.0225   27.0685 C   0  0  0  0  0  0  0  0  0  0  0  0
  1 22  4  0
  1 26  4  0
  2 27  4  0
  2 28  4  0
  3  9  4  0
  3 20  4  0
  4 22  4  0
  4 25  4  0
  4 28  1  0
  5  8  4  0
  5 17  4  0
  6 12  2  0
  6 20  4  0
  6 23  4  0
  7 15  4  0
  7 18  2  0
  8 27  4  0
  9 19  1  0
  9 23  4  0
 10 11  2  0
 11 14  1  0
 11 27  1  0
 13 20  1  0
 15 18  1  0
 16 25  4  0
 16 26  4  0
 17 28  4  0
 18 21  1  0
 19 25  3  0
 21 26  1  0
 23 24  1  0
M  END
$$$$

 Created by Python create_sdf_string function

 28 29  0  0  0  0  0  0  0  0999 V2000
    5.6569   -7.8217   26.5337 C   0  0  0  0  0  0  0  0  0  0  0  0
    2.0802   -5.5986   27.2210 C   0  0  0  0  0  0  0  0  0  0  0  0
   -0.7728  -11.2000   14.6480 N   0  0  0  0  0  0  0  0  0  0  0  0
    4.4516   -5.8084   27.1414 C   0  0  0  0  0  0  0  0  0  0  0  0
    2.2314   -2.8444   26.6609 C   0  0  0  0  0  0  0  0  0  0  0  0
    1.4366  -11.4716   14.1883 C   0  0  0  0  0  0  0  0  0  0  0  0
    9.0561   -7.4241   28.8650 O   0  0  0  0  0  0  0  0  0  0  0  0
    0.9844   -3.4636   26.7781 C   0  0  0  0  0  0  0  0  0  0  0  0
   -0.1174  -10.1582   15.1360 C   0  0  0  0  0  0  0  0  0  0  0  0
   -1.3119   -4.9230   26.8856 O   0  0  0  0  0  0  0  0  0  0  0  0
   -0.3194   -5.4569   27.3255 C   0  0  0  0  0  0  0  0  0  0  0  0
    2.4053  -11.9940   13.7746 O   0  0  0  0  0  0  0  0  0  0  0  0
   -0.2089  -13.1311   13.4687 C   0  0  0  0  0  0  0  0  0  0  0  0
   -0.3698   -6.6213   28.0105 N   0  0  0  0  0  0  0  0  0  0  0  0
   10.2900   -8.7280   27.2693 C   0  0  0  0  0  0  0  0  0  0  0  0
    6.7104   -6.1521   27.8889 C   0  0  0  0  0  0  0  0  0  0  0  0
    3.3674   -3.6483   26.8594 C   0  0  0  0  0  0  0  0  0  0  0  0
    9.0329   -8.0053   27.8145 C   0  0  0  0  0  0  0  0  0  0  0  0
   -0.7131   -9.1378   15.7867 N   0  0  0  0  0  0  0  0  0  0  0  0
    0.1518  -11.9712   14.0779 N   0  0  0  0  0  0  0  0  0  0  0  0
    7.9074   -8.0476   27.0925 N   0  0  0  0  0  0  0  0  0  0  0  0
    4.5157   -7.0900   26.5563 C   0  0  0  0  0  0  0  0  0  0  0  0
    1.2645  -10.2480   14.8914 C   0  0  0  0  0  0  0  0  0  0  0  0
    2.1702   -9.3687   15.2065 F   0  0  0  0  0  0  0  0  0  0  0  0
    5.5912   -5.3745   27.8094 C   0  0  0  0  0  0  0  0  0  0  0  0
    6.7694   -7.3300   27.2058 C   0  0  0  0  0  0  0  0  0  0  0  0
    0.9541   -4.8230   27.1098 C   0  0  0  0  0  0  0  0  0  0  0  0
    3.3005   -5.0208   27.0714 C   0  0  0  0  0  0  0  0  0  0  0  0
  1 22  4  0
  1 26  4  0
  2 27  4  0
  2 28  4  0
  3  9  4  0
  3 20  4  0
  4 22  4  0
  4 25  4  0
  4 28  1  0
  5  8  4  0
  5 17  4  0
  6 12  2  0
  6 20  4  0
  6 23  4  0
  7 18  2  0
  8 27  4  0
  9 19  1  0
  9 23  4  0
 10 11  2  0
 11 14  1  0
 11 27  1  0
 13 20  1  0
 15 18  1  0
 16 25  4  0
 16 26  4  0
 17 28  4  0
 18 21  1  0
 21 26  1  0
 23 24  1  0
M  END
$$$$

 Created by Python create_sdf_string function

 28 29  0  0  0  0  0  0  0  0999 V2000
    5.6490   -7.8093   26.5214 Cl  0  0  0  0  0  0  0  0  0  0  0  0
    2.0859   -5.6009   27.2017 C   0  0  0  0  0  0  0  0  0  0  0  0
   -0.7448  -11.2093   14.6528 N   0  0  0  0  0  0  0  0  0  0  0  0
    4.4742   -5.8041   27.1388 C   0  0  0  0  0  0  0  0  0  0  0  0
    2.2407   -2.8704   26.6470 C   0  0  0  0  0  0  0  0  0  0  0  0
    1.4550  -11.4637   14.2057 C   0  0  0  0  0  0  0  0  0  0  0  0
    9.0543   -7.4061   28.8570 O   0  0  0  0  0  0  0  0  0  0  0  0
    0.9700   -3.4626   26.7969 C   0  0  0  0  0  0  0  0  0  0  0  0
   -0.1243  -10.1588   15.1355 C   0  0  0  0  0  0  0  0  0  0  0  0
   -1.3030   -4.9448   26.8733 O   0  0  0  0  0  0  0  0  0  0  0  0
   -0.3059   -5.4479   27.3277 C   0  0  0  0  0  0  0  0  0  0  0  0
    2.4096  -11.9864   13.7584 O   0  0  0  0  0  0  0  0  0  0  0  0
   -0.2068  -13.1236   13.4700 C   0  0  0  0  0  0  0  0  0  0  0  0
   -0.3739   -6.6308   27.9918 N   0  0  0  0  0  0  0  0  0  0  0  0
   10.3090   -8.7250   27.2727 C   0  0  0  0  0  0  0  0  0  0  0  0
    6.7176   -6.1532   27.8902 C   0  0  0  0  0  0  0  0  0  0  0  0
    3.3644   -3.6431   26.8604 C   0  0  0  0  0  0  0  0  0  0  0  0
    9.0341   -7.9862   27.8266 C   0  0  0  0  0  0  0  0  0  0  0  0
   -0.7133   -9.1424   15.7820 N   0  0  0  0  0  0  0  0  0  0  0  0
    0.1574  -11.9907   14.0810 N   0  0  0  0  0  0  0  0  0  0  0  0
    7.9049   -8.0474   27.0913 N   0  0  0  0  0  0  0  0  0  0  0  0
    4.5018   -7.0815   26.5641 C   0  0  0  0  0  0  0  0  0  0  0  0
    1.2708  -10.2517   14.8814 C   0  0  0  0  0  0  0  0  0  0  0  0
    2.1973   -9.3740   15.2016 F   0  0  0  0  0  0  0  0  0  0  0  0
    5.6033   -5.3765   27.8285 C   0  0  0  0  0  0  0  0  0  0  0  0
    6.7603   -7.3460   27.1955 C   0  0  0  0  0  0  0  0  0  0  0  0
    0.9335   -4.8285   27.1081 C   0  0  0  0  0  0  0  0  0  0  0  0
    3.3034   -5.0187   27.0615 C   0  0  0  0  0  0  0  0  0  0  0  0
  1 22  4  0
  1 26  4  0
  2 27  4  0
  2 28  4  0
  3  9  4  0
  3 20  4  0
  4 22  4  0
  4 25  4  0
  4 28  1  0
  5  8  4  0
  5 17  4  0
  6 12  2  0
  6 20  4  0
  6 23  4  0
  7 18  2  0
  8 27  4  0
  9 19  1  0
  9 23  4  0
 10 11  2  0
 11 14  1  0
 11 27  1  0
 13 20  1  0
 15 18  1  0
 16 25  4  0
 16 26  4  0
 17 28  4  0
 18 21  1  0
 21 26  1  0
 23 24  1  0
M  END
$$$$

 Created by Python create_sdf_string function

 28 29  0  0  0  0  0  0  0  0999 V2000
    5.6458   -7.7956   26.5306 C   0  0  0  0  0  0  0  0  0  0  0  0
    2.0782   -5.5895   27.1982 C   0  0  0  0  0  0  0  0  0  0  0  0
   -0.7716  -11.2020   14.6545 N   0  0  0  0  0  0  0  0  0  0  0  0
    4.4566   -5.7942   27.1398 C   0  0  0  0  0  0  0  0  0  0  0  0
    2.2347   -2.8498   26.6594 C   0  0  0  0  0  0  0  0  0  0  0  0
    1.4340  -11.4577   14.1952 C   0  0  0  0  0  0  0  0  0  0  0  0
    9.0357   -7.3875   28.8319 O   0  0  0  0  0  0  0  0  0  0  0  0
    0.9868   -3.4464   26.7891 C   0  0  0  0  0  0  0  0  0  0  0  0
   -0.1215  -10.1505   15.1392 C   0  0  0  0  0  0  0  0  0  0  0  0
   -1.3044   -4.9256   26.8818 O   0  0  0  0  0  0  0  0  0  0  0  0
   -0.3074   -5.4545   27.3180 C   0  0  0  0  0  0  0  0  0  0  0  0
    2.4005  -11.9777   13.7693 O   0  0  0  0  0  0  0  0  0  0  0  0
   -0.2031  -13.1250   13.4724 C   0  0  0  0  0  0  0  0  0  0  0  0
   -0.3707   -6.6261   27.9838 N   0  0  0  0  0  0  0  0  0  0  0  0
   10.3021   -8.7164   27.2753 C   0  0  0  0  0  0  0  0  0  0  0  0
    6.7200   -6.1524   27.8790 C   0  0  0  0  0  0  0  0  0  0  0  0
    3.3664   -3.6398   26.8551 C   0  0  0  0  0  0  0  0  0  0  0  0
    9.0185   -7.9898   27.8019 C   0  0  0  0  0  0  0  0  0  0  0  0
   -0.7101   -9.1350   15.7841 N   0  0  0  0  0  0  0  0  0  0  0  0
    0.1548  -11.9715   14.0888 N   0  0  0  0  0  0  0  0  0  0  0  0
    7.8804   -8.0514   27.0837 N   0  0  0  0  0  0  0  0  0  0  0  0
    4.5007   -7.0681   26.5558 C   0  0  0  0  0  0  0  0  0  0  0  0
    1.2576  -10.2377   14.8895 C   0  0  0  0  0  0  0  0  0  0  0  0
    2.1809   -9.3799   15.2053 F   0  0  0  0  0  0  0  0  0  0  0  0
    5.6019   -5.3644   27.8102 C   0  0  0  0  0  0  0  0  0  0  0  0
    6.7546   -7.3291   27.1912 C   0  0  0  0  0  0  0  0  0  0  0  0
    0.9528   -4.8145   27.1046 C   0  0  0  0  0  0  0  0  0  0  0  0
    3.2976   -5.0094   27.0637 C   0  0  0  0  0  0  0  0  0  0  0  0
  1 22  4  0
  1 26  4  0
  2 27  4  0
  2 28  4  0
  3  9  4  0
  3 20  4  0
  4 22  4  0
  4 25  4  0
  4 28  1  0
  5  8  4  0
  5 17  4  0
  6 12  2  0
  6 20  4  0
  6 23  4  0
  7 18  2  0
  8 27  4  0
  9 19  1  0
  9 23  4  0
 10 11  2  0
 11 14  1  0
 11 27  1  0
 13 20  1  0
 15 18  1  0
 16 25  4  0
 16 26  4  0
 17 28  4  0
 18 21  1  0
 21 26  1  0
 23 24  1  0
M  END
$$$$

 Created by Python create_sdf_string function

 28 31  0  0  0  0  0  0  0  0999 V2000
    5.6472   -7.7893   26.5301 C   0  0  0  0  0  0  0  0  0  0  0  0
    2.0791   -5.5973   27.1978 C   0  0  0  0  0  0  0  0  0  0  0  0
   -0.7726  -11.2057   14.6527 N   0  0  0  0  0  0  0  0  0  0  0  0
    4.4665   -5.7923   27.1393 C   0  0  0  0  0  0  0  0  0  0  0  0
    2.2303   -2.8477   26.6533 C   0  0  0  0  0  0  0  0  0  0  0  0
    1.4230  -11.4657   14.1980 C   0  0  0  0  0  0  0  0  0  0  0  0
    9.0303   -7.3848   28.8398 O   0  0  0  0  0  0  0  0  0  0  0  0
    0.9824   -3.4524   26.7925 C   0  0  0  0  0  0  0  0  0  0  0  0
   -0.1183  -10.1413   15.1392 C   0  0  0  0  0  0  0  0  0  0  0  0
   -1.3112   -4.9191   26.8783 O   0  0  0  0  0  0  0  0  0  0  0  0
   -0.3007   -5.4617   27.3157 C   0  0  0  0  0  0  0  0  0  0  0  0
    2.4010  -11.9875   13.7710 O   0  0  0  0  0  0  0  0  0  0  0  0
   -0.2024  -13.1264   13.4691 C   0  0  0  0  0  0  0  0  0  0  0  0
   -0.3740   -6.6245   27.9900 N   0  0  0  0  0  0  0  0  0  0  0  0
   10.2916   -8.7103   27.2783 C   0  0  0  0  0  0  0  0  0  0  0  0
    6.7226   -6.1574   27.8774 C   0  0  0  0  0  0  0  0  0  0  0  0
    3.3520   -3.6501   26.8468 C   0  0  0  0  0  0  0  0  0  0  0  0
    9.0130   -7.9959   27.7994 C   0  0  0  0  0  0  0  0  0  0  0  0
   -0.7146   -9.1315   15.7871 N   0  0  0  0  0  0  0  0  0  0  0  0
    0.1564  -11.9693   14.0962 N   0  0  0  0  0  0  0  0  0  0  0  0
    7.8753   -8.0502   27.0905 N   0  0  0  0  0  0  0  0  0  0  0  0
    4.4770   -7.0710   26.5454 C   0  0  0  0  0  0  0  0  0  0  0  0
    1.2518  -10.2391   14.8834 C   0  0  0  0  0  0  0  0  0  0  0  0
    2.1750   -9.3764   15.2065 F   0  0  0  0  0  0  0  0  0  0  0  0
    5.5922   -5.3688   27.8182 C   0  0  0  0  0  0  0  0  0  0  0  0
    6.7615   -7.3216   27.1933 C   0  0  0  0  0  0  0  0  0  0  0  0
    0.9479   -4.8189   27.1058 C   0  0  0  0  0  0  0  0  0  0  0  0
    3.3041   -5.0056   27.0671 C   0  0  0  0  0  0  0  0  0  0  0  0
  1 22  4  0
  1 26  4  0
  2 21  3  0
  2 27  4  0
  2 28  4  0
  3  9  4  0
  3 20  4  0
  4 22  4  0
  4 25  4  0
  4 28  1  0
  5  8  4  0
  5 17  4  0
  6 12  2  0
  6 20  4  0
  6 23  4  0
  7 18  2  0
  8 27  4  0
  9 19  1  0
  9 23  4  0
 10 11  2  0
 11 13  1  0
 11 14  1  0
 11 27  1  0
 13 20  1  0
 15 18  1  0
 16 25  4  0
 16 26  4  0
 17 28  4  0
 18 21  1  0
 21 26  1  0
 23 24  2  0
M  END
$$$$

 Created by Python create_sdf_string function

 28 29  0  0  0  0  0  0  0  0999 V2000
    5.6280   -7.7929   26.5187 C   0  0  0  0  0  0  0  0  0  0  0  0
    2.0754   -5.5865   27.1949 C   0  0  0  0  0  0  0  0  0  0  0  0
   -0.7934  -11.1979   14.6548 N   0  0  0  0  0  0  0  0  0  0  0  0
    4.4461   -5.7844   27.1340 C   0  0  0  0  0  0  0  0  0  0  0  0
    2.2285   -2.8366   26.6626 C   0  0  0  0  0  0  0  0  0  0  0  0
    1.4133  -11.4621   14.1936 C   0  0  0  0  0  0  0  0  0  0  0  0
    9.0120   -7.3726   28.8091 O   0  0  0  0  0  0  0  0  0  0  0  0
    0.9834   -3.4396   26.7879 C   0  0  0  0  0  0  0  0  0  0  0  0
   -0.1316  -10.1425   15.1397 C   0  0  0  0  0  0  0  0  0  0  0  0
   -1.3035   -4.9070   26.8871 O   0  0  0  0  0  0  0  0  0  0  0  0
   -0.3104   -5.4493   27.3157 C   0  0  0  0  0  0  0  0  0  0  0  0
    2.3835  -11.9787   13.7781 O   0  0  0  0  0  0  0  0  0  0  0  0
   -0.2073  -13.1286   13.4714 C   0  0  0  0  0  0  0  0  0  0  0  0
   -0.3725   -6.6202   27.9784 N   0  0  0  0  0  0  0  0  0  0  0  0
   10.2935   -8.7086   27.2808 C   0  0  0  0  0  0  0  0  0  0  0  0
    6.7006   -6.1468   27.8631 C   0  0  0  0  0  0  0  0  0  0  0  0
    3.3550   -3.6365   26.8494 C   0  0  0  0  0  0  0  0  0  0  0  0
    9.0082   -7.9935   27.7879 C   0  0  0  0  0  0  0  0  0  0  0  0
   -0.7126   -9.1310   15.7849 N   0  0  0  0  0  0  0  0  0  0  0  0
    0.1287  -11.9683   14.0927 N   0  0  0  0  0  0  0  0  0  0  0  0
    7.8766   -8.0619   27.0788 N   0  0  0  0  0  0  0  0  0  0  0  0
    4.4887   -7.0635   26.5437 C   0  0  0  0  0  0  0  0  0  0  0  0
    1.2620  -10.2261   14.8886 C   0  0  0  0  0  0  0  0  0  0  0  0
    2.1747   -9.3723   15.2115 F   0  0  0  0  0  0  0  0  0  0  0  0
    5.5938   -5.3627   27.7986 C   0  0  0  0  0  0  0  0  0  0  0  0
    6.7420   -7.3237   27.1816 C   0  0  0  0  0  0  0  0  0  0  0  0
    0.9502   -4.8088   27.1017 C   0  0  0  0  0  0  0  0  0  0  0  0
    3.2948   -5.0028   27.0604 C   0  0  0  0  0  0  0  0  0  0  0  0
  1 22  4  0
  1 26  4  0
  2 27  4  0
  2 28  4  0
  3  9  4  0
  3 20  4  0
  4 22  4  0
  4 25  4  0
  4 28  1  0
  5  8  4  0
  5 17  4  0
  6 12  2  0
  6 20  4  0
  6 23  4  0
  7 18  2  0
  8 27  4  0
  9 19  1  0
  9 23  4  0
 10 11  2  0
 11 14  1  0
 11 27  1  0
 13 20  1  0
 15 18  1  0
 16 25  4  0
 16 26  4  0
 17 28  4  0
 18 21  1  0
 21 26  1  0
 23 24  2  0
M  END
$$$$

 Created by Python create_sdf_string function

 28 29  0  0  0  0  0  0  0  0999 V2000
    5.6230   -7.7964   26.5169 C   0  0  0  0  0  0  0  0  0  0  0  0
    2.0821   -5.5849   27.1951 C   0  0  0  0  0  0  0  0  0  0  0  0
   -0.7917  -11.1976   14.6570 N   0  0  0  0  0  0  0  0  0  0  0  0
    4.4486   -5.7810   27.1328 C   0  0  0  0  0  0  0  0  0  0  0  0
    2.2317   -2.8359   26.6600 C   0  0  0  0  0  0  0  0  0  0  0  0
    1.4166  -11.4596   14.1965 C   0  0  0  0  0  0  0  0  0  0  0  0
    9.0145   -7.3663   28.8097 O   0  0  0  0  0  0  0  0  0  0  0  0
    0.9856   -3.4343   26.7876 C   0  0  0  0  0  0  0  0  0  0  0  0
   -0.1299  -10.1416   15.1403 C   0  0  0  0  0  0  0  0  0  0  0  0
   -1.3056   -4.9082   26.8891 O   0  0  0  0  0  0  0  0  0  0  0  0
   -0.3066   -5.4519   27.3161 C   0  0  0  0  0  0  0  0  0  0  0  0
    2.3815  -11.9806   13.7748 O   0  0  0  0  0  0  0  0  0  0  0  0
   -0.2096  -13.1246   13.4736 C   0  0  0  0  0  0  0  0  0  0  0  0
   -0.3653   -6.6190   27.9803 N   0  0  0  0  0  0  0  0  0  0  0  0
   10.2909   -8.7083   27.2835 C   0  0  0  0  0  0  0  0  0  0  0  0
    6.7055   -6.1463   27.8616 C   0  0  0  0  0  0  0  0  0  0  0  0
    3.3523   -3.6319   26.8487 C   0  0  0  0  0  0  0  0  0  0  0  0
    9.0118   -7.9915   27.7907 C   0  0  0  0  0  0  0  0  0  0  0  0
   -0.7138   -9.1331   15.7813 N   0  0  0  0  0  0  0  0  0  0  0  0
    0.1273  -11.9732   14.0958 N   0  0  0  0  0  0  0  0  0  0  0  0
    7.8775   -8.0605   27.0831 N   0  0  0  0  0  0  0  0  0  0  0  0
    4.4916   -7.0662   26.5443 C   0  0  0  0  0  0  0  0  0  0  0  0
    1.2589  -10.2257   14.8881 C   0  0  0  0  0  0  0  0  0  0  0  0
    2.1742   -9.3675   15.2092 F   0  0  0  0  0  0  0  0  0  0  0  0
    5.5980   -5.3647   27.7964 C   0  0  0  0  0  0  0  0  0  0  0  0
    6.7390   -7.3236   27.1809 C   0  0  0  0  0  0  0  0  0  0  0  0
    0.9489   -4.8063   27.1042 C   0  0  0  0  0  0  0  0  0  0  0  0
    3.2988   -5.0054   27.0640 C   0  0  0  0  0  0  0  0  0  0  0  0
  1 22  4  0
  1 26  4  0
  2 27  4  0
  2 28  4  0
  3  9  4  0
  3 20  4  0
  4 22  4  0
  4 25  4  0
  4 28  1  0
  5  8  4  0
  5 17  4  0
  6 12  2  0
  6 20  4  0
  6 23  4  0
  7 18  2  0
  8 27  4  0
  9 19  1  0
  9 23  4  0
 10 11  2  0
 11 14  1  0
 11 27  1  0
 13 20  1  0
 15 18  1  0
 16 25  4  0
 16 26  4  0
 17 28  4  0
 18 21  1  0
 21 26  1  0
 23 24  2  0
M  END
$$$$

 Created by Python create_sdf_string function

 28 29  0  0  0  0  0  0  0  0999 V2000
    5.6111   -7.8011   26.5081 C   0  0  0  0  0  0  0  0  0  0  0  0
    2.0721   -5.5712   27.1912 C   0  0  0  0  0  0  0  0  0  0  0  0
   -0.8062  -11.1907   14.6585 N   0  0  0  0  0  0  0  0  0  0  0  0
    4.4424   -5.7798   27.1245 C   0  0  0  0  0  0  0  0  0  0  0  0
    2.2289   -2.8227   26.6667 C   0  0  0  0  0  0  0  0  0  0  0  0
    1.4024  -11.4559   14.1952 C   0  0  0  0  0  0  0  0  0  0  0  0
    8.9981   -7.3509   28.7855 O   0  0  0  0  0  0  0  0  0  0  0  0
    0.9808   -3.4267   26.7866 C   0  0  0  0  0  0  0  0  0  0  0  0
   -0.1382  -10.1398   15.1403 C   0  0  0  0  0  0  0  0  0  0  0  0
   -1.3025   -4.8933   26.8952 O   0  0  0  0  0  0  0  0  0  0  0  0
   -0.3111   -5.4376   27.3143 C   0  0  0  0  0  0  0  0  0  0  0  0
    2.3636  -11.9755   13.7789 O   0  0  0  0  0  0  0  0  0  0  0  0
   -0.2131  -13.1270   13.4758 C   0  0  0  0  0  0  0  0  0  0  0  0
   -0.3626   -6.6131   27.9677 N   0  0  0  0  0  0  0  0  0  0  0  0
   10.2929   -8.7076   27.2851 C   0  0  0  0  0  0  0  0  0  0  0  0
    6.6979   -6.1471   27.8456 C   0  0  0  0  0  0  0  0  0  0  0  0
    3.3562   -3.6265   26.8516 C   0  0  0  0  0  0  0  0  0  0  0  0
    9.0017   -7.9892   27.7761 C   0  0  0  0  0  0  0  0  0  0  0  0
   -0.7115   -9.1288   15.7820 N   0  0  0  0  0  0  0  0  0  0  0  0
    0.1149  -11.9612   14.0967 N   0  0  0  0  0  0  0  0  0  0  0  0
    7.8603   -8.0643   27.0726 N   0  0  0  0  0  0  0  0  0  0  0  0
    4.4839   -7.0581   26.5391 C   0  0  0  0  0  0  0  0  0  0  0  0
    1.2575  -10.2188   14.8909 C   0  0  0  0  0  0  0  0  0  0  0  0
    2.1731   -9.3642   15.2140 F   0  0  0  0  0  0  0  0  0  0  0  0
    5.5930   -5.3557   27.7808 C   0  0  0  0  0  0  0  0  0  0  0  0
    6.7305   -7.3278   27.1700 C   0  0  0  0  0  0  0  0  0  0  0  0
    0.9479   -4.7963   27.1002 C   0  0  0  0  0  0  0  0  0  0  0  0
    3.2905   -4.9931   27.0567 C   0  0  0  0  0  0  0  0  0  0  0  0
  1 22  4  0
  1 26  4  0
  2 27  4  0
  2 28  4  0
  3  9  4  0
  3 20  4  0
  4 22  4  0
  4 25  4  0
  4 28  1  0
  5  8  4  0
  5 17  4  0
  6 12  2  0
  6 20  4  0
  6 23  4  0
  7 18  2  0
  8 27  4  0
  9 19  1  0
  9 23  4  0
 10 11  2  0
 11 14  1  0
 11 27  1  0
 13 20  1  0
 15 18  1  0
 16 25  4  0
 16 26  4  0
 17 28  4  0
 18 21  1  0
 21 26  1  0
 23 24  2  0
M  END
$$$$

 Created by Python create_sdf_string function

 28 29  0  0  0  0  0  0  0  0999 V2000
    5.6111   -7.8011   26.5081 C   0  0  0  0  0  0  0  0  0  0  0  0
    2.0721   -5.5712   27.1912 C   0  0  0  0  0  0  0  0  0  0  0  0
   -0.8062  -11.1907   14.6585 N   0  0  0  0  0  0  0  0  0  0  0  0
    4.4424   -5.7798   27.1245 C   0  0  0  0  0  0  0  0  0  0  0  0
    2.2289   -2.8227   26.6667 C   0  0  0  0  0  0  0  0  0  0  0  0
    1.4024  -11.4559   14.1952 C   0  0  0  0  0  0  0  0  0  0  0  0
    8.9981   -7.3509   28.7855 O   0  0  0  0  0  0  0  0  0  0  0  0
    0.9808   -3.4267   26.7866 C   0  0  0  0  0  0  0  0  0  0  0  0
   -0.1382  -10.1398   15.1403 C   0  0  0  0  0  0  0  0  0  0  0  0
   -1.3025   -4.8933   26.8952 O   0  0  0  0  0  0  0  0  0  0  0  0
   -0.3111   -5.4376   27.3143 C   0  0  0  0  0  0  0  0  0  0  0  0
    2.3636  -11.9755   13.7789 O   0  0  0  0  0  0  0  0  0  0  0  0
   -0.2131  -13.1270   13.4758 C   0  0  0  0  0  0  0  0  0  0  0  0
   -0.3626   -6.6131   27.9677 N   0  0  0  0  0  0  0  0  0  0  0  0
   10.2929   -8.7076   27.2851 C   0  0  0  0  0  0  0  0  0  0  0  0
    6.6979   -6.1471   27.8456 C   0  0  0  0  0  0  0  0  0  0  0  0
    3.3562   -3.6265   26.8516 C   0  0  0  0  0  0  0  0  0  0  0  0
    9.0017   -7.9892   27.7761 C   0  0  0  0  0  0  0  0  0  0  0  0
   -0.7115   -9.1288   15.7820 N   0  0  0  0  0  0  0  0  0  0  0  0
    0.1149  -11.9612   14.0967 N   0  0  0  0  0  0  0  0  0  0  0  0
    7.8603   -8.0643   27.0726 N   0  0  0  0  0  0  0  0  0  0  0  0
    4.4839   -7.0581   26.5391 C   0  0  0  0  0  0  0  0  0  0  0  0
    1.2575  -10.2188   14.8909 C   0  0  0  0  0  0  0  0  0  0  0  0
    2.1731   -9.3642   15.2140 F   0  0  0  0  0  0  0  0  0  0  0  0
    5.5930   -5.3557   27.7808 C   0  0  0  0  0  0  0  0  0  0  0  0
    6.7305   -7.3278   27.1700 C   0  0  0  0  0  0  0  0  0  0  0  0
    0.9479   -4.7963   27.1002 C   0  0  0  0  0  0  0  0  0  0  0  0
    3.2905   -4.9931   27.0567 C   0  0  0  0  0  0  0  0  0  0  0  0
  1 22  4  0
  1 26  4  0
  2 27  4  0
  2 28  4  0
  3  9  4  0
  3 20  4  0
  4 22  4  0
  4 25  4  0
  4 28  1  0
  5  8  4  0
  5 17  4  0
  6 12  2  0
  6 20  4  0
  6 23  4  0
  7 18  2  0
  8 27  4  0
  9 19  1  0
  9 23  4  0
 10 11  2  0
 11 14  1  0
 11 27  1  0
 13 20  1  0
 15 18  1  0
 16 25  4  0
 16 26  4  0
 17 28  4  0
 18 21  1  0
 21 26  1  0
 23 24  2  0
M  END
$$$$

 Created by Python create_sdf_string function

 28 55  0  0  0  0  0  0  0  0999 V2000
    5.8356   -8.3308   27.3542 C   0  0  0  0  0  0  0  0  0  0  0  0
    2.1605   -5.7079   27.0214 C   0  0  0  0  0  0  0  0  0  0  0  0
    2.3329  -10.0515   21.4147 P   0  0  0  0  0  0  0  0  0  0  0  0
    2.5614   -2.8274   27.2372 C   0  0  0  0  0  0  0  0  0  0  0  0
    3.9422   -7.7121   23.6061 Cl  0  0  0  0  0  0  0  0  0  0  0  0
    9.0705   -6.8373   28.0910 O   0  0  0  0  0  0  0  0  0  0  0  0
    0.7640   -3.4202   26.8289 O   0  0  0  0  0  0  0  0  0  0  0  0
    1.8315   -8.5355   23.7688 F   0  0  0  0  0  0  0  0  0  0  0  0
   -1.3278   -5.5984   26.9394 O   0  0  0  0  0  0  0  0  0  0  0  0
   -0.7689   -5.6905   27.9916 C   0  0  0  0  0  0  0  0  0  0  0  0
    3.9291   -7.9792   22.0070 O   0  0  0  0  0  0  0  0  0  0  0  0
    6.3603   -6.1620   27.8420 C   0  0  0  0  0  0  0  0  0  0  0  0
    8.6691   -7.6097   28.1805 C   0  0  0  0  0  0  0  0  0  0  0  0
    3.6514   -6.8500   23.4580 C   0  0  0  0  0  0  0  0  0  0  0  0
    7.7396   -8.2211   26.7104 N   0  0  0  0  0  0  0  0  0  0  0  0
    4.3105   -7.6946   26.7618 C   0  0  0  0  0  0  0  0  0  0  0  0
    5.0919   -5.9092   27.9519 C   0  0  0  0  0  0  0  0  0  0  0  0
    0.9512   -4.6359   27.4222 C   0  0  0  0  0  0  0  0  0  0  0  0
    3.1648   -5.3960   26.8068 C   0  0  0  0  0  0  0  0  0  0  0  0
    4.6299   -6.5784   27.6549 He  0  0  0  0  0  0  0  0  0  0  0  0
    2.2079   -7.6839   22.4158 He  0  0  0  0  0  0  0  0  0  0  0  0
   -0.2229   -6.1762   28.2960 He  0  0  0  0  0  0  0  0  0  0  0  0
   10.2181   -8.2206   26.6571 He  0  0  0  0  0  0  0  0  0  0  0  0
    3.8164   -3.7807   26.9897 He  0  0  0  0  0  0  0  0  0  0  0  0
    5.1027   -8.7694   22.1241 He  0  0  0  0  0  0  0  0  0  0  0  0
    3.4797   -9.3973   22.8771 He  0  0  0  0  0  0  0  0  0  0  0  0
    4.7335   -9.7391   21.2620 He  0  0  0  0  0  0  0  0  0  0  0  0
    6.5054   -7.0355   27.1535 He  0  0  0  0  0  0  0  0  0  0  0  0
  1  3  3  0
  1  6  4  0
  1  8  3  0
  1 16  4  0
  2  4  4  0
  2  8  2  0
  2 17  4  0
  2 18  4  0
  2 19  4  0
  3  4  3  0
  3  5  2  0
  3  7  1  0
  3  9  3  0
  3 10  3  0
  3 13  4  0
  3 16  1  0
  3 19  4  0
  4  7  4  0
  4  8  3  0
  4 11  3  0
  4 14  2  0
  4 15  2  0
  5  8  2  0
  5 10  4  0
  5 11  3  0
  5 14  2  0
  5 17  3  0
  6  9  4  0
  6 13  2  0
  6 14  3  0
  7  8  1  0
  7 17  2  0
  8  9  2  0
  8 10  2  0
  8 13  3  0
  8 17  2  0
  8 18  3  0
  8 19  1  0
  9 10  2  0
  9 15  1  0
  9 17  2  0
 10 14  4  0
 10 18  1  0
 11 14  1  0
 11 17  3  0
 11 19  4  0
 12 17  4  0
 12 18  4  0
 13 15  1  0
 14 15  4  0
 14 17  4  0
 14 18  2  0
 15 17  2  0
 16 17  4  0
 17 19  2  0
M  END
$$$$

 Created by Python create_sdf_string function

 28 20  0  0  0  0  0  0  0  0999 V2000
    5.6436   -8.2177   26.8144 C   0  0  0  0  0  0  0  0  0  0  0  0
    1.9209   -5.8467   27.1101 C   0  0  0  0  0  0  0  0  0  0  0  0
    3.3099   -9.1807   21.4259 C   0  0  0  0  0  0  0  0  0  0  0  0
    4.2861   -6.2169   27.1514 C   0  0  0  0  0  0  0  0  0  0  0  0
    2.3171   -3.0569   27.0144 C   0  0  0  0  0  0  0  0  0  0  0  0
    4.0850   -7.9406   23.5307 C   0  0  0  0  0  0  0  0  0  0  0  0
    9.2818   -6.7068   28.3759 O   0  0  0  0  0  0  0  0  0  0  0  0
    1.0754   -3.5284   27.1203 C   0  0  0  0  0  0  0  0  0  0  0  0
    2.6936   -8.4856   23.6101 C   0  0  0  0  0  0  0  0  0  0  0  0
   -1.3229   -5.3852   26.8021 O   0  0  0  0  0  0  0  0  0  0  0  0
   -0.3408   -5.5267   27.5214 C   0  0  0  0  0  0  0  0  0  0  0  0
    3.0642   -8.6697   22.4635 C   0  0  0  0  0  0  0  0  0  0  0  0
    4.2685   -8.5306   21.9505 C   0  0  0  0  0  0  0  0  0  0  0  0
   -0.3704   -6.3407   28.5539 O   0  0  0  0  0  0  0  0  0  0  0  0
   10.3251   -8.2718   26.8880 C   0  0  0  0  0  0  0  0  0  0  0  0
    6.4896   -6.3115   27.8741 C   0  0  0  0  0  0  0  0  0  0  0  0
    3.3996   -3.8734   27.0235 C   0  0  0  0  0  0  0  0  0  0  0  0
    9.0269   -7.5834   27.5046 C   0  0  0  0  0  0  0  0  0  0  0  0
    4.6884   -8.5289   22.0331 C   0  0  0  0  0  0  0  0  0  0  0  0
    3.8328   -7.5987   23.6201 C   0  0  0  0  0  0  0  0  0  0  0  0
    7.9283   -8.0585   27.0952 N   0  0  0  0  0  0  0  0  0  0  0  0
    4.5139   -7.5992   26.6019 C   0  0  0  0  0  0  0  0  0  0  0  0
    3.5596   -8.6656   22.4803 C   0  0  0  0  0  0  0  0  0  0  0  0
    4.2101   -8.9140   21.3453 C   0  0  0  0  0  0  0  0  0  0  0  0
    5.3298   -5.7191   27.8404 C   0  0  0  0  0  0  0  0  0  0  0  0
    6.6904   -7.4917   27.2818 C   0  0  0  0  0  0  0  0  0  0  0  0
    0.8924   -4.9183   27.2173 C   0  0  0  0  0  0  0  0  0  0  0  0
    3.2246   -5.3238   27.0805 C   0  0  0  0  0  0  0  0  0  0  0  0
  1 22  4  0
  1 26  4  0
  2 27  4  0
  2 28  4  0
  4 22  4  0
  4 25  4  0
  4 28  1  0
  5  8  4  0
  5 17  4  0
  7 18  2  0
  8 27  4  0
 10 11  2  0
 11 14  1  0
 11 27  1  0
 15 18  1  0
 16 25  4  0
 16 26  4  0
 17 28  4  0
 18 21  1  0
 21 26  1  0
M  END
$$$$

 Created by Python create_sdf_string function

 28 45  0  0  0  0  0  0  0  0999 V2000
    0.6990   -6.4493   26.8390 C   0  0  0  0  0  0  0  0  0  0  0  0
    4.2373   -6.4285   27.2448 C   0  0  0  0  0  0  0  0  0  0  0  0
    2.6304   -3.2227   27.1451 I   0  0  0  0  0  0  0  0  0  0  0  0
    9.5470   -6.9223   28.8426 O   0  0  0  0  0  0  0  0  0  0  0  0
    1.7938   -8.6459   23.3604 C   0  0  0  0  0  0  0  0  0  0  0  0
   -1.8847   -4.4430   26.6818 O   0  0  0  0  0  0  0  0  0  0  0  0
   -0.7640   -4.9843   28.2908 S   0  0  0  0  0  0  0  0  0  0  0  0
    3.1685   -9.9659   22.9070 O   0  0  0  0  0  0  0  0  0  0  0  0
   -0.2396   -6.3015   27.9425 O   0  0  0  0  0  0  0  0  0  0  0  0
   10.0099   -7.8446   26.2233 C   0  0  0  0  0  0  0  0  0  0  0  0
    3.4621   -3.4554   26.4756 C   0  0  0  0  0  0  0  0  0  0  0  0
    3.5094   -7.8472   23.4552 P   0  0  0  0  0  0  0  0  0  0  0  0
    7.4792   -8.1288   26.8053 O   0  0  0  0  0  0  0  0  0  0  0  0
    4.7590   -7.2236   26.7122 C   0  0  0  0  0  0  0  0  0  0  0  0
    4.6455   -5.4222   27.2536 C   0  0  0  0  0  0  0  0  0  0  0  0
    6.4983   -7.5431   27.1833 C   0  0  0  0  0  0  0  0  0  0  0  0
    1.4152   -5.1315   27.2683 C   0  0  0  0  0  0  0  0  0  0  0  0
    3.6329   -5.3449   26.8737 C   0  0  0  0  0  0  0  0  0  0  0  0
    6.1052   -7.8228   27.0549 He  0  0  0  0  0  0  0  0  0  0  0  0
    5.4848   -9.7529   20.6576 He  0  0  0  0  0  0  0  0  0  0  0  0
    3.7706   -7.4778   23.7996 He  0  0  0  0  0  0  0  0  0  0  0  0
    0.2875   -3.5114   27.0853 He  0  0  0  0  0  0  0  0  0  0  0  0
    5.2945   -8.7613   23.5437 He  0  0  0  0  0  0  0  0  0  0  0  0
    6.4852   -5.9663   28.3458 He  0  0  0  0  0  0  0  0  0  0  0  0
    9.0797   -7.1543   27.6529 He  0  0  0  0  0  0  0  0  0  0  0  0
    4.1364   -8.4454   22.7175 He  0  0  0  0  0  0  0  0  0  0  0  0
    4.8649   -9.1908   21.2845 He  0  0  0  0  0  0  0  0  0  0  0  0
    4.6455   -8.3075   20.9966 He  0  0  0  0  0  0  0  0  0  0  0  0
  1  8  4  0
  1 12  2  0
  1 15  1  0
  1 17  4  0
  1 18  3  0
  2  3  2  0
  2 12  2  0
  2 14  4  0
  2 15  4  0
  2 17  3  0
  2 18  2  0
  3  5  4  0
  3  7  2  0
  3  8  2  0
  3  9  3  0
  3 11  4  0
  4 15  3  0
  5  8  1  0
  5  9  2  0
  5 11  2  0
  5 13  3  0
  5 14  1  0
  5 15  1  0
  5 17  4  0
  6  7  2  0
  6 10  3  0
  6 12  2  0
  6 18  3  0
  7  9  3  0
  7 12  3  0
  7 17  1  0
  8 10  2  0
  8 13  2  0
  8 14  1  0
  8 17  2  0
  9 12  4  0
  9 16  2  0
 10 12  4  0
 11 12  2  0
 11 18  4  0
 12 15  4  0
 12 16  1  0
 12 18  2  0
 13 16  1  0
 14 15  2  0
M  END
$$$$

 Created by Python create_sdf_string function

 28 21  0  0  0  0  0  0  0  0999 V2000
    5.7862   -7.9049   26.6533 C   0  0  0  0  0  0  0  0  0  0  0  0
    1.8520   -5.9201   26.8130 C   0  0  0  0  0  0  0  0  0  0  0  0
    5.1325   -8.8879   21.0809 C   0  0  0  0  0  0  0  0  0  0  0  0
    4.2988   -6.1165   26.9823 C   0  0  0  0  0  0  0  0  0  0  0  0
    2.1352   -3.1318   26.9338 C   0  0  0  0  0  0  0  0  0  0  0  0
    3.8802   -7.9134   24.3913 C   0  0  0  0  0  0  0  0  0  0  0  0
    9.3402   -6.8740   28.6075 O   0  0  0  0  0  0  0  0  0  0  0  0
    0.9819   -3.5553   27.0763 C   0  0  0  0  0  0  0  0  0  0  0  0
    3.3120   -8.4382   23.6849 C   0  0  0  0  0  0  0  0  0  0  0  0
   -1.5819   -4.6164   26.9304 O   0  0  0  0  0  0  0  0  0  0  0  0
   -0.6429   -5.3225   27.4483 S   0  0  0  0  0  0  0  0  0  0  0  0
    4.0622   -8.8139   22.1628 C   0  0  0  0  0  0  0  0  0  0  0  0
    5.1888   -8.2430   23.3449 C   0  0  0  0  0  0  0  0  0  0  0  0
   -0.7143   -6.2911   28.2830 O   0  0  0  0  0  0  0  0  0  0  0  0
   10.2534   -7.9566   26.6205 C   0  0  0  0  0  0  0  0  0  0  0  0
    6.4580   -6.1488   28.0343 C   0  0  0  0  0  0  0  0  0  0  0  0
    3.1647   -3.9671   26.9399 C   0  0  0  0  0  0  0  0  0  0  0  0
    9.1100   -7.4538   27.5545 C   0  0  0  0  0  0  0  0  0  0  0  0
    4.8168   -8.2507   22.6296 C   0  0  0  0  0  0  0  0  0  0  0  0
    4.1132   -7.9485   23.8943 C   0  0  0  0  0  0  0  0  0  0  0  0
    7.9963   -7.8036   27.1953 N   0  0  0  0  0  0  0  0  0  0  0  0
    4.7461   -7.2396   26.3313 C   0  0  0  0  0  0  0  0  0  0  0  0
    4.9995   -8.7423   21.5152 C   0  0  0  0  0  0  0  0  0  0  0  0
    4.9527   -8.6540   21.5828 C   0  0  0  0  0  0  0  0  0  0  0  0
    5.2685   -5.5894   27.9006 C   0  0  0  0  0  0  0  0  0  0  0  0
    6.7533   -7.2385   27.3666 C   0  0  0  0  0  0  0  0  0  0  0  0
    0.7365   -4.9374   27.1008 C   0  0  0  0  0  0  0  0  0  0  0  0
    3.1750   -5.3958   26.8683 C   0  0  0  0  0  0  0  0  0  0  0  0
  1 22  4  0
  1 26  4  0
  2 27  4  0
  2 28  4  0
  3 23  4  0
  4 22  4  0
  4 25  4  0
  4 28  1  0
  5  8  4  0
  5 17  4  0
  7 18  2  0
  8 27  4  0
 10 11  2  0
 11 14  2  0
 11 27  1  0
 15 18  1  0
 16 25  4  0
 16 26  4  0
 17 28  4  0
 18 21  1  0
 21 26  1  0
M  END
$$$$

 Created by Python create_sdf_string function

 28 43  0  0  0  0  0  0  0  0999 V2000
    5.2128   -8.0710   26.1511 C   0  0  0  0  0  0  0  0  0  0  0  0
    4.4416   -9.3556   20.9479 C   0  0  0  0  0  0  0  0  0  0  0  0
    4.3147   -5.6497   27.1618 C   0  0  0  0  0  0  0  0  0  0  0  0
    1.6264   -3.1681   27.3049 C   0  0  0  0  0  0  0  0  0  0  0  0
    8.6331   -6.5050   28.5123 F   0  0  0  0  0  0  0  0  0  0  0  0
    5.6187   -7.7874   23.8546 N   0  0  0  0  0  0  0  0  0  0  0  0
   -0.6281   -6.8522   28.6952 O   0  0  0  0  0  0  0  0  0  0  0  0
   10.8803   -8.1221   25.8891 C   0  0  0  0  0  0  0  0  0  0  0  0
    6.1463   -6.0228   27.8946 C   0  0  0  0  0  0  0  0  0  0  0  0
    9.6476   -7.3327   28.0117 C   0  0  0  0  0  0  0  0  0  0  0  0
    3.2870   -6.1327   23.6084 F   0  0  0  0  0  0  0  0  0  0  0  0
    8.1687   -7.9398   26.9804 N   0  0  0  0  0  0  0  0  0  0  0  0
    5.1603   -7.6115   26.4034 C   0  0  0  0  0  0  0  0  0  0  0  0
    7.1758   -8.8216   22.9057 N   0  0  0  0  0  0  0  0  0  0  0  0
    4.5091   -5.8767   27.9802 S   0  0  0  0  0  0  0  0  0  0  0  0
    7.0806   -7.2151   27.4962 O   0  0  0  0  0  0  0  0  0  0  0  0
    1.0989   -4.7055   27.4543 C   0  0  0  0  0  0  0  0  0  0  0  0
    2.6975   -5.7123   26.2739 C   0  0  0  0  0  0  0  0  0  0  0  0
    2.2322   -6.6711   26.5018 He  0  0  0  0  0  0  0  0  0  0  0  0
    3.6251   -8.6467   24.5830 He  0  0  0  0  0  0  0  0  0  0  0  0
    0.8652   -3.7626   26.9039 He  0  0  0  0  0  0  0  0  0  0  0  0
    3.1145   -8.4346   22.3127 He  0  0  0  0  0  0  0  0  0  0  0  0
   -1.3626   -4.3285   26.6059 He  0  0  0  0  0  0  0  0  0  0  0  0
   -0.9522   -4.6863   27.2738 He  0  0  0  0  0  0  0  0  0  0  0  0
    4.0446  -10.3173   20.7985 He  0  0  0  0  0  0  0  0  0  0  0  0
    3.2429   -4.2864   27.1406 He  0  0  0  0  0  0  0  0  0  0  0  0
    5.0229   -8.5348   22.3462 He  0  0  0  0  0  0  0  0  0  0  0  0
    4.3378   -9.4861   22.6304 He  0  0  0  0  0  0  0  0  0  0  0  0
  1  2  2  0
  1  6  3  0
  1  7  3  0
  1 13  4  0
  1 14  1  0
  1 18  1  0
  2  3  3  0
  2  8  1  0
  2 13  4  0
  2 14  3  0
  2 15  2  0
  3 13  1  0
  3 15  4  0
  3 16  4  0
  3 18  3  0
  4 11  3  0
  4 13  2  0
  4 14  2  0
  4 16  3  0
  5  9  2  0
  5 10  2  0
  5 11  1  0
  5 14  1  0
  5 15  3  0
  6 14  2  0
  6 16  4  0
  7 11  1  0
  7 16  2  0
  8 10  1  0
  8 12  1  0
  9 14  2  0
  9 15  4  0
 10 12  1  0
 10 14  3  0
 10 18  1  0
 11 14  1  0
 11 15  2  0
 12 15  4  0
 12 16  2  0
 12 17  2  0
 14 16  3  0
 14 17  3  0
 14 18  4  0
M  END
$$$$

 Created by Python create_sdf_string function

 28 21  0  0  0  0  0  0  0  0999 V2000
    5.7115   -7.7898   26.2417 C   0  0  0  0  0  0  0  0  0  0  0  0
    1.6664   -5.9625   26.8625 C   0  0  0  0  0  0  0  0  0  0  0  0
    4.8080   -8.9802   21.1240 C   0  0  0  0  0  0  0  0  0  0  0  0
    4.1664   -6.1808   27.0416 C   0  0  0  0  0  0  0  0  0  0  0  0
    2.0489   -3.1267   27.0675 C   0  0  0  0  0  0  0  0  0  0  0  0
    3.8902   -8.1632   24.7554 C   0  0  0  0  0  0  0  0  0  0  0  0
    9.3749   -6.6207   28.5234 O   0  0  0  0  0  0  0  0  0  0  0  0
    0.8171   -3.5146   27.0781 C   0  0  0  0  0  0  0  0  0  0  0  0
    4.0909   -8.6692   22.1917 C   0  0  0  0  0  0  0  0  0  0  0  0
   -1.7218   -4.7528   26.8298 O   0  0  0  0  0  0  0  0  0  0  0  0
   -0.7082   -5.3840   27.4193 C   0  0  0  0  0  0  0  0  0  0  0  0
    4.6468   -9.0526   21.0215 C   0  0  0  0  0  0  0  0  0  0  0  0
    5.3190   -8.1692   23.9891 C   0  0  0  0  0  0  0  0  0  0  0  0
   -0.8929   -6.3068   28.2297 O   0  0  0  0  0  0  0  0  0  0  0  0
   10.3690   -8.0279   26.6945 C   0  0  0  0  0  0  0  0  0  0  0  0
    6.3532   -6.2993   28.0196 C   0  0  0  0  0  0  0  0  0  0  0  0
    3.1208   -4.0082   27.0679 C   0  0  0  0  0  0  0  0  0  0  0  0
    9.2805   -7.4138   27.5572 C   0  0  0  0  0  0  0  0  0  0  0  0
    5.1673   -8.5376   22.0542 C   0  0  0  0  0  0  0  0  0  0  0  0
    3.6499   -7.5433   24.0804 C   0  0  0  0  0  0  0  0  0  0  0  0
    8.1285   -7.7323   27.0988 N   0  0  0  0  0  0  0  0  0  0  0  0
    5.0186   -7.4017   26.2375 C   0  0  0  0  0  0  0  0  0  0  0  0
    4.6455   -8.6516   21.9160 C   0  0  0  0  0  0  0  0  0  0  0  0
    5.7945   -8.6367   22.1556 C   0  0  0  0  0  0  0  0  0  0  0  0
    5.1115   -5.7920   27.8634 C   0  0  0  0  0  0  0  0  0  0  0  0
    6.9458   -7.1538   27.3080 C   0  0  0  0  0  0  0  0  0  0  0  0
    0.6170   -4.9177   27.0951 C   0  0  0  0  0  0  0  0  0  0  0  0
    2.9419   -5.4275   26.9379 C   0  0  0  0  0  0  0  0  0  0  0  0
  1 22  4  0
  1 26  4  0
  2 27  4  0
  2 28  4  0
  3 12  4  0
  4 22  4  0
  4 25  4  0
  4 28  1  0
  5  8  4  0
  5 17  4  0
  7 18  2  0
  8 27  4  0
 10 11  2  0
 11 14  2  0
 11 27  1  0
 15 18  1  0
 16 25  4  0
 16 26  4  0
 17 28  4  0
 18 21  1  0
 21 26  1  0
M  END
$$$$

 Created by Python create_sdf_string function

 28 71  0  0  0  0  0  0  0  0999 V2000
    1.9088   -5.8186   26.5744 C   0  0  0  0  0  0  0  0  0  0  0  0
    2.3833   -9.5665   19.5297 O   0  0  0  0  0  0  0  0  0  0  0  0
    4.1218   -6.3001   27.1861 C   0  0  0  0  0  0  0  0  0  0  0  0
    2.3893   -2.8975   27.2646 C   0  0  0  0  0  0  0  0  0  0  0  0
    4.8125   -8.7865   24.0893 F   0  0  0  0  0  0  0  0  0  0  0  0
    1.0783   -3.9951   27.2383 C   0  0  0  0  0  0  0  0  0  0  0  0
   -2.0782   -4.5985   26.8454 O   0  0  0  0  0  0  0  0  0  0  0  0
    5.7996   -8.6928   23.9263 F   0  0  0  0  0  0  0  0  0  0  0  0
   -1.1901   -6.7388   28.6036 O   0  0  0  0  0  0  0  0  0  0  0  0
   10.6646   -8.0709   26.1610 C   0  0  0  0  0  0  0  0  0  0  0  0
    6.5149   -6.4080   27.7868 C   0  0  0  0  0  0  0  0  0  0  0  0
    3.1609   -4.1893   27.5603 C   0  0  0  0  0  0  0  0  0  0  0  0
    9.2233   -7.7609   27.6726 C   0  0  0  0  0  0  0  0  0  0  0  0
    3.9008   -8.5586   19.4860 F   0  0  0  0  0  0  0  0  0  0  0  0
    8.0831   -7.7595   26.3269 N   0  0  0  0  0  0  0  0  0  0  0  0
    5.4076   -7.3065   26.2937 C   0  0  0  0  0  0  0  0  0  0  0  0
    5.6638   -7.7281   20.5522 F   0  0  0  0  0  0  0  0  0  0  0  0
    3.2970   -9.2896   21.4561 F   0  0  0  0  0  0  0  0  0  0  0  0
    4.8946   -5.5502   27.8926 C   0  0  0  0  0  0  0  0  0  0  0  0
    6.7830   -6.9034   27.8380 C   0  0  0  0  0  0  0  0  0  0  0  0
   -0.2530   -5.4005   27.5510 C   0  0  0  0  0  0  0  0  0  0  0  0
    3.2409   -5.7860   26.9981 C   0  0  0  0  0  0  0  0  0  0  0  0
    5.3921   -8.3011   26.6263 He  0  0  0  0  0  0  0  0  0  0  0  0
    9.9218   -6.5564   28.1388 He  0  0  0  0  0  0  0  0  0  0  0  0
    3.2765   -9.1529   22.8825 He  0  0  0  0  0  0  0  0  0  0  0  0
   -0.8581   -6.2489   27.8879 He  0  0  0  0  0  0  0  0  0  0  0  0
    3.6617   -9.6903   21.3811 He  0  0  0  0  0  0  0  0  0  0  0  0
    2.1314   -6.0424   25.5008 He  0  0  0  0  0  0  0  0  0  0  0  0
  1  3  4  0
  1  5  4  0
  1  8  4  0
  1 21  4  0
  1 22  4  0
  2  4  1  0
  2  7  2  0
  2  8  4  0
  2  9  1  0
  2 13  2  0
  2 18  1  0
  2 20  2  0
  3  6  3  0
  3 11  2  0
  3 16  4  0
  3 19  4  0
  3 21  1  0
  3 22  1  0
  4  5  2  0
  4  6  2  0
  4 15  1  0
  4 16  1  0
  5  8  2  0
  5 10  1  0
  5 14  4  0
  5 16  1  0
  5 18  3  0
  5 19  1  0
  6 14  4  0
  6 18  2  0
  6 21  2  0
  7  8  3  0
  7  9  2  0
  7 12  2  0
  7 14  1  0
  7 15  4  0
  7 17  3  0
  7 18  4  0
  8 10  4  0
  8 14  1  0
  8 16  2  0
  8 17  4  0
  8 21  3  0
  8 22  4  0
  9 17  2  0
 10 12  4  0
 10 13  1  0
 10 14  3  0
 10 15  2  0
 10 17  3  0
 10 21  4  0
 10 22  3  0
 11 17  3  0
 11 19  4  0
 11 20  4  0
 12 14  1  0
 12 21  1  0
 12 22  4  0
 13 15  1  0
 13 17  3  0
 14 15  3  0
 14 17  2  0
 14 18  4  0
 14 20  3  0
 15 20  1  0
 16 18  1  0
 17 22  3  0
 18 20  2  0
 18 21  4  0
 18 22  1  0
 19 20  3  0
M  END
$$$$

 Created by Python create_sdf_string function

 28 22  0  0  0  0  0  0  0  0999 V2000
    5.9101   -7.9398   26.4012 C   0  0  0  0  0  0  0  0  0  0  0  0
    1.7457   -6.0317   26.9514 C   0  0  0  0  0  0  0  0  0  0  0  0
    3.2388   -9.4693   19.7570 C   0  0  0  0  0  0  0  0  0  0  0  0
    4.3588   -6.1905   27.1235 C   0  0  0  0  0  0  0  0  0  0  0  0
    2.0264   -3.2814   27.2990 C   0  0  0  0  0  0  0  0  0  0  0  0
    4.6319   -8.1598   23.8670 C   0  0  0  0  0  0  0  0  0  0  0  0
    9.6734   -6.5909   28.1665 O   0  0  0  0  0  0  0  0  0  0  0  0
    0.8156   -3.8009   27.2778 C   0  0  0  0  0  0  0  0  0  0  0  0
    3.9744   -8.5091   22.1580 C   0  0  0  0  0  0  0  0  0  0  0  0
   -1.8171   -4.9984   27.0362 O   0  0  0  0  0  0  0  0  0  0  0  0
   -0.8595   -5.6744   27.5577 C   0  0  0  0  0  0  0  0  0  0  0  0
    3.8619   -9.0696   20.9230 C   0  0  0  0  0  0  0  0  0  0  0  0
    4.9582   -8.1873   23.6314 C   0  0  0  0  0  0  0  0  0  0  0  0
   -1.0169   -6.5622   28.3915 O   0  0  0  0  0  0  0  0  0  0  0  0
   10.4901   -8.1524   26.5330 C   0  0  0  0  0  0  0  0  0  0  0  0
    6.5407   -6.2815   28.0027 C   0  0  0  0  0  0  0  0  0  0  0  0
    3.1292   -4.0828   27.2910 C   0  0  0  0  0  0  0  0  0  0  0  0
    9.3280   -7.5421   27.3468 C   0  0  0  0  0  0  0  0  0  0  0  0
    3.8820   -9.2136   20.1127 C   0  0  0  0  0  0  0  0  0  0  0  0
    1.7149   -7.0374   26.3708 C   0  0  0  0  0  0  0  0  0  0  0  0
    8.1464   -7.8441   27.1427 N   0  0  0  0  0  0  0  0  0  0  0  0
    4.7570   -7.2898   26.2218 C   0  0  0  0  0  0  0  0  0  0  0  0
    4.3810   -8.9599   20.9101 C   0  0  0  0  0  0  0  0  0  0  0  0
    3.8423   -9.0691   20.8135 C   0  0  0  0  0  0  0  0  0  0  0  0
    5.2875   -5.7672   27.9960 C   0  0  0  0  0  0  0  0  0  0  0  0
    6.9340   -7.2624   27.2582 C   0  0  0  0  0  0  0  0  0  0  0  0
    0.6312   -5.2158   27.2223 C   0  0  0  0  0  0  0  0  0  0  0  0
    3.0897   -5.4684   27.0892 C   0  0  0  0  0  0  0  0  0  0  0  0
  1 22  4  0
  1 26  4  0
  2 20  1  0
  2 27  4  0
  2 28  4  0
  3 19  4  0
  4 22  4  0
  4 25  4  0
  4 28  1  0
  5  8  4  0
  5 17  4  0
  7 18  2  0
  8 27  4  0
 10 11  1  0
 11 14  2  0
 11 27  1  0
 15 18  1  0
 16 25  4  0
 16 26  4  0
 17 28  4  0
 18 21  1  0
 21 26  1  0
M  END
$$$$

 Created by Python create_sdf_string function

 28 76  0  0  0  0  0  0  0  0999 V2000
    5.5113   -8.0683   27.4845 C   0  0  0  0  0  0  0  0  0  0  0  0
    2.1872   -6.5107   27.2655 C   0  0  0  0  0  0  0  0  0  0  0  0
    1.8797   -2.8438   27.2230 C   0  0  0  0  0  0  0  0  0  0  0  0
    5.7257   -8.7589   24.3083 B   0  0  0  0  0  0  0  0  0  0  0  0
    9.8708   -6.5000   28.1380 C   0  0  0  0  0  0  0  0  0  0  0  0
    0.9072   -3.6667   27.7690 C   0  0  0  0  0  0  0  0  0  0  0  0
    3.6961   -7.9455   22.1040 C   0  0  0  0  0  0  0  0  0  0  0  0
   -1.3499   -4.3692   27.0352 N   0  0  0  0  0  0  0  0  0  0  0  0
   -1.1902   -5.6904   27.5598 C   0  0  0  0  0  0  0  0  0  0  0  0
    4.3226   -9.0612   21.6965 C   0  0  0  0  0  0  0  0  0  0  0  0
    5.7841   -9.9656   23.0914 S   0  0  0  0  0  0  0  0  0  0  0  0
   -1.5248   -6.6488   28.0340 O   0  0  0  0  0  0  0  0  0  0  0  0
    9.8880   -8.1082   26.5268 C   0  0  0  0  0  0  0  0  0  0  0  0
    5.5161   -6.0113   27.2168 C   0  0  0  0  0  0  0  0  0  0  0  0
    3.1942   -4.0623   28.1375 C   0  0  0  0  0  0  0  0  0  0  0  0
    9.3110   -7.4106   27.9560 C   0  0  0  0  0  0  0  0  0  0  0  0
    7.8240   -8.1822   26.6616 N   0  0  0  0  0  0  0  0  0  0  0  0
    5.0851   -7.8454   25.7803 C   0  0  0  0  0  0  0  0  0  0  0  0
    4.6678   -9.6892   20.9171 C   0  0  0  0  0  0  0  0  0  0  0  0
    7.6533   -7.2354   27.1974 C   0  0  0  0  0  0  0  0  0  0  0  0
    0.4857   -5.5161   27.0010 C   0  0  0  0  0  0  0  0  0  0  0  0
    3.2894   -4.9007   26.3982 C   0  0  0  0  0  0  0  0  0  0  0  0
    4.6343   -9.2116   19.9394 He  0  0  0  0  0  0  0  0  0  0  0  0
    3.8756   -6.0855   27.4253 He  0  0  0  0  0  0  0  0  0  0  0  0
    3.7494   -8.5736   20.9296 He  0  0  0  0  0  0  0  0  0  0  0  0
    1.6860   -7.0883   27.6754 He  0  0  0  0  0  0  0  0  0  0  0  0
    2.3998   -8.6775   20.6540 He  0  0  0  0  0  0  0  0  0  0  0  0
    4.7124   -5.3481   28.3556 He  0  0  0  0  0  0  0  0  0  0  0  0
  1  3  1  0
  1  8  3  0
  1 18  4  0
  1 20  4  0
  2  6  1  0
  2 11  1  0
  2 15  4  0
  2 18  3  0
  2 19  3  0
  2 22  4  0
  3  6  1  0
  3  7  4  0
  3 13  2  0
  3 15  1  0
  3 17  3  0
  4  7  3  0
  4 10  3  0
  4 16  4  0
  4 17  1  0
  4 19  2  0
  4 20  4  0
  4 21  3  0
  5  6  1  0
  5 11  4  0
  5 16  2  0
  6  7  3  0
  6 15  2  0
  6 17  3  0
  6 19  1  0
  6 21  4  0
  7  9  2  0
  7 10  2  0
  7 11  3  0
  7 12  3  0
  7 16  3  0
  7 18  4  0
  7 21  1  0
  8  9  1  0
  8 10  1  0
  8 11  2  0
  8 15  3  0
  8 16  4  0
  8 17  2  0
  8 19  1  0
  8 22  3  0
  9 10  4  0
  9 12  2  0
  9 16  1  0
  9 19  3  0
  9 21  1  0
  9 22  3  0
 10 12  3  0
 10 13  4  0
 10 18  2  0
 10 20  2  0
 10 21  4  0
 11 12  3  0
 11 13  1  0
 11 16  4  0
 11 22  3  0
 12 15  4  0
 12 16  1  0
 12 17  3  0
 12 18  1  0
 13 16  1  0
 13 21  3  0
 14 20  4  0
 15 19  3  0
 15 21  2  0
 15 22  4  0
 16 17  2  0
 16 22  3  0
 17 19  1  0
 17 20  1  0
 17 22  1  0
 21 22  4  0
M  END
$$$$

 Created by Python create_sdf_string function

 28 21  0  0  0  0  0  0  0  0999 V2000
    5.6494   -7.9601   26.3919 C   0  0  0  0  0  0  0  0  0  0  0  0
    2.3928   -6.2271   27.0191 C   0  0  0  0  0  0  0  0  0  0  0  0
    4.6067   -9.0775   20.1348 C   0  0  0  0  0  0  0  0  0  0  0  0
    4.2755   -6.0987   27.1117 C   0  0  0  0  0  0  0  0  0  0  0  0
    1.7951   -3.0877   27.4449 C   0  0  0  0  0  0  0  0  0  0  0  0
    5.2023   -8.2981   24.4281 C   0  0  0  0  0  0  0  0  0  0  0  0
    9.6320   -6.4829   28.2364 O   0  0  0  0  0  0  0  0  0  0  0  0
    1.0325   -3.8012   27.4099 C   0  0  0  0  0  0  0  0  0  0  0  0
    4.5606   -8.0957   22.5928 C   0  0  0  0  0  0  0  0  0  0  0  0
   -1.7170   -4.6215   26.9928 N   0  0  0  0  0  0  0  0  0  0  0  0
   -0.8813   -5.5122   27.4974 C   0  0  0  0  0  0  0  0  0  0  0  0
    4.5746   -8.7819   21.3373 C   0  0  0  0  0  0  0  0  0  0  0  0
    5.1203   -8.4029   22.7395 C   0  0  0  0  0  0  0  0  0  0  0  0
   -1.3099   -6.4324   28.0845 O   0  0  0  0  0  0  0  0  0  0  0  0
   10.2022   -8.1927   26.6980 C   0  0  0  0  0  0  0  0  0  0  0  0
    6.4105   -6.2729   27.7838 C   0  0  0  0  0  0  0  0  0  0  0  0
    2.7929   -3.9197   27.4199 C   0  0  0  0  0  0  0  0  0  0  0  0
    9.1712   -7.5264   27.5330 C   0  0  0  0  0  0  0  0  0  0  0  0
    4.4930   -8.8728   20.9304 C   0  0  0  0  0  0  0  0  0  0  0  0
    1.3150   -6.5616   27.0216 C   0  0  0  0  0  0  0  0  0  0  0  0
    8.0342   -7.8706   27.2548 N   0  0  0  0  0  0  0  0  0  0  0  0
    4.7629   -7.5486   26.0575 C   0  0  0  0  0  0  0  0  0  0  0  0
    4.5705   -8.9115   20.8028 C   0  0  0  0  0  0  0  0  0  0  0  0
    4.1100   -9.0544   20.5824 C   0  0  0  0  0  0  0  0  0  0  0  0
    5.2888   -5.7381   27.7626 C   0  0  0  0  0  0  0  0  0  0  0  0
    6.8365   -7.3145   27.2229 C   0  0  0  0  0  0  0  0  0  0  0  0
    0.5704   -5.1238   27.3619 C   0  0  0  0  0  0  0  0  0  0  0  0
    3.0438   -5.2538   27.2211 C   0  0  0  0  0  0  0  0  0  0  0  0
  1 22  4  0
  1 26  4  0
  2 20  4  0
  2 28  4  0
  4 22  4  0
  4 25  4  0
  4 28  1  0
  5  8  4  0
  5 17  4  0
  7 18  2  0
  8 27  4  0
 10 11  1  0
 11 14  2  0
 11 27  1  0
 15 18  1  0
 16 25  4  0
 16 26  4  0
 17 28  4  0
 18 21  1  0
 20 27  4  0
 21 26  1  0
M  END
$$$$

 Created by Python create_sdf_string function

 28 51  0  0  0  0  0  0  0  0999 V2000
    2.3813   -6.6130   26.7896 C   0  0  0  0  0  0  0  0  0  0  0  0
    3.8871   -6.4257   27.5903 C   0  0  0  0  0  0  0  0  0  0  0  0
    5.9325   -7.4542   24.8401 N   0  0  0  0  0  0  0  0  0  0  0  0
    8.6220   -6.4652   27.4761 O   0  0  0  0  0  0  0  0  0  0  0  0
    0.6588   -3.3775   26.6950 C   0  0  0  0  0  0  0  0  0  0  0  0
   -1.3902   -4.1735   27.5630 N   0  0  0  0  0  0  0  0  0  0  0  0
   -0.9240   -5.7539   28.1681 C   0  0  0  0  0  0  0  0  0  0  0  0
    3.8858   -8.0981   21.3383 Cl  0  0  0  0  0  0  0  0  0  0  0  0
   -1.6001   -5.9522   27.9236 O   0  0  0  0  0  0  0  0  0  0  0  0
    6.1264   -5.9718   27.5414 C   0  0  0  0  0  0  0  0  0  0  0  0
    2.2803   -4.5676   27.7769 C   0  0  0  0  0  0  0  0  0  0  0  0
    9.2476   -8.2202   26.3475 C   0  0  0  0  0  0  0  0  0  0  0  0
    5.1397   -7.4903   20.8012 F   0  0  0  0  0  0  0  0  0  0  0  0
    7.9401   -8.0293   27.4069 N   0  0  0  0  0  0  0  0  0  0  0  0
    5.2987   -7.6168   25.8160 P   0  0  0  0  0  0  0  0  0  0  0  0
    3.4485   -8.4257   19.6202 O   0  0  0  0  0  0  0  0  0  0  0  0
    4.9983   -5.1599   28.0783 P   0  0  0  0  0  0  0  0  0  0  0  0
    6.9004   -7.5144   26.8691 C   0  0  0  0  0  0  0  0  0  0  0  0
   -0.0975   -5.0285   27.9331 C   0  0  0  0  0  0  0  0  0  0  0  0
    3.2688   -5.8021   27.8141 C   0  0  0  0  0  0  0  0  0  0  0  0
    5.0863   -7.8938   25.7942 He  0  0  0  0  0  0  0  0  0  0  0  0
    5.7080   -8.2645   20.2614 He  0  0  0  0  0  0  0  0  0  0  0  0
    1.9988   -3.0596   27.4563 He  0  0  0  0  0  0  0  0  0  0  0  0
    3.5835   -7.1759   23.4423 He  0  0  0  0  0  0  0  0  0  0  0  0
    3.7217   -7.4423   21.4414 He  0  0  0  0  0  0  0  0  0  0  0  0
   10.1355   -7.9389   26.8873 He  0  0  0  0  0  0  0  0  0  0  0  0
    2.2665   -7.4666   25.2133 He  0  0  0  0  0  0  0  0  0  0  0  0
    4.2583   -8.7265   19.2450 He  0  0  0  0  0  0  0  0  0  0  0  0
  1  4  1  0
  1 14  1  0
  1 20  4  0
  2  3  1  0
  2 15  4  0
  2 16  3  0
  3  5  2  0
  3  7  4  0
  3 10  2  0
  3 15  2  0
  4 12  2  0
  4 13  3  0
  4 14  2  0
  4 16  1  0
  4 18  3  0
  5  9  3  0
  5 10  3  0
  5 16  2  0
  5 19  4  0
  5 20  1  0
  6  7  1  0
  6  8  4  0
  6 11  3  0
  6 17  2  0
  6 18  1  0
  7  9  2  0
  7 13  2  0
  7 14  1  0
  7 16  3  0
  7 19  1  0
  8 10  4  0
  8 16  4  0
  8 18  4  0
  9 11  3  0
  9 16  1  0
  9 17  3  0
  9 18  2  0
  9 19  3  0
 10 16  1  0
 10 17  4  0
 10 18  4  0
 10 19  3  0
 11 17  4  0
 11 19  3  0
 13 18  2  0
 13 19  1  0
 13 20  2  0
 14 16  4  0
 14 17  3  0
 14 18  1  0
 16 18  4  0
M  END
$$$$

 Created by Python create_sdf_string function

 28 23  0  0  0  0  0  0  0  0999 V2000
    5.0783   -7.6867   26.0840 C   0  0  0  0  0  0  0  0  0  0  0  0
    1.3573   -6.0564   27.3517 C   0  0  0  0  0  0  0  0  0  0  0  0
    5.5707   -8.5839   19.7451 C   0  0  0  0  0  0  0  0  0  0  0  0
    3.9639   -6.3760   27.1646 C   0  0  0  0  0  0  0  0  0  0  0  0
    2.0147   -3.3135   27.4281 C   0  0  0  0  0  0  0  0  0  0  0  0
    5.2173   -8.0390   25.4051 N   0  0  0  0  0  0  0  0  0  0  0  0
    9.2255   -6.5329   27.6067 O   0  0  0  0  0  0  0  0  0  0  0  0
    0.7191   -3.6566   27.2846 C   0  0  0  0  0  0  0  0  0  0  0  0
    4.2534   -7.5255   23.9199 C   0  0  0  0  0  0  0  0  0  0  0  0
   -1.9273   -4.2623   27.4858 N   0  0  0  0  0  0  0  0  0  0  0  0
   -1.0237   -5.2440   27.6856 C   0  0  0  0  0  0  0  0  0  0  0  0
    4.7392   -8.3551   20.8707 C   0  0  0  0  0  0  0  0  0  0  0  0
    4.6259   -8.2944   21.1862 C   0  0  0  0  0  0  0  0  0  0  0  0
   -1.5579   -6.2409   28.0995 O   0  0  0  0  0  0  0  0  0  0  0  0
   10.3658   -8.2826   26.7827 C   0  0  0  0  0  0  0  0  0  0  0  0
    6.3057   -6.1781   27.6886 C   0  0  0  0  0  0  0  0  0  0  0  0
    2.9560   -4.2456   27.6516 C   0  0  0  0  0  0  0  0  0  0  0  0
    9.0200   -7.6753   27.0761 C   0  0  0  0  0  0  0  0  0  0  0  0
    5.2805   -8.5060   20.4512 C   0  0  0  0  0  0  0  0  0  0  0  0
    3.0654   -7.5233   25.8049 C   0  0  0  0  0  0  0  0  0  0  0  0
    7.8677   -7.9725   26.9678 N   0  0  0  0  0  0  0  0  0  0  0  0
    4.9051   -7.7252   26.1611 C   0  0  0  0  0  0  0  0  0  0  0  0
    4.6234   -8.6691   19.7337 C   0  0  0  0  0  0  0  0  0  0  0  0
    4.9160   -8.7734   19.3107 C   0  0  0  0  0  0  0  0  0  0  0  0
    4.9849   -5.5218   27.8762 C   0  0  0  0  0  0  0  0  0  0  0  0
    6.7173   -7.1674   27.0730 C   0  0  0  0  0  0  0  0  0  0  0  0
    0.3363   -4.9994   27.4613 C   0  0  0  0  0  0  0  0  0  0  0  0
    2.6182   -5.6155   27.4159 C   0  0  0  0  0  0  0  0  0  0  0  0
  1 22  4  0
  2 27  4  0
  2 28  4  0
  3 19  4  0
  3 24  4  0
  4 22  4  0
  4 25  4  0
  4 28  1  0
  5  8  4  0
  5 17  4  0
  7 18  2  0
  8 27  4  0
 10 11  1  0
 11 14  2  0
 11 27  1  0
 12 13  4  0
 12 23  4  0
 15 18  1  0
 16 25  4  0
 16 26  4  0
 17 28  4  0
 18 21  1  0
 21 26  1  0
M  END
$$$$

 Created by Python create_sdf_string function

 28 69  0  0  0  0  0  0  0  0999 V2000
    4.6896   -8.0539   26.1702 O   0  0  0  0  0  0  0  0  0  0  0  0
    2.0991   -6.1537   26.5510 Se  0  0  0  0  0  0  0  0  0  0  0  0
    3.6557   -6.6874   26.9413 C   0  0  0  0  0  0  0  0  0  0  0  0
    2.0893   -3.4655   27.3147 C   0  0  0  0  0  0  0  0  0  0  0  0
    5.9373   -7.7549   26.1898 C   0  0  0  0  0  0  0  0  0  0  0  0
    9.4980   -6.6708   27.6069 O   0  0  0  0  0  0  0  0  0  0  0  0
    0.6383   -3.3082   27.9556 C   0  0  0  0  0  0  0  0  0  0  0  0
    4.4678   -8.0776   25.0065 C   0  0  0  0  0  0  0  0  0  0  0  0
   -1.8560   -4.2298   27.5214 N   0  0  0  0  0  0  0  0  0  0  0  0
   -1.0941   -4.9635   28.1299 C   0  0  0  0  0  0  0  0  0  0  0  0
   -1.5912   -6.3934   28.1286 O   0  0  0  0  0  0  0  0  0  0  0  0
   10.1968   -7.9351   27.0406 C   0  0  0  0  0  0  0  0  0  0  0  0
    6.3973   -5.9595   27.4739 C   0  0  0  0  0  0  0  0  0  0  0  0
    3.0924   -4.4566   27.6218 C   0  0  0  0  0  0  0  0  0  0  0  0
    9.1858   -8.3092   27.2759 C   0  0  0  0  0  0  0  0  0  0  0  0
    3.8401   -8.8274   19.6595 Br  0  0  0  0  0  0  0  0  0  0  0  0
    2.6509   -6.4764   26.0791 N   0  0  0  0  0  0  0  0  0  0  0  0
    7.6297   -7.8082   27.2473 N   0  0  0  0  0  0  0  0  0  0  0  0
    4.6495   -7.6793   26.6936 C   0  0  0  0  0  0  0  0  0  0  0  0
    5.4432   -5.9588   28.0859 C   0  0  0  0  0  0  0  0  0  0  0  0
    6.9268   -7.0656   27.1817 C   0  0  0  0  0  0  0  0  0  0  0  0
    2.7436   -6.2045   26.8764 C   0  0  0  0  0  0  0  0  0  0  0  0
    7.0718   -9.0930   17.7707 He  0  0  0  0  0  0  0  0  0  0  0  0
    4.5125  -10.0297   22.4542 He  0  0  0  0  0  0  0  0  0  0  0  0
    5.0056   -7.9202   22.8104 He  0  0  0  0  0  0  0  0  0  0  0  0
    4.7613   -7.9746   18.1582 He  0  0  0  0  0  0  0  0  0  0  0  0
    5.4554   -8.8019   20.3217 He  0  0  0  0  0  0  0  0  0  0  0  0
    0.2786   -5.4071   27.5249 He  0  0  0  0  0  0  0  0  0  0  0  0
  1  8  1  0
  1 10  4  0
  1 19  3  0
  2  4  1  0
  2  7  2  0
  2  8  4  0
  2  9  1  0
  2 10  1  0
  2 11  2  0
  2 12  1  0
  2 16  2  0
  2 17  4  0
  3  7  4  0
  3  8  2  0
  3 15  3  0
  3 20  4  0
  3 22  1  0
  4  5  1  0
  4  7  4  0
  4  8  1  0
  4  9  4  0
  4 14  4  0
  4 16  3  0
  5  9  1  0
  5 11  1  0
  5 12  2  0
  5 15  2  0
  5 19  4  0
  5 21  4  0
  6 13  1  0
  6 14  1  0
  6 15  2  0
  7 19  3  0
  8  9  4  0
  8 10  3  0
  8 12  3  0
  8 14  4  0
  8 17  3  0
  8 22  3  0
  9 13  3  0
  9 17  3  0
  9 19  3  0
  9 21  1  0
 10 11  2  0
 10 12  4  0
 10 15  3  0
 10 17  3  0
 10 18  2  0
 11 16  2  0
 11 18  2  0
 11 20  1  0
 12 15  4  0
 13 21  4  0
 14 16  2  0
 14 17  2  0
 15 16  3  0
 15 17  1  0
 15 18  1  0
 15 19  4  0
 15 20  3  0
 15 21  4  0
 16 18  3  0
 16 19  1  0
 16 22  4  0
 17 20  4  0
 17 21  2  0
 18 21  1  0
 18 22  4  0
 19 21  3  0
M  END
$$$$

 Created by Python create_sdf_string function

 28 26  0  0  0  0  0  0  0  0999 V2000
    4.2950   -8.2751   25.5186 O   0  0  0  0  0  0  0  0  0  0  0  0
    0.9873   -6.1968   26.9517 C   0  0  0  0  0  0  0  0  0  0  0  0
    6.1750   -8.4670   18.6439 C   0  0  0  0  0  0  0  0  0  0  0  0
    4.3118   -6.4260   27.1184 C   0  0  0  0  0  0  0  0  0  0  0  0
    2.0016   -3.5080   27.5678 C   0  0  0  0  0  0  0  0  0  0  0  0
    5.9358   -7.8038   26.3354 C   0  0  0  0  0  0  0  0  0  0  0  0
    9.5123   -6.5198   27.7685 O   0  0  0  0  0  0  0  0  0  0  0  0
    0.6778   -3.5964   27.6663 C   0  0  0  0  0  0  0  0  0  0  0  0
    4.7284   -8.0931   24.0474 C   0  0  0  0  0  0  0  0  0  0  0  0
   -1.9722   -4.3480   27.4470 O   0  0  0  0  0  0  0  0  0  0  0  0
   -1.1267   -5.2454   27.6771 C   0  0  0  0  0  0  0  0  0  0  0  0
    5.3012   -8.4643   20.2919 C   0  0  0  0  0  0  0  0  0  0  0  0
    5.3149   -8.1860   21.8701 C   0  0  0  0  0  0  0  0  0  0  0  0
   -1.4785   -6.1359   28.1614 O   0  0  0  0  0  0  0  0  0  0  0  0
   10.4481   -8.4496   26.9085 C   0  0  0  0  0  0  0  0  0  0  0  0
    6.5256   -6.1354   27.8960 C   0  0  0  0  0  0  0  0  0  0  0  0
    2.9047   -4.5011   27.3539 C   0  0  0  0  0  0  0  0  0  0  0  0
    9.1798   -7.6587   27.2880 C   0  0  0  0  0  0  0  0  0  0  0  0
    5.2639   -8.6045   19.5644 C   0  0  0  0  0  0  0  0  0  0  0  0
    2.3233   -6.5976   26.5531 C   0  0  0  0  0  0  0  0  0  0  0  0
    8.0504   -7.9919   27.1964 N   0  0  0  0  0  0  0  0  0  0  0  0
    4.8378   -7.5082   26.2630 C   0  0  0  0  0  0  0  0  0  0  0  0
    5.4148   -8.5446   18.3019 C   0  0  0  0  0  0  0  0  0  0  0  0
    5.5840   -8.5252   19.7302 C   0  0  0  0  0  0  0  0  0  0  0  0
    5.1990   -5.7990   27.9118 C   0  0  0  0  0  0  0  0  0  0  0  0
    6.9290   -7.2167   27.1604 C   0  0  0  0  0  0  0  0  0  0  0  0
    0.3212   -4.9968   27.4203 C   0  0  0  0  0  0  0  0  0  0  0  0
    3.0637   -5.7999   27.0653 C   0  0  0  0  0  0  0  0  0  0  0  0
  1  9  1  0
  1 22  4  0
  2 20  4  0
  2 27  4  0
  3 23  4  0
  3 24  4  0
  4 22  4  0
  4 25  4  0
  4 28  1  0
  5  8  4  0
  5 17  4  0
  6 22  4  0
  6 26  4  0
  7 18  2  0
  8 27  4  0
 10 11  1  0
 11 14  2  0
 11 27  1  0
 12 19  4  0
 15 18  1  0
 16 25  4  0
 16 26  4  0
 17 28  4  0
 18 21  1  0
 20 28  4  0
 21 26  1  0
M  END
$$$$

 Created by Python create_sdf_string function

 28 44  0  0  0  0  0  0  0  0999 V2000
    4.2780   -7.8282   26.1254 O   0  0  0  0  0  0  0  0  0  0  0  0
    4.2991   -7.0523   26.4619 C   0  0  0  0  0  0  0  0  0  0  0  0
    8.4433   -7.5357   26.5511 O   0  0  0  0  0  0  0  0  0  0  0  0
    9.1693   -6.5868   27.8222 Cl  0  0  0  0  0  0  0  0  0  0  0  0
    0.8377   -2.9630   27.4614 C   0  0  0  0  0  0  0  0  0  0  0  0
   -0.6515   -5.3781   27.9791 C   0  0  0  0  0  0  0  0  0  0  0  0
    1.9963   -9.9792   20.0858 Cl  0  0  0  0  0  0  0  0  0  0  0  0
    6.3417   -8.8692   21.6422 F   0  0  0  0  0  0  0  0  0  0  0  0
   -1.2688   -5.9299   28.5882 O   0  0  0  0  0  0  0  0  0  0  0  0
   10.6745   -7.9688   25.9417 C   0  0  0  0  0  0  0  0  0  0  0  0
    6.7138   -6.3641   27.6934 C   0  0  0  0  0  0  0  0  0  0  0  0
    2.6507   -5.1314   27.3021 C   0  0  0  0  0  0  0  0  0  0  0  0
    8.8256   -8.0154   27.1742 C   0  0  0  0  0  0  0  0  0  0  0  0
    8.3186   -7.8774   27.2815 O   0  0  0  0  0  0  0  0  0  0  0  0
    4.6239   -7.0720   25.8638 C   0  0  0  0  0  0  0  0  0  0  0  0
    7.2440   -7.2231   26.7031 C   0  0  0  0  0  0  0  0  0  0  0  0
    1.1001   -5.1472   27.5480 Se  0  0  0  0  0  0  0  0  0  0  0  0
    3.7019   -5.9226   26.5038 C   0  0  0  0  0  0  0  0  0  0  0  0
    0.4352   -6.0617   26.3927 He  0  0  0  0  0  0  0  0  0  0  0  0
    5.4740   -8.5938   16.7681 He  0  0  0  0  0  0  0  0  0  0  0  0
    1.5885   -3.4674   26.9619 He  0  0  0  0  0  0  0  0  0  0  0  0
    6.1906   -7.8281   22.7605 He  0  0  0  0  0  0  0  0  0  0  0  0
   -1.4813   -4.1206   27.0565 He  0  0  0  0  0  0  0  0  0  0  0  0
    5.8575   -8.8322   20.0650 He  0  0  0  0  0  0  0  0  0  0  0  0
    1.9528   -6.7571   28.1917 He  0  0  0  0  0  0  0  0  0  0  0  0
    6.4454   -9.8079   17.9603 He  0  0  0  0  0  0  0  0  0  0  0  0
    4.4328   -9.3052   19.5572 He  0  0  0  0  0  0  0  0  0  0  0  0
    5.0545   -5.6381   27.1172 He  0  0  0  0  0  0  0  0  0  0  0  0
  1  8  4  0
  1 10  1  0
  1 15  4  0
  2  4  3  0
  2 15  4  0
  2 17  4  0
  2 18  1  0
  3  5  4  0
  3  7  2  0
  3  8  1  0
  3  9  3  0
  3 10  3  0
  3 11  1  0
  3 13  2  0
  3 15  2  0
  3 17  3  0
  4  5  2  0
  4  6  3  0
  4  7  3  0
  4  9  4  0
  4 13  2  0
  5  8  1  0
  5 17  4  0
  6  9  2  0
  6 18  3  0
  7  8  2  0
  7 10  1  0
  7 11  1  0
  7 12  3  0
  7 14  4  0
  8 11  2  0
  8 12  3  0
  8 13  3  0
  8 15  2  0
  8 17  2  0
  9 17  3  0
 10 13  1  0
 10 15  2  0
 11 12  4  0
 11 16  4  0
 12 13  1  0
 12 16  3  0
 12 18  1  0
 14 16  1  0
M  END
$$$$

 Created by Python create_sdf_string function

 28 22  0  0  0  0  0  0  0  0999 V2000
    5.0507   -7.6731   25.8109 C   0  0  0  0  0  0  0  0  0  0  0  0
    0.8719   -6.0702   26.9700 C   0  0  0  0  0  0  0  0  0  0  0  0
    5.1401   -9.0790   17.6533 C   0  0  0  0  0  0  0  0  0  0  0  0
    4.5541   -6.7297   26.4908 C   0  0  0  0  0  0  0  0  0  0  0  0
    2.3589   -3.8660   27.0510 C   0  0  0  0  0  0  0  0  0  0  0  0
    8.2546   -7.8753   26.5755 C   0  0  0  0  0  0  0  0  0  0  0  0
    9.4437   -6.8218   27.8968 O   0  0  0  0  0  0  0  0  0  0  0  0
    0.9915   -3.6145   27.2486 C   0  0  0  0  0  0  0  0  0  0  0  0
    5.6114   -8.4785   22.4605 C   0  0  0  0  0  0  0  0  0  0  0  0
   -1.8599   -4.1530   27.2840 O   0  0  0  0  0  0  0  0  0  0  0  0
   -1.0149   -5.0164   27.7404 C   0  0  0  0  0  0  0  0  0  0  0  0
    4.1917   -9.9913   18.0954 C   0  0  0  0  0  0  0  0  0  0  0  0
    5.4308   -9.0027   19.9198 C   0  0  0  0  0  0  0  0  0  0  0  0
   -1.4435   -5.9693   28.3846 O   0  0  0  0  0  0  0  0  0  0  0  0
   10.7301   -8.1838   26.3091 C   0  0  0  0  0  0  0  0  0  0  0  0
    6.4566   -6.2424   27.4075 C   0  0  0  0  0  0  0  0  0  0  0  0
    2.8562   -5.1064   26.9908 C   0  0  0  0  0  0  0  0  0  0  0  0
    9.6447   -7.7769   27.0137 C   0  0  0  0  0  0  0  0  0  0  0  0
    5.6351   -9.0094   19.3462 C   0  0  0  0  0  0  0  0  0  0  0  0
    2.0409   -6.2990   27.0686 C   0  0  0  0  0  0  0  0  0  0  0  0
    7.9690   -7.9115   27.0230 O   0  0  0  0  0  0  0  0  0  0  0  0
    5.0940   -7.6102   25.9570 C   0  0  0  0  0  0  0  0  0  0  0  0
    5.8993   -8.9736   18.0445 C   0  0  0  0  0  0  0  0  0  0  0  0
    4.8924   -9.4869   18.7010 C   0  0  0  0  0  0  0  0  0  0  0  0
    5.3051   -5.5647   27.4930 C   0  0  0  0  0  0  0  0  0  0  0  0
    6.8369   -7.2439   26.8845 C   0  0  0  0  0  0  0  0  0  0  0  0
    0.3746   -4.8506   27.2927 C   0  0  0  0  0  0  0  0  0  0  0  0
    3.5953   -5.8710   26.6417 C   0  0  0  0  0  0  0  0  0  0  0  0
  1 22  4  0
  2 20  4  0
  2 27  4  0
  3 12  4  0
  3 23  4  0
  4 22  4  0
  4 28  1  0
  5  8  4  0
  5 17  4  0
  7 18  2  0
  8 27  4  0
 10 11  1  0
 11 14  2  0
 11 27  1  0
 12 24  4  0
 13 19  4  0
 15 18  1  0
 16 25  4  0
 16 26  4  0
 17 20  4  0
 17 28  1  0
 21 26  1  0
M  END
$$$$

 Created by Python create_sdf_string function

 28 45  0  0  0  0  0  0  0  0999 V2000
    4.9344   -8.4733   25.5972 C   0  0  0  0  0  0  0  0  0  0  0  0
    0.8533   -6.3864   26.7419 C   0  0  0  0  0  0  0  0  0  0  0  0
    4.7460   -6.1695   26.7629 C   0  0  0  0  0  0  0  0  0  0  0  0
    1.9392   -3.6686   27.1507 C   0  0  0  0  0  0  0  0  0  0  0  0
    7.5515   -9.4176   27.0585 C   0  0  0  0  0  0  0  0  0  0  0  0
    1.3209   -3.7711   27.2604 B   0  0  0  0  0  0  0  0  0  0  0  0
   -1.9847   -3.4210   27.3027 O   0  0  0  0  0  0  0  0  0  0  0  0
   -1.0394   -4.9797   27.4385 C   0  0  0  0  0  0  0  0  0  0  0  0
   -1.8026   -6.1754   27.8781 C   0  0  0  0  0  0  0  0  0  0  0  0
   10.7926   -8.6040   26.0292 C   0  0  0  0  0  0  0  0  0  0  0  0
    6.5409   -6.4886   26.9337 C   0  0  0  0  0  0  0  0  0  0  0  0
    2.8027   -4.7388   26.5175 C   0  0  0  0  0  0  0  0  0  0  0  0
    8.7779   -7.9371   27.2811 C   0  0  0  0  0  0  0  0  0  0  0  0
    5.5843  -10.1912   19.0142 C   0  0  0  0  0  0  0  0  0  0  0  0
    7.8673   -7.9418   27.3351 O   0  0  0  0  0  0  0  0  0  0  0  0
    6.2742   -9.6274   17.0566 Br  0  0  0  0  0  0  0  0  0  0  0  0
    6.6164   -7.2948   27.2637 C   0  0  0  0  0  0  0  0  0  0  0  0
    0.3838   -4.9880   27.4951 Cl  0  0  0  0  0  0  0  0  0  0  0  0
    3.6415   -6.5297   27.0393 S   0  0  0  0  0  0  0  0  0  0  0  0
    5.3462   -8.7395   16.4786 He  0  0  0  0  0  0  0  0  0  0  0  0
    9.5004   -6.3214   27.8163 He  0  0  0  0  0  0  0  0  0  0  0  0
    4.2696   -9.6374   22.5007 He  0  0  0  0  0  0  0  0  0  0  0  0
    3.1924  -10.8135   17.4128 He  0  0  0  0  0  0  0  0  0  0  0  0
    4.6894  -11.5780   20.5203 He  0  0  0  0  0  0  0  0  0  0  0  0
    0.9293   -6.9306   26.6128 He  0  0  0  0  0  0  0  0  0  0  0  0
    4.6675   -7.5125   26.2912 He  0  0  0  0  0  0  0  0  0  0  0  0
    6.4693  -10.8587   20.2754 He  0  0  0  0  0  0  0  0  0  0  0  0
    5.6037   -5.3057   27.2895 He  0  0  0  0  0  0  0  0  0  0  0  0
  1  6  1  0
  1 14  2  0
  2  3  2  0
  2  5  2  0
  2  9  4  0
  2 14  4  0
  2 18  4  0
  3 13  1  0
  3 15  2  0
  3 18  3  0
  4  6  4  0
  4  8  2  0
  4 12  4  0
  4 16  3  0
  5  6  3  0
  5  7  4  0
  5  8  1  0
  5 10  2  0
  5 12  4  0
  5 14  1  0
  5 15  4  0
  5 16  3  0
  5 17  4  0
  7  8  1  0
  7 10  3  0
  7 14  4  0
  8  9  2  0
  8 14  3  0
  8 18  1  0
  9 14  3  0
  9 17  3  0
  9 19  3  0
 10 13  1  0
 10 17  3  0
 11 14  3  0
 11 17  4  0
 12 14  4  0
 12 16  1  0
 12 19  1  0
 14 18  2  0
 15 16  2  0
 15 17  1  0
 16 17  2  0
 16 18  4  0
 16 19  2  0
M  END
$$$$

 Created by Python create_sdf_string function

 28 26  0  0  0  0  0  0  0  0999 V2000
    5.3782   -8.2655   25.6284 C   0  0  0  0  0  0  0  0  0  0  0  0
    0.6003   -6.1890   27.0507 C   0  0  0  0  0  0  0  0  0  0  0  0
    5.0267   -9.3029   17.1207 C   0  0  0  0  0  0  0  0  0  0  0  0
    4.6031   -6.4101   26.7212 C   0  0  0  0  0  0  0  0  0  0  0  0
    2.2578   -3.9695   27.0109 C   0  0  0  0  0  0  0  0  0  0  0  0
    6.3886   -8.3530   26.1555 C   0  0  0  0  0  0  0  0  0  0  0  0
    9.6316   -6.5628   27.7324 O   0  0  0  0  0  0  0  0  0  0  0  0
    0.9275   -3.7125   27.1614 C   0  0  0  0  0  0  0  0  0  0  0  0
    5.2382   -9.4307   19.9908 C   0  0  0  0  0  0  0  0  0  0  0  0
   -1.8339   -3.6916   27.3894 O   0  0  0  0  0  0  0  0  0  0  0  0
   -1.2126   -4.7821   27.4935 C   0  0  0  0  0  0  0  0  0  0  0  0
    3.9830  -10.1568   17.5651 C   0  0  0  0  0  0  0  0  0  0  0  0
    4.3355  -10.4504   18.4949 C   0  0  0  0  0  0  0  0  0  0  0  0
   -1.9410   -5.7398   27.8637 O   0  0  0  0  0  0  0  0  0  0  0  0
   10.4986   -8.4120   26.7090 C   0  0  0  0  0  0  0  0  0  0  0  0
    6.5683   -6.2684   27.3933 C   0  0  0  0  0  0  0  0  0  0  0  0
    2.6357   -5.2857   26.9373 C   0  0  0  0  0  0  0  0  0  0  0  0
    9.3153   -7.6940   27.2832 C   0  0  0  0  0  0  0  0  0  0  0  0
    5.5054   -9.3000   18.2888 C   0  0  0  0  0  0  0  0  0  0  0  0
    1.8787   -6.2776   26.8593 C   0  0  0  0  0  0  0  0  0  0  0  0
    8.0377   -8.0848   27.3659 N   0  0  0  0  0  0  0  0  0  0  0  0
    4.6934   -7.5427   26.1569 C   0  0  0  0  0  0  0  0  0  0  0  0
    5.6847   -9.2228   18.8068 C   0  0  0  0  0  0  0  0  0  0  0  0
    5.7398   -9.5265   17.2679 C   0  0  0  0  0  0  0  0  0  0  0  0
    5.4613   -5.3666   27.4668 C   0  0  0  0  0  0  0  0  0  0  0  0
    6.8382   -7.4296   27.0094 C   0  0  0  0  0  0  0  0  0  0  0  0
    0.1710   -4.8994   27.2333 C   0  0  0  0  0  0  0  0  0  0  0  0
    3.6809   -5.7652   26.6894 N   0  0  0  0  0  0  0  0  0  0  0  0
  1  6  4  0
  1 22  4  0
  2 20  4  0
  2 27  4  0
  3 12  4  0
  3 24  4  0
  4 22  4  0
  4 25  4  0
  4 28  1  0
  5  8  4  0
  5 17  4  0
  6 26  4  0
  7 18  2  0
  8 27  4  0
 10 11  1  0
 11 14  2  0
 11 27  1  0
 12 13  4  0
 15 18  1  0
 16 25  4  0
 16 26  4  0
 17 20  4  0
 17 28  1  0
 18 21  1  0
 19 23  4  0
 21 26  1  0
M  END
$$$$

 Created by Python create_sdf_string function

 28 38  0  0  0  0  0  0  0  0999 V2000
    5.0230   -7.8182   25.8905 O   0  0  0  0  0  0  0  0  0  0  0  0
    0.7452   -6.9865   26.9655 C   0  0  0  0  0  0  0  0  0  0  0  0
    5.6749   -7.9045   16.6588 O   0  0  0  0  0  0  0  0  0  0  0  0
    2.7433   -3.2391   26.6579 Cl  0  0  0  0  0  0  0  0  0  0  0  0
   10.0782   -6.9100   27.7053 O   0  0  0  0  0  0  0  0  0  0  0  0
    4.3149  -10.4996   19.6450 N   0  0  0  0  0  0  0  0  0  0  0  0
   -1.7037   -3.7473   27.1779 O   0  0  0  0  0  0  0  0  0  0  0  0
    4.5273   -8.6990   18.1017 B   0  0  0  0  0  0  0  0  0  0  0  0
    4.3084  -10.1073   16.3737 C   0  0  0  0  0  0  0  0  0  0  0  0
   -2.2927   -6.2450   27.7627 O   0  0  0  0  0  0  0  0  0  0  0  0
    5.9678   -5.9597   27.4728 C   0  0  0  0  0  0  0  0  0  0  0  0
    3.0040   -6.0316   27.1604 S   0  0  0  0  0  0  0  0  0  0  0  0
    9.3030   -7.5566   27.7289 C   0  0  0  0  0  0  0  0  0  0  0  0
    8.1308   -8.4926   27.6374 C   0  0  0  0  0  0  0  0  0  0  0  0
    4.8550   -7.9119   26.1126 C   0  0  0  0  0  0  0  0  0  0  0  0
    5.9886   -8.2103   17.1807 B   0  0  0  0  0  0  0  0  0  0  0  0
    6.6019   -7.9456   26.8055 C   0  0  0  0  0  0  0  0  0  0  0  0
   -0.2612   -5.4923   27.8398 I   0  0  0  0  0  0  0  0  0  0  0  0
    4.0956   -5.5122   27.0389 N   0  0  0  0  0  0  0  0  0  0  0  0
    4.0239   -6.3557   26.6936 He  0  0  0  0  0  0  0  0  0  0  0  0
    7.9685   -8.8776   27.7773 He  0  0  0  0  0  0  0  0  0  0  0  0
    0.4860   -4.6684   27.6588 He  0  0  0  0  0  0  0  0  0  0  0  0
   -1.5810   -4.7665   27.7491 He  0  0  0  0  0  0  0  0  0  0  0  0
   10.4955   -9.0677   26.2692 He  0  0  0  0  0  0  0  0  0  0  0  0
    4.5521  -10.3457   17.7901 He  0  0  0  0  0  0  0  0  0  0  0  0
    0.8877   -5.6735   27.1681 He  0  0  0  0  0  0  0  0  0  0  0  0
    4.6280   -9.6562   19.2435 He  0  0  0  0  0  0  0  0  0  0  0  0
    5.7374   -5.0135   27.4318 He  0  0  0  0  0  0  0  0  0  0  0  0
  1  2  3  0
  1  8  3  0
  1 15  4  0
  1 18  2  0
  1 19  4  0
  2 18  4  0
  3  4  1  0
  3  5  4  0
  3  6  2  0
  3  9  2  0
  3 10  4  0
  3 12  1  0
  3 15  2  0
  3 19  2  0
  4  8  2  0
  4 12  4  0
  5 10  2  0
  5 13  2  0
  6  8  1  0
  6 12  4  0
  6 19  1  0
  7  9  4  0
  7 16  1  0
  7 17  1  0
  8 16  3  0
  8 17  3  0
  8 19  2  0
  9 10  2  0
  9 13  1  0
  9 15  3  0
  9 18  4  0
 10 12  1  0
 10 13  2  0
 12 19  1  0
 13 14  1  0
 13 16  2  0
 14 17  4  0
 16 17  4  0
M  END
$$$$

 Created by Python create_sdf_string function

 28 26  0  0  0  0  0  0  0  0999 V2000
    5.0687   -8.2055   25.9198 O   0  0  0  0  0  0  0  0  0  0  0  0
    0.5128   -6.4452   27.1994 C   0  0  0  0  0  0  0  0  0  0  0  0
    5.6951   -8.1451   16.7725 C   0  0  0  0  0  0  0  0  0  0  0  0
    4.7747   -6.3774   26.8588 C   0  0  0  0  0  0  0  0  0  0  0  0
    2.1855   -4.1932   27.0564 C   0  0  0  0  0  0  0  0  0  0  0  0
    8.4879   -8.3323   27.8383 C   0  0  0  0  0  0  0  0  0  0  0  0
    9.8624   -6.7831   27.8388 O   0  0  0  0  0  0  0  0  0  0  0  0
    0.8564   -4.0362   27.2824 C   0  0  0  0  0  0  0  0  0  0  0  0
    4.6168  -10.1139   18.1785 C   0  0  0  0  0  0  0  0  0  0  0  0
   -1.9037   -3.8189   27.2812 O   0  0  0  0  0  0  0  0  0  0  0  0
   -1.3896   -4.9422   27.5826 C   0  0  0  0  0  0  0  0  0  0  0  0
    4.8184   -9.0757   17.2464 C   0  0  0  0  0  0  0  0  0  0  0  0
    4.3955   -9.9981   16.4895 C   0  0  0  0  0  0  0  0  0  0  0  0
   -2.0975   -5.7827   28.0830 O   0  0  0  0  0  0  0  0  0  0  0  0
   10.5695   -8.4865   26.9568 C   0  0  0  0  0  0  0  0  0  0  0  0
    6.7764   -6.2542   27.5173 C   0  0  0  0  0  0  0  0  0  0  0  0
    2.6038   -5.5286   26.9876 C   0  0  0  0  0  0  0  0  0  0  0  0
    9.3613   -7.8127   27.4923 C   0  0  0  0  0  0  0  0  0  0  0  0
    4.3338  -10.2060   17.0994 C   0  0  0  0  0  0  0  0  0  0  0  0
    1.8595   -6.5704   27.0291 C   0  0  0  0  0  0  0  0  0  0  0  0
    8.0868   -8.1985   27.3862 C   0  0  0  0  0  0  0  0  0  0  0  0
    5.1441   -7.5553   26.3707 C   0  0  0  0  0  0  0  0  0  0  0  0
    5.3664   -9.2539   18.2907 C   0  0  0  0  0  0  0  0  0  0  0  0
    5.8633   -8.2097   17.3835 C   0  0  0  0  0  0  0  0  0  0  0  0
    5.6521   -5.6258   27.3847 C   0  0  0  0  0  0  0  0  0  0  0  0
    6.8350   -7.7057   27.0939 C   0  0  0  0  0  0  0  0  0  0  0  0
    0.0791   -5.1730   27.3510 C   0  0  0  0  0  0  0  0  0  0  0  0
    3.8347   -5.8531   26.7187 N   0  0  0  0  0  0  0  0  0  0  0  0
  1 22  4  0
  2 20  4  0
  2 27  4  0
  3 24  4  0
  4 22  4  0
  4 25  4  0
  4 28  1  0
  5  8  4  0
  5 17  4  0
  6 18  1  0
  6 21  1  0
  7 18  2  0
  8 27  4  0
  9 23  4  0
 10 11  1  0
 11 14  2  0
 11 27  1  0
 13 19  4  0
 15 18  1  0
 16 25  4  0
 16 26  4  0
 17 20  4  0
 17 28  1  0
 18 21  1  0
 21 26  4  0
 23 24  4  0
M  END
$$$$

 Created by Python create_sdf_string function

 28 84  0  0  0  0  0  0  0  0999 V2000
    4.5633   -8.2635   26.5074 O   0  0  0  0  0  0  0  0  0  0  0  0
    0.9017   -5.9209   26.8905 Br  0  0  0  0  0  0  0  0  0  0  0  0
    5.1407   -8.1134   16.2944 Br  0  0  0  0  0  0  0  0  0  0  0  0
    4.8971   -6.8889   27.3236 C   0  0  0  0  0  0  0  0  0  0  0  0
    2.7960   -3.9923   27.5729 C   0  0  0  0  0  0  0  0  0  0  0  0
    8.0901   -7.4784   28.8973 C   0  0  0  0  0  0  0  0  0  0  0  0
   10.1343   -6.9391   27.4905 O   0  0  0  0  0  0  0  0  0  0  0  0
    0.3993   -3.8784   27.5380 C   0  0  0  0  0  0  0  0  0  0  0  0
   -2.3924   -4.3655   27.5129 O   0  0  0  0  0  0  0  0  0  0  0  0
   -0.9232   -4.2908   27.8162 C   0  0  0  0  0  0  0  0  0  0  0  0
    5.0901   -8.1756   16.9736 F   0  0  0  0  0  0  0  0  0  0  0  0
    4.2176  -10.7415   17.9050 C   0  0  0  0  0  0  0  0  0  0  0  0
   -2.3247   -5.5650   27.9090 O   0  0  0  0  0  0  0  0  0  0  0  0
   10.8653   -8.2184   26.9677 C   0  0  0  0  0  0  0  0  0  0  0  0
    7.0105   -6.7465   27.8412 C   0  0  0  0  0  0  0  0  0  0  0  0
    2.6976   -5.5972   26.5816 C   0  0  0  0  0  0  0  0  0  0  0  0
    9.3429   -7.3455   27.3127 O   0  0  0  0  0  0  0  0  0  0  0  0
    7.8124   -7.2163   27.8179 C   0  0  0  0  0  0  0  0  0  0  0  0
    5.8485   -7.1797   25.9251 C   0  0  0  0  0  0  0  0  0  0  0  0
    6.1816   -8.4142   18.0933 C   0  0  0  0  0  0  0  0  0  0  0  0
    5.7961   -5.5746   26.8702 C   0  0  0  0  0  0  0  0  0  0  0  0
    6.7491   -7.4566   26.9631 C   0  0  0  0  0  0  0  0  0  0  0  0
    0.1778   -4.5602   27.2443 C   0  0  0  0  0  0  0  0  0  0  0  0
    3.9159   -6.2509   25.9801 N   0  0  0  0  0  0  0  0  0  0  0  0
    4.1253   -9.5630   18.6593 He  0  0  0  0  0  0  0  0  0  0  0  0
    4.4873   -9.9923   16.7758 He  0  0  0  0  0  0  0  0  0  0  0  0
    1.5489   -7.0100   26.8627 He  0  0  0  0  0  0  0  0  0  0  0  0
    5.3247  -10.2517   17.5661 He  0  0  0  0  0  0  0  0  0  0  0  0
  1  3  3  0
  1  6  3  0
  1 12  2  0
  1 15  3  0
  1 19  2  0
  1 20  3  0
  2 12  4  0
  2 13  1  0
  2 16  4  0
  2 23  4  0
  3  5  1  0
  3  7  1  0
  3  9  2  0
  3 18  4  0
  3 21  3  0
  3 22  2  0
  3 24  3  0
  4  5  2  0
  4  6  4  0
  4 11  1  0
  4 13  4  0
  4 21  4  0
  4 24  1  0
  5  7  1  0
  5  8  4  0
  5 11  2  0
  5 13  4  0
  5 16  4  0
  6  8  1  0
  6 14  1  0
  6 19  2  0
  6 22  3  0
  7  8  2  0
  7 11  4  0
  7 15  3  0
  7 17  2  0
  7 20  1  0
  7 22  4  0
  8  9  1  0
  8 11  4  0
  8 12  1  0
  8 18  1  0
  8 20  4  0
  8 23  1  0
  8 24  1  0
  9 10  3  0
  9 16  3  0
  9 18  4  0
  9 19  2  0
  9 21  1  0
  9 24  2  0
 10 11  1  0
 10 13  2  0
 10 14  1  0
 10 23  1  0
 11 14  2  0
 11 16  1  0
 11 18  2  0
 11 19  2  0
 11 21  2  0
 12 14  1  0
 12 18  1  0
 12 20  1  0
 12 24  1  0
 13 14  2  0
 13 17  2  0
 13 20  2  0
 14 17  1  0
 14 19  1  0
 14 20  1  0
 14 21  2  0
 15 16  3  0
 15 17  4  0
 15 22  4  0
 16 20  4  0
 16 24  1  0
 17 18  1  0
 17 20  1  0
 18 22  4  0
 18 24  2  0
 19 20  4  0
 20 23  3  0
 21 23  1  0
 22 23  3  0
M  END
$$$$

 Created by Python create_sdf_string function

 28 25  0  0  0  0  0  0  0  0999 V2000
    4.4818   -8.4094   25.9764 O   0  0  0  0  0  0  0  0  0  0  0  0
    0.5202   -6.1798   26.9429 C   0  0  0  0  0  0  0  0  0  0  0  0
    5.1066   -8.0695   16.5260 C   0  0  0  0  0  0  0  0  0  0  0  0
    4.9428   -6.5414   26.8506 C   0  0  0  0  0  0  0  0  0  0  0  0
    2.4018   -4.2021   27.1365 C   0  0  0  0  0  0  0  0  0  0  0  0
    8.8077   -7.4703   28.3885 C   0  0  0  0  0  0  0  0  0  0  0  0
   10.1275   -6.5143   27.7397 O   0  0  0  0  0  0  0  0  0  0  0  0
    1.0526   -3.8536   27.3979 C   0  0  0  0  0  0  0  0  0  0  0  0
    4.6426   -9.8236   17.6341 C   0  0  0  0  0  0  0  0  0  0  0  0
   -1.8027   -3.7783   27.2542 O   0  0  0  0  0  0  0  0  0  0  0  0
   -1.2542   -4.7850   27.5610 C   0  0  0  0  0  0  0  0  0  0  0  0
    5.2287   -8.1415   16.8988 C   0  0  0  0  0  0  0  0  0  0  0  0
    4.2794  -10.4591   17.3739 C   0  0  0  0  0  0  0  0  0  0  0  0
   -1.8864   -5.6033   28.0784 O   0  0  0  0  0  0  0  0  0  0  0  0
   10.4288   -8.4502   26.9248 C   0  0  0  0  0  0  0  0  0  0  0  0
    6.8403   -6.0349   27.9775 C   0  0  0  0  0  0  0  0  0  0  0  0
    2.7419   -5.5619   26.8612 C   0  0  0  0  0  0  0  0  0  0  0  0
    9.3916   -7.5981   27.4564 C   0  0  0  0  0  0  0  0  0  0  0  0
    4.3146   -9.8303   16.6610 C   0  0  0  0  0  0  0  0  0  0  0  0
    1.7595   -6.5331   26.8123 C   0  0  0  0  0  0  0  0  0  0  0  0
    7.9257   -7.3201   27.5277 C   0  0  0  0  0  0  0  0  0  0  0  0
    5.5971   -7.7414   26.4742 C   0  0  0  0  0  0  0  0  0  0  0  0
    5.1690   -9.6982   17.7258 C   0  0  0  0  0  0  0  0  0  0  0  0
    5.8415   -8.3487   17.8188 C   0  0  0  0  0  0  0  0  0  0  0  0
    5.7175   -5.6781   27.5409 C   0  0  0  0  0  0  0  0  0  0  0  0
    7.0020   -7.8576   26.9536 C   0  0  0  0  0  0  0  0  0  0  0  0
    0.1539   -4.9463   27.3045 C   0  0  0  0  0  0  0  0  0  0  0  0
    3.8134   -6.0356   26.4025 N   0  0  0  0  0  0  0  0  0  0  0  0
  1 22  2  0
  2 20  4  0
  2 27  4  0
  3 12  4  0
  4 22  4  0
  4 25  4  0
  4 28  1  0
  5  8  4  0
  5 17  4  0
  6 18  1  0
  7 18  2  0
  8 27  4  0
  9 23  4  0
 10 11  1  0
 11 14  2  0
 11 27  1  0
 12 24  4  0
 13 19  4  0
 15 18  1  0
 16 25  4  0
 17 20  4  0
 17 28  1  0
 18 21  1  0
 21 26  4  0
 22 26  4  0
M  END
$$$$

 Created by Python create_sdf_string function

 28 70  0  0  0  0  0  0  0  0999 V2000
    4.2329   -8.4858   25.1457 O   0  0  0  0  0  0  0  0  0  0  0  0
    0.2756   -6.6418   26.7600 C   0  0  0  0  0  0  0  0  0  0  0  0
    5.1471   -6.3755   16.9780 N   0  0  0  0  0  0  0  0  0  0  0  0
    2.4246   -4.1265   27.1422 C   0  0  0  0  0  0  0  0  0  0  0  0
    8.2620   -6.1333   28.1435 Se  0  0  0  0  0  0  0  0  0  0  0  0
    0.7292   -4.5682   27.9696 C   0  0  0  0  0  0  0  0  0  0  0  0
   -2.7859   -3.4140   26.5163 O   0  0  0  0  0  0  0  0  0  0  0  0
    6.2561   -7.4672   17.7763 F   0  0  0  0  0  0  0  0  0  0  0  0
   -2.2782   -5.8803   28.2843 O   0  0  0  0  0  0  0  0  0  0  0  0
   10.4738   -7.7877   27.3199 C   0  0  0  0  0  0  0  0  0  0  0  0
    6.6993   -5.1999   27.9278 C   0  0  0  0  0  0  0  0  0  0  0  0
    1.9431   -4.6639   27.1232 C   0  0  0  0  0  0  0  0  0  0  0  0
    9.6180   -7.4456   27.0928 C   0  0  0  0  0  0  0  0  0  0  0  0
    3.9373   -9.0596   17.3345 O   0  0  0  0  0  0  0  0  0  0  0  0
    8.3849   -8.4171   27.4073 F   0  0  0  0  0  0  0  0  0  0  0  0
    5.8455   -7.5258   26.5752 C   0  0  0  0  0  0  0  0  0  0  0  0
    5.5715   -9.6580   17.9236 N   0  0  0  0  0  0  0  0  0  0  0  0
    5.7856   -9.7092   18.6801 N   0  0  0  0  0  0  0  0  0  0  0  0
    7.2040   -8.1196   27.3458 C   0  0  0  0  0  0  0  0  0  0  0  0
    0.2680   -3.9245   27.4819 C   0  0  0  0  0  0  0  0  0  0  0  0
    4.1400   -6.1514   26.4910 N   0  0  0  0  0  0  0  0  0  0  0  0
    5.0427   -6.1584   26.7086 He  0  0  0  0  0  0  0  0  0  0  0  0
    9.8598   -6.4297   27.7336 He  0  0  0  0  0  0  0  0  0  0  0  0
    4.6917  -10.8392   17.3316 He  0  0  0  0  0  0  0  0  0  0  0  0
   -0.9484   -4.7721   27.5608 He  0  0  0  0  0  0  0  0  0  0  0  0
    5.0546  -12.6872   17.5988 He  0  0  0  0  0  0  0  0  0  0  0  0
   -0.1316   -5.3091   27.2133 He  0  0  0  0  0  0  0  0  0  0  0  0
    5.4528   -6.0117   27.7880 He  0  0  0  0  0  0  0  0  0  0  0  0
  1  3  4  0
  1  7  2  0
  1 16  2  0
  1 17  4  0
  1 18  3  0
  2  3  3  0
  2  5  2  0
  2 16  2  0
  2 21  3  0
  3  4  4  0
  3  5  2  0
  3  6  3  0
  3  7  2  0
  3  8  4  0
  3  9  4  0
  3 10  3  0
  3 15  2  0
  3 16  2  0
  3 19  4  0
  4  8  1  0
  4 12  4  0
  4 19  1  0
  4 20  1  0
  5  6  2  0
  5  7  1  0
  5  8  4  0
  5  9  4  0
  5 12  3  0
  5 17  2  0
  5 18  3  0
  5 20  4  0
  6 13  4  0
  6 17  4  0
  6 18  2  0
  6 20  4  0
  6 21  4  0
  7  8  3  0
  7 14  4  0
  7 17  1  0
  7 18  4  0
  8 11  4  0
  8 12  1  0
  8 13  1  0
  8 17  1  0
  8 20  3  0
  9 15  4  0
 10 13  1  0
 10 14  3  0
 10 16  1  0
 10 18  4  0
 10 20  3  0
 11 14  2  0
 11 18  2  0
 11 20  1  0
 12 14  1  0
 12 16  2  0
 12 17  2  0
 12 21  1  0
 13 15  1  0
 13 18  4  0
 14 16  1  0
 14 18  4  0
 14 20  3  0
 15 17  3  0
 16 17  3  0
 16 19  4  0
 17 20  2  0
 17 21  1  0
 18 19  3  0
 19 20  1  0
M  END
$$$$

 Created by Python create_sdf_string function

 28 29  0  0  0  0  0  0  0  0999 V2000
    4.8650   -8.1707   25.8620 O   0  0  0  0  0  0  0  0  0  0  0  0
    1.1580   -6.1989   26.8063 C   0  0  0  0  0  0  0  0  0  0  0  0
    5.1687   -7.9591   17.1279 C   0  0  0  0  0  0  0  0  0  0  0  0
    4.8444   -6.2717   26.9483 C   0  0  0  0  0  0  0  0  0  0  0  0
    2.3600   -4.3121   27.2491 C   0  0  0  0  0  0  0  0  0  0  0  0
    7.7072   -6.4952   27.6326 C   0  0  0  0  0  0  0  0  0  0  0  0
    9.2694   -6.3172   27.9092 C   0  0  0  0  0  0  0  0  0  0  0  0
    1.2369   -3.6919   27.5555 C   0  0  0  0  0  0  0  0  0  0  0  0
    4.5179  -10.1970   17.4002 C   0  0  0  0  0  0  0  0  0  0  0  0
   -2.2299   -3.7928   26.8933 O   0  0  0  0  0  0  0  0  0  0  0  0
   -1.6057   -4.6333   27.4446 C   0  0  0  0  0  0  0  0  0  0  0  0
    5.9180   -7.8976   17.7270 C   0  0  0  0  0  0  0  0  0  0  0  0
    4.4058  -11.1274   17.4162 C   0  0  0  0  0  0  0  0  0  0  0  0
   -2.1663   -5.6218   27.9507 O   0  0  0  0  0  0  0  0  0  0  0  0
   10.6073   -8.0274   27.1485 C   0  0  0  0  0  0  0  0  0  0  0  0
    6.9249   -5.4467   27.9743 C   0  0  0  0  0  0  0  0  0  0  0  0
    2.4040   -5.5317   26.9295 C   0  0  0  0  0  0  0  0  0  0  0  0
    9.4725   -7.8183   27.3320 C   0  0  0  0  0  0  0  0  0  0  0  0
    4.1337   -9.1046   16.9487 C   0  0  0  0  0  0  0  0  0  0  0  0
    0.4920   -5.6350   26.9339 C   0  0  0  0  0  0  0  0  0  0  0  0
    8.3769   -8.3210   27.2097 C   0  0  0  0  0  0  0  0  0  0  0  0
    5.5632   -7.4299   26.5650 C   0  0  0  0  0  0  0  0  0  0  0  0
    5.6242   -9.2313   17.8916 N   0  0  0  0  0  0  0  0  0  0  0  0
    5.6211   -9.1831   18.2175 C   0  0  0  0  0  0  0  0  0  0  0  0
    5.5801   -5.3743   27.6209 C   0  0  0  0  0  0  0  0  0  0  0  0
    7.0114   -7.6230   27.0068 C   0  0  0  0  0  0  0  0  0  0  0  0
    0.1922   -4.3755   27.3988 C   0  0  0  0  0  0  0  0  0  0  0  0
    3.6454   -6.1663   26.5734 N   0  0  0  0  0  0  0  0  0  0  0  0
  1 22  2  0
  2 17  4  0
  2 20  4  0
  3 12  4  0
  3 19  4  0
  4 22  4  0
  4 25  4  0
  4 28  1  0
  5  8  4  0
  5 17  4  0
  6  7  1  0
  6 16  4  0
  6 26  4  0
  7 18  1  0
  8 27  4  0
  9 13  1  0
  9 19  4  0
 10 11  1  0
 11 14  2  0
 11 27  1  0
 12 24  4  0
 15 18  1  0
 16 25  4  0
 17 28  1  0
 18 21  1  0
 20 27  4  0
 21 26  4  0
 22 26  4  0
 23 24  4  0
M  END
$$$$

 Created by Python create_sdf_string function

 28 54  0  0  0  0  0  0  0  0999 V2000
    1.0608   -6.3199   26.6129 C   0  0  0  0  0  0  0  0  0  0  0  0
    4.7085   -9.6474   18.0344 N   0  0  0  0  0  0  0  0  0  0  0  0
    4.4289   -6.7394   26.7804 C   0  0  0  0  0  0  0  0  0  0  0  0
    2.3451   -4.3780   26.7206 C   0  0  0  0  0  0  0  0  0  0  0  0
    7.1579   -5.8793   27.1552 C   0  0  0  0  0  0  0  0  0  0  0  0
    9.7824   -6.5789   27.2999 C   0  0  0  0  0  0  0  0  0  0  0  0
   -1.5833   -4.4294   26.9079 O   0  0  0  0  0  0  0  0  0  0  0  0
   -1.2407   -4.8650   27.9659 C   0  0  0  0  0  0  0  0  0  0  0  0
    5.6175   -7.2979   18.7783 F   0  0  0  0  0  0  0  0  0  0  0  0
   11.0863   -7.3826   27.6809 C   0  0  0  0  0  0  0  0  0  0  0  0
    2.6064   -6.3662   26.9343 C   0  0  0  0  0  0  0  0  0  0  0  0
    9.3939   -7.6387   27.5846 C   0  0  0  0  0  0  0  0  0  0  0  0
    4.5234   -8.8720   16.0609 N   0  0  0  0  0  0  0  0  0  0  0  0
    5.5648   -6.6231   26.2684 C   0  0  0  0  0  0  0  0  0  0  0  0
    5.2368  -10.0843   18.8305 P   0  0  0  0  0  0  0  0  0  0  0  0
    6.0068   -5.9923   27.7918 C   0  0  0  0  0  0  0  0  0  0  0  0
    7.1911   -7.7384   27.0390 C   0  0  0  0  0  0  0  0  0  0  0  0
    0.5558   -4.4121   27.9931 C   0  0  0  0  0  0  0  0  0  0  0  0
    3.7640   -5.9576   27.1035 C   0  0  0  0  0  0  0  0  0  0  0  0
    4.9380   -8.5787   25.8200 He  0  0  0  0  0  0  0  0  0  0  0  0
    1.2341   -4.0760   27.6144 He  0  0  0  0  0  0  0  0  0  0  0  0
    3.7376  -10.9327   15.6044 He  0  0  0  0  0  0  0  0  0  0  0  0
    4.9547  -10.1302   17.2106 He  0  0  0  0  0  0  0  0  0  0  0  0
   -2.2885   -5.9167   27.8364 He  0  0  0  0  0  0  0  0  0  0  0  0
    6.7420   -5.4519   28.1240 He  0  0  0  0  0  0  0  0  0  0  0  0
    0.8763   -7.2570   27.4007 He  0  0  0  0  0  0  0  0  0  0  0  0
    8.5386   -9.0684   27.9098 He  0  0  0  0  0  0  0  0  0  0  0  0
    4.8423   -8.9886   17.8695 He  0  0  0  0  0  0  0  0  0  0  0  0
  1  5  4  0
  1 10  2  0
  1 13  4  0
  2  4  4  0
  2  5  4  0
  2  7  2  0
  2 14  4  0
  2 16  1  0
  2 17  1  0
  2 18  4  0
  3  5  1  0
  3  9  3  0
  3 13  1  0
  3 14  4  0
  4  5  4  0
  4  9  1  0
  4 10  4  0
  4 11  4  0
  5  6  4  0
  5 11  1  0
  5 13  1  0
  5 14  1  0
  5 15  2  0
  5 16  3  0
  5 17  4  0
  6 17  3  0
  7  8  1  0
  7  9  4  0
  7 10  4  0
  7 11  3  0
  7 16  1  0
  8  9  4  0
  8 18  1  0
  8 19  2  0
  9 17  1  0
  9 19  4  0
 10 13  2  0
 10 18  4  0
 11 19  1  0
 12 15  1  0
 12 16  3  0
 12 17  1  0
 13 14  3  0
 13 17  4  0
 14 15  4  0
 14 17  4  0
 14 18  1  0
 15 16  3  0
 15 17  3  0
 15 18  4  0
 15 19  2  0
 16 17  3  0
 17 18  2  0
 17 19  3  0
M  END
$$$$

 Created by Python create_sdf_string function

 28 27  0  0  0  0  0  0  0  0999 V2000
    5.0206   -8.2093   25.8243 O   0  0  0  0  0  0  0  0  0  0  0  0
    1.1735   -6.6168   27.1118 C   0  0  0  0  0  0  0  0  0  0  0  0
    4.7327   -9.7776   17.6796 C   0  0  0  0  0  0  0  0  0  0  0  0
    4.9499   -6.5332   27.0028 C   0  0  0  0  0  0  0  0  0  0  0  0
    2.5000   -4.5475   27.0424 C   0  0  0  0  0  0  0  0  0  0  0  0
    7.6803   -6.4413   27.5548 C   0  0  0  0  0  0  0  0  0  0  0  0
    9.0503   -6.3042   27.6554 C   0  0  0  0  0  0  0  0  0  0  0  0
    1.1567   -4.0670   27.2417 C   0  0  0  0  0  0  0  0  0  0  0  0
    4.0082  -10.4206   16.3605 C   0  0  0  0  0  0  0  0  0  0  0  0
   -1.7960   -4.0330   26.9779 O   0  0  0  0  0  0  0  0  0  0  0  0
   -1.2647   -4.9489   27.5827 C   0  0  0  0  0  0  0  0  0  0  0  0
    5.8135   -8.3171   18.1452 C   0  0  0  0  0  0  0  0  0  0  0  0
    4.9730  -10.1016   16.9792 C   0  0  0  0  0  0  0  0  0  0  0  0
   -1.8392   -5.7158   28.2382 O   0  0  0  0  0  0  0  0  0  0  0  0
   10.7142   -7.9301   27.4746 C   0  0  0  0  0  0  0  0  0  0  0  0
    6.9067   -5.3350   27.8842 C   0  0  0  0  0  0  0  0  0  0  0  0
    2.6013   -5.8947   26.9864 C   0  0  0  0  0  0  0  0  0  0  0  0
    9.5848   -7.7366   27.5489 C   0  0  0  0  0  0  0  0  0  0  0  0
    4.3980   -8.8276   16.3348 C   0  0  0  0  0  0  0  0  0  0  0  0
    1.1945   -6.6800   27.1570 C   0  0  0  0  0  0  0  0  0  0  0  0
    8.5755   -8.2975   27.6070 C   0  0  0  0  0  0  0  0  0  0  0  0
    5.6990   -7.5588   26.6258 C   0  0  0  0  0  0  0  0  0  0  0  0
    4.9666   -8.5569   17.1756 C   0  0  0  0  0  0  0  0  0  0  0  0
    5.1321   -9.6698   18.1066 C   0  0  0  0  0  0  0  0  0  0  0  0
    5.4710   -5.5113   27.6135 C   0  0  0  0  0  0  0  0  0  0  0  0
    7.1744   -7.6657   27.1248 C   0  0  0  0  0  0  0  0  0  0  0  0
    0.2679   -5.0655   27.3607 C   0  0  0  0  0  0  0  0  0  0  0  0
    3.7600   -6.6402   26.6167 C   0  0  0  0  0  0  0  0  0  0  0  0
  1 22  2  0
  2 17  4  0
  2 20  4  0
  2 27  4  0
  3 24  4  0
  4 22  4  0
  4 25  4  0
  4 28  1  0
  5  8  4  0
  5 17  4  0
  6  7  4  0
  6 16  4  0
  6 26  4  0
  7 18  4  0
  8 27  4  0
 10 11  1  0
 11 14  2  0
 11 27  1  0
 12 23  4  0
 15 18  1  0
 16 25  4  0
 17 20  4  0
 17 28  1  0
 18 21  4  0
 19 23  4  0
 21 26  4  0
 22 26  4  0
M  END
$$$$

 Created by Python create_sdf_string function

 28 80  0  0  0  0  0  0  0  0999 V2000
    4.8465   -8.4430   25.5265 O   0  0  0  0  0  0  0  0  0  0  0  0
    1.0541   -6.0394   26.9443 C   0  0  0  0  0  0  0  0  0  0  0  0
    4.8540  -10.6553   18.1838 O   0  0  0  0  0  0  0  0  0  0  0  0
    4.2875   -6.4249   26.7337 S   0  0  0  0  0  0  0  0  0  0  0  0
    3.0601   -4.3453   27.6374 N   0  0  0  0  0  0  0  0  0  0  0  0
    8.1216   -3.0506   27.2832 N   0  0  0  0  0  0  0  0  0  0  0  0
   10.0313   -6.3319   27.8107 C   0  0  0  0  0  0  0  0  0  0  0  0
    0.9819   -4.2281   27.1569 C   0  0  0  0  0  0  0  0  0  0  0  0
    4.5825  -10.8484   17.4378 C   0  0  0  0  0  0  0  0  0  0  0  0
   -2.0049   -4.6002   26.7235 O   0  0  0  0  0  0  0  0  0  0  0  0
   -1.4892   -5.3602   27.2014 C   0  0  0  0  0  0  0  0  0  0  0  0
    5.1050   -8.7782   16.5769 C   0  0  0  0  0  0  0  0  0  0  0  0
   -2.0593   -5.2928   28.3701 O   0  0  0  0  0  0  0  0  0  0  0  0
    6.9881   -5.3596   27.7149 C   0  0  0  0  0  0  0  0  0  0  0  0
    2.0633   -5.9612   27.4121 C   0  0  0  0  0  0  0  0  0  0  0  0
    9.1843   -7.9518   27.3012 C   0  0  0  0  0  0  0  0  0  0  0  0
    0.7166   -6.7393   26.8966 Cl  0  0  0  0  0  0  0  0  0  0  0  0
    8.6092   -8.7837   27.3950 C   0  0  0  0  0  0  0  0  0  0  0  0
    5.7329   -7.2803   26.4549 C   0  0  0  0  0  0  0  0  0  0  0  0
    5.6377   -8.6809   17.3451 F   0  0  0  0  0  0  0  0  0  0  0  0
    4.9209  -10.9754   19.8615 O   0  0  0  0  0  0  0  0  0  0  0  0
    5.4763   -5.4606   27.4358 C   0  0  0  0  0  0  0  0  0  0  0  0
    7.0536   -7.6488   26.8240 C   0  0  0  0  0  0  0  0  0  0  0  0
    0.8289   -3.9704   27.6806 C   0  0  0  0  0  0  0  0  0  0  0  0
    4.1292   -6.4595   26.4391 C   0  0  0  0  0  0  0  0  0  0  0  0
    6.4623   -7.9699   17.6866 He  0  0  0  0  0  0  0  0  0  0  0  0
   10.0826   -8.0947   27.9071 He  0  0  0  0  0  0  0  0  0  0  0  0
    5.6157   -8.3062   17.3887 He  0  0  0  0  0  0  0  0  0  0  0  0
  1  2  2  0
  1  4  2  0
  1  7  2  0
  1  9  1  0
  1 19  2  0
  1 21  4  0
  1 24  1  0
  2  7  1  0
  2 10  4  0
  2 15  4  0
  2 21  1  0
  2 23  3  0
  3  4  3  0
  3  6  1  0
  3 11  3  0
  3 12  4  0
  3 14  2  0
  3 18  4  0
  3 20  3  0
  3 24  3  0
  4 11  2  0
  4 12  4  0
  4 14  1  0
  4 15  4  0
  4 16  2  0
  4 19  4  0
  4 22  4  0
  4 25  1  0
  5  8  4  0
  5  9  4  0
  5 15  4  0
  6 10  4  0
  6 11  2  0
  6 17  2  0
  6 18  3  0
  6 23  1  0
  6 25  1  0
  7 16  4  0
  7 24  1  0
  7 25  1  0
  8 11  1  0
  8 12  3  0
  8 19  2  0
  8 21  1  0
  8 24  4  0
  9 10  4  0
  9 13  1  0
  9 16  1  0
  9 18  3  0
  9 23  2  0
  9 25  2  0
 10 11  1  0
 10 12  3  0
 10 14  3  0
 10 17  4  0
 10 20  3  0
 11 18  1  0
 11 24  1  0
 12 15  2  0
 12 17  4  0
 12 20  1  0
 12 22  3  0
 12 23  2  0
 12 25  1  0
 14 22  4  0
 14 25  4  0
 15 25  1  0
 16 21  4  0
 16 25  1  0
 17 18  2  0
 17 19  1  0
 17 20  3  0
 17 25  1  0
 18 20  3  0
 18 21  1  0
 18 23  4  0
 18 24  3  0
 19 20  2  0
 21 23  3  0
 24 25  3  0
M  END
$$$$

 Created by Python create_sdf_string function

 28 30  0  0  0  0  0  0  0  0999 V2000
    5.2441   -8.3906   25.8006 O   0  0  0  0  0  0  0  0  0  0  0  0
    1.2851   -6.4005   26.9477 C   0  0  0  0  0  0  0  0  0  0  0  0
    4.7199  -10.0138   17.7641 C   0  0  0  0  0  0  0  0  0  0  0  0
    4.8610   -6.4217   26.9189 N   0  0  0  0  0  0  0  0  0  0  0  0
    2.6277   -4.4431   27.3614 C   0  0  0  0  0  0  0  0  0  0  0  0
    8.2369   -5.2701   27.6118 C   0  0  0  0  0  0  0  0  0  0  0  0
    9.3335   -6.0531   27.6460 C   0  0  0  0  0  0  0  0  0  0  0  0
    1.2957   -3.9372   27.4839 C   0  0  0  0  0  0  0  0  0  0  0  0
    4.4709  -10.3374   17.2411 C   0  0  0  0  0  0  0  0  0  0  0  0
   -1.7792   -4.4092   26.4718 O   0  0  0  0  0  0  0  0  0  0  0  0
   -1.1828   -4.8998   27.4323 C   0  0  0  0  0  0  0  0  0  0  0  0
    6.2542   -8.0941   17.7734 C   0  0  0  0  0  0  0  0  0  0  0  0
    4.8408   -8.9260   16.4718 C   0  0  0  0  0  0  0  0  0  0  0  0
   -1.7386   -5.3708   28.3496 O   0  0  0  0  0  0  0  0  0  0  0  0
   10.5265   -8.3537   27.7556 C   0  0  0  0  0  0  0  0  0  0  0  0
    7.0730   -5.8882   27.3521 C   0  0  0  0  0  0  0  0  0  0  0  0
    2.5962   -5.7694   27.0512 C   0  0  0  0  0  0  0  0  0  0  0  0
    9.2875   -7.4753   27.5353 C   0  0  0  0  0  0  0  0  0  0  0  0
    5.9051   -8.2135   17.3534 C   0  0  0  0  0  0  0  0  0  0  0  0
    0.7947   -6.2370   26.9981 C   0  0  0  0  0  0  0  0  0  0  0  0
    8.0555   -8.0185   27.2141 C   0  0  0  0  0  0  0  0  0  0  0  0
    5.6539   -7.5080   26.5456 C   0  0  0  0  0  0  0  0  0  0  0  0
    5.7594   -8.3217   17.3205 C   0  0  0  0  0  0  0  0  0  0  0  0
    5.0385  -10.0525   18.4494 C   0  0  0  0  0  0  0  0  0  0  0  0
    5.7257   -5.4129   27.3223 C   0  0  0  0  0  0  0  0  0  0  0  0
    7.0232   -7.2665   27.0145 C   0  0  0  0  0  0  0  0  0  0  0  0
    0.2780   -4.9134   27.3395 C   0  0  0  0  0  0  0  0  0  0  0  0
    3.4823   -6.6245   26.7307 C   0  0  0  0  0  0  0  0  0  0  0  0
  1 22  2  0
  2 17  4  0
  2 20  4  0
  3  9  4  0
  3 24  4  0
  4 22  4  0
  4 25  4  0
  4 28  1  0
  5  8  4  0
  5 17  4  0
  6  7  4  0
  6 16  4  0
  7 18  4  0
  8 27  4  0
  9 13  4  0
  9 24  4  0
 10 11  1  0
 11 14  2  0
 11 27  1  0
 12 19  4  0
 12 23  4  0
 15 18  1  0
 16 25  4  0
 16 26  4  0
 17 28  1  0
 18 21  4  0
 19 23  4  0
 20 27  4  0
 21 26  4  0
 22 26  4  0
M  END
$$$$

 Created by Python create_sdf_string function

 28 46  0  0  0  0  0  0  0  0999 V2000
    4.9648   -8.0705   26.0376 O   0  0  0  0  0  0  0  0  0  0  0  0
    1.7654   -6.3242   26.6109 C   0  0  0  0  0  0  0  0  0  0  0  0
    2.1897   -3.7946   27.4150 I   0  0  0  0  0  0  0  0  0  0  0  0
    8.3711   -6.3595   26.6053 C   0  0  0  0  0  0  0  0  0  0  0  0
    8.5566   -6.2359   27.4301 C   0  0  0  0  0  0  0  0  0  0  0  0
    0.8356   -4.1254   26.8753 C   0  0  0  0  0  0  0  0  0  0  0  0
    3.1210  -10.5136   17.3636 F   0  0  0  0  0  0  0  0  0  0  0  0
   -1.9250   -4.5413   26.7761 O   0  0  0  0  0  0  0  0  0  0  0  0
    5.2527  -10.6405   16.2199 C   0  0  0  0  0  0  0  0  0  0  0  0
   -1.8008   -5.6097   27.9831 O   0  0  0  0  0  0  0  0  0  0  0  0
   10.3670   -8.7641   27.9424 C   0  0  0  0  0  0  0  0  0  0  0  0
    2.9413   -5.8610   26.6995 C   0  0  0  0  0  0  0  0  0  0  0  0
    8.7410   -7.0647   27.9220 C   0  0  0  0  0  0  0  0  0  0  0  0
    1.0871   -5.9701   28.4457 O   0  0  0  0  0  0  0  0  0  0  0  0
    7.7923   -8.1643   27.3547 C   0  0  0  0  0  0  0  0  0  0  0  0
    5.2713   -7.6528   26.1510 C   0  0  0  0  0  0  0  0  0  0  0  0
    6.0873   -4.8837   27.2635 C   0  0  0  0  0  0  0  0  0  0  0  0
    7.2631   -7.1071   27.4022 C   0  0  0  0  0  0  0  0  0  0  0  0
    0.4685   -4.8090   27.1200 C   0  0  0  0  0  0  0  0  0  0  0  0
    3.4558   -6.9678   26.6358 C   0  0  0  0  0  0  0  0  0  0  0  0
    5.0034  -10.2513   17.5129 He  0  0  0  0  0  0  0  0  0  0  0  0
    4.5381   -6.2963   26.7083 He  0  0  0  0  0  0  0  0  0  0  0  0
   -1.4773   -4.7828   27.5092 He  0  0  0  0  0  0  0  0  0  0  0  0
    4.7845   -8.4250   19.1121 He  0  0  0  0  0  0  0  0  0  0  0  0
    7.2217   -6.2250   27.8145 He  0  0  0  0  0  0  0  0  0  0  0  0
    5.8679   -6.4301   19.9742 He  0  0  0  0  0  0  0  0  0  0  0  0
    6.3028   -7.8271   17.4293 He  0  0  0  0  0  0  0  0  0  0  0  0
    5.8699  -10.0498   18.1763 He  0  0  0  0  0  0  0  0  0  0  0  0
  1  7  2  0
  1  9  3  0
  1 11  2  0
  1 16  2  0
  2  3  1  0
  2 12  4  0
  3  6  2  0
  3 12  4  0
  4  6  2  0
  4 10  1  0
  4 11  4  0
  4 12  3  0
  4 13  2  0
  4 14  2  0
  4 17  1  0
  4 19  1  0
  5  7  2  0
  5 10  1  0
  5 13  2  0
  5 14  3  0
  6  7  4  0
  6 18  4  0
  6 19  4  0
  7  8  1  0
  7 11  1  0
  7 12  4  0
  7 13  2  0
  7 19  1  0
  8 14  2  0
  9 10  2  0
  9 14  2  0
  9 15  4  0
  9 17  2  0
 11 13  1  0
 12 20  1  0
 13 14  4  0
 13 15  2  0
 13 18  1  0
 14 16  2  0
 14 18  1  0
 15 18  4  0
 15 19  2  0
 15 20  2  0
 16 18  4  0
 17 20  3  0
 18 20  1  0
M  END
$$$$

 Created by Python create_sdf_string function

 28 27  0  0  0  0  0  0  0  0999 V2000
    5.1377   -8.4870   25.8137 O   0  0  0  0  0  0  0  0  0  0  0  0
    1.6558   -6.5003   26.9845 C   0  0  0  0  0  0  0  0  0  0  0  0
    4.8215  -10.1166   17.0103 C   0  0  0  0  0  0  0  0  0  0  0  0
    4.7723   -6.3418   26.8152 N   0  0  0  0  0  0  0  0  0  0  0  0
    2.4415   -4.2310   26.9268 C   0  0  0  0  0  0  0  0  0  0  0  0
    8.1410   -5.4614   27.6817 C   0  0  0  0  0  0  0  0  0  0  0  0
    9.1626   -6.1252   27.7661 C   0  0  0  0  0  0  0  0  0  0  0  0
    1.0864   -3.8389   27.0640 C   0  0  0  0  0  0  0  0  0  0  0  0
    3.9390  -10.1413   17.2859 C   0  0  0  0  0  0  0  0  0  0  0  0
   -1.9036   -4.2280   26.6513 O   0  0  0  0  0  0  0  0  0  0  0  0
   -1.2582   -4.8905   27.4169 C   0  0  0  0  0  0  0  0  0  0  0  0
    5.3926   -9.0754   18.1099 C   0  0  0  0  0  0  0  0  0  0  0  0
    5.1767  -10.2117   16.6432 C   0  0  0  0  0  0  0  0  0  0  0  0
   -1.8206   -5.6519   28.3121 O   0  0  0  0  0  0  0  0  0  0  0  0
   10.2607   -8.4282   27.9196 C   0  0  0  0  0  0  0  0  0  0  0  0
    6.9563   -5.8714   27.4198 C   0  0  0  0  0  0  0  0  0  0  0  0
    2.6638   -5.7136   26.8995 C   0  0  0  0  0  0  0  0  0  0  0  0
    9.0724   -7.5002   27.6875 C   0  0  0  0  0  0  0  0  0  0  0  0
    5.9694   -8.4552   18.3767 C   0  0  0  0  0  0  0  0  0  0  0  0
    0.4923   -6.1810   27.0688 C   0  0  0  0  0  0  0  0  0  0  0  0
    7.9014   -8.1008   27.3548 C   0  0  0  0  0  0  0  0  0  0  0  0
    5.5657   -7.5137   26.5476 C   0  0  0  0  0  0  0  0  0  0  0  0
    6.2136   -8.3439   17.4667 C   0  0  0  0  0  0  0  0  0  0  0  0
    5.4921   -9.5071   17.4023 C   0  0  0  0  0  0  0  0  0  0  0  0
    5.5693   -5.2431   27.2799 C   0  0  0  0  0  0  0  0  0  0  0  0
    6.8639   -7.2831   27.0939 C   0  0  0  0  0  0  0  0  0  0  0  0
    0.1183   -4.9205   27.2145 C   0  0  0  0  0  0  0  0  0  0  0  0
    3.6162   -6.3989   26.6368 C   0  0  0  0  0  0  0  0  0  0  0  0
  1 22  2  0
  2 17  4  0
  2 20  4  0
  3  9  4  0
  3 13  4  0
  4 22  4  0
  4 25  4  0
  4 28  1  0
  5  8  4  0
  5 17  4  0
  6  7  4  0
  6 16  4  0
  7 18  4  0
  8 27  4  0
 10 11  2  0
 11 14  2  0
 11 27  1  0
 12 19  4  0
 15 18  1  0
 16 25  4  0
 16 26  4  0
 17 28  1  0
 18 21  4  0
 19 23  4  0
 20 27  4  0
 21 26  4  0
 22 26  4  0
M  END
$$$$

 Created by Python create_sdf_string function

 28 59  0  0  0  0  0  0  0  0999 V2000
    5.2596   -8.1849   25.8805 O   0  0  0  0  0  0  0  0  0  0  0  0
    1.6325   -6.2299   27.2765 C   0  0  0  0  0  0  0  0  0  0  0  0
    3.5413   -9.9553   15.5305 S   0  0  0  0  0  0  0  0  0  0  0  0
    4.5950   -6.9254   26.9572 N   0  0  0  0  0  0  0  0  0  0  0  0
    2.0881   -4.3683   26.8342 C   0  0  0  0  0  0  0  0  0  0  0  0
    9.3183   -6.6422   28.1041 C   0  0  0  0  0  0  0  0  0  0  0  0
    0.8826   -3.6371   27.1668 C   0  0  0  0  0  0  0  0  0  0  0  0
   -1.5952   -3.7661   27.2680 O   0  0  0  0  0  0  0  0  0  0  0  0
   -0.7779   -4.8153   27.2594 C   0  0  0  0  0  0  0  0  0  0  0  0
   -1.6885   -5.1144   29.0074 C   0  0  0  0  0  0  0  0  0  0  0  0
   10.1705   -8.6086   27.5797 S   0  0  0  0  0  0  0  0  0  0  0  0
    6.4144   -6.4113   28.0025 F   0  0  0  0  0  0  0  0  0  0  0  0
    2.6313   -5.9947   26.5170 I   0  0  0  0  0  0  0  0  0  0  0  0
    8.9798   -7.0481   27.5211 C   0  0  0  0  0  0  0  0  0  0  0  0
    4.9760   -8.0982   18.4526 C   0  0  0  0  0  0  0  0  0  0  0  0
    0.4857   -6.3040   27.6997 N   0  0  0  0  0  0  0  0  0  0  0  0
    7.8235   -7.9249   27.0583 C   0  0  0  0  0  0  0  0  0  0  0  0
    5.3359   -8.0854   26.2215 C   0  0  0  0  0  0  0  0  0  0  0  0
    4.2913   -7.5991   17.5907 Cl  0  0  0  0  0  0  0  0  0  0  0  0
    5.5167   -5.0732   27.4823 C   0  0  0  0  0  0  0  0  0  0  0  0
    7.1215   -7.1455   27.5187 C   0  0  0  0  0  0  0  0  0  0  0  0
   -0.1675   -5.1530   26.9397 C   0  0  0  0  0  0  0  0  0  0  0  0
    3.7415   -6.1420   26.5439 C   0  0  0  0  0  0  0  0  0  0  0  0
    9.2371   -4.8377   29.3493 He  0  0  0  0  0  0  0  0  0  0  0  0
    4.1625  -10.6025   16.4410 He  0  0  0  0  0  0  0  0  0  0  0  0
    5.0803   -9.2041   18.0476 He  0  0  0  0  0  0  0  0  0  0  0  0
    6.0022  -10.6220   16.1661 He  0  0  0  0  0  0  0  0  0  0  0  0
    5.4482   -7.2526   18.1388 He  0  0  0  0  0  0  0  0  0  0  0  0
  1  2  4  0
  1  6  2  0
  1 16  1  0
  1 18  2  0
  2  3  4  0
  2  7  2  0
  2 11  4  0
  2 13  4  0
  2 17  1  0
  2 23  2  0
  3  5  1  0
  3 13  3  0
  3 14  2  0
  3 22  4  0
  3 23  2  0
  4 15  4  0
  4 18  4  0
  4 19  3  0
  5  7  4  0
  5  8  2  0
  5 11  3  0
  5 13  4  0
  5 19  4  0
  5 21  2  0
  6 13  1  0
  6 16  3  0
  6 20  2  0
  6 23  2  0
  7 15  1  0
  7 16  1  0
  7 18  3  0
  7 19  2  0
  7 21  2  0
  8 15  2  0
  9 10  2  0
  9 12  3  0
  9 22  1  0
 10 15  1  0
 10 19  2  0
 10 23  3  0
 11 14  1  0
 11 15  2  0
 11 19  1  0
 11 22  1  0
 12 18  3  0
 12 20  4  0
 12 21  4  0
 13 15  1  0
 13 18  2  0
 14 15  3  0
 14 16  3  0
 14 17  4  0
 15 16  4  0
 15 17  2  0
 15 21  2  0
 16 22  1  0
 17 21  4  0
 18 21  4  0
 19 21  1  0
M  END
$$$$

 Created by Python create_sdf_string function

 28 28  0  0  0  0  0  0  0  0999 V2000
    5.3270   -8.5017   25.7557 O   0  0  0  0  0  0  0  0  0  0  0  0
    1.5403   -6.7111   27.1629 C   0  0  0  0  0  0  0  0  0  0  0  0
    3.7497   -9.7370   16.2493 C   0  0  0  0  0  0  0  0  0  0  0  0
    4.8261   -6.4758   26.8971 N   0  0  0  0  0  0  0  0  0  0  0  0
    2.3677   -4.4842   26.7514 C   0  0  0  0  0  0  0  0  0  0  0  0
    7.9643   -5.5933   28.3529 C   0  0  0  0  0  0  0  0  0  0  0  0
    9.0708   -6.2256   28.3313 C   0  0  0  0  0  0  0  0  0  0  0  0
    1.0075   -3.9884   26.8840 C   0  0  0  0  0  0  0  0  0  0  0  0
    4.1191   -9.9118   16.5149 C   0  0  0  0  0  0  0  0  0  0  0  0
   -1.7583   -3.7174   27.1593 O   0  0  0  0  0  0  0  0  0  0  0  0
   -1.2109   -4.6312   27.7318 C   0  0  0  0  0  0  0  0  0  0  0  0
    5.2373   -9.4308   17.6694 C   0  0  0  0  0  0  0  0  0  0  0  0
    5.5069  -10.3235   16.7054 C   0  0  0  0  0  0  0  0  0  0  0  0
   -1.8081   -5.2310   28.6817 O   0  0  0  0  0  0  0  0  0  0  0  0
   10.4198   -8.3101   27.4854 C   0  0  0  0  0  0  0  0  0  0  0  0
    6.8513   -6.0152   27.7940 C   0  0  0  0  0  0  0  0  0  0  0  0
    2.5511   -5.8103   26.8433 C   0  0  0  0  0  0  0  0  0  0  0  0
    9.1336   -7.5170   27.6575 C   0  0  0  0  0  0  0  0  0  0  0  0
    5.6392   -8.4156   17.9303 C   0  0  0  0  0  0  0  0  0  0  0  0
    0.3129   -6.3110   27.3333 C   0  0  0  0  0  0  0  0  0  0  0  0
    7.9631   -8.0094   27.1052 C   0  0  0  0  0  0  0  0  0  0  0  0
    5.6522   -7.5967   26.4923 C   0  0  0  0  0  0  0  0  0  0  0  0
    4.3306   -8.1484   16.9106 C   0  0  0  0  0  0  0  0  0  0  0  0
    5.5289   -7.8964   17.7866 C   0  0  0  0  0  0  0  0  0  0  0  0
    5.6261   -5.5416   27.7085 C   0  0  0  0  0  0  0  0  0  0  0  0
    6.8902   -7.2477   27.1122 C   0  0  0  0  0  0  0  0  0  0  0  0
    0.0654   -4.9888   27.3054 C   0  0  0  0  0  0  0  0  0  0  0  0
    3.6952   -6.3430   26.3645 C   0  0  0  0  0  0  0  0  0  0  0  0
  1 22  2  0
  2 17  4  0
  2 20  4  0
  3  9  4  0
  4 22  4  0
  4 25  4  0
  4 28  1  0
  5  8  4  0
  5 17  4  0
  6  7  4  0
  6 16  4  0
  7 18  4  0
  8 27  4  0
  9 13  4  0
 10 11  1  0
 11 14  2  0
 11 27  1  0
 12 19  4  0
 15 18  1  0
 16 25  4  0
 16 26  4  0
 17 28  1  0
 18 21  4  0
 19 24  4  0
 20 27  4  0
 21 26  4  0
 22 26  4  0
 23 24  4  0
M  END
$$$$

 Created by Python create_sdf_string function

 28 63  0  0  0  0  0  0  0  0999 V2000
    1.4733   -6.2891   27.4079 C   0  0  0  0  0  0  0  0  0  0  0  0
    3.2123   -9.9514   17.6229 O   0  0  0  0  0  0  0  0  0  0  0  0
    2.4366   -4.4032   26.6782 C   0  0  0  0  0  0  0  0  0  0  0  0
    9.5743   -6.5476   28.4820 C   0  0  0  0  0  0  0  0  0  0  0  0
   -2.0006   -3.2439   27.2319 O   0  0  0  0  0  0  0  0  0  0  0  0
   -1.3401   -4.9551   27.6699 O   0  0  0  0  0  0  0  0  0  0  0  0
    4.1360   -9.4643   16.5271 N   0  0  0  0  0  0  0  0  0  0  0  0
   -1.7529   -5.5558   28.4454 I   0  0  0  0  0  0  0  0  0  0  0  0
   11.0121   -8.5013   27.7459 C   0  0  0  0  0  0  0  0  0  0  0  0
    7.0470   -5.8053   27.1073 C   0  0  0  0  0  0  0  0  0  0  0  0
    1.7268   -5.7933   26.9664 B   0  0  0  0  0  0  0  0  0  0  0  0
    9.3799   -7.5619   27.4637 C   0  0  0  0  0  0  0  0  0  0  0  0
    5.7910   -7.9858   17.8442 C   0  0  0  0  0  0  0  0  0  0  0  0
    1.1346   -7.0720   27.5577 F   0  0  0  0  0  0  0  0  0  0  0  0
    7.7476   -8.7122   26.8965 C   0  0  0  0  0  0  0  0  0  0  0  0
    5.9239   -7.7507   26.5728 C   0  0  0  0  0  0  0  0  0  0  0  0
    5.7936   -7.7095   17.9379 C   0  0  0  0  0  0  0  0  0  0  0  0
    5.1823   -5.5762   27.4417 N   0  0  0  0  0  0  0  0  0  0  0  0
    6.4853   -7.7620   27.0931 C   0  0  0  0  0  0  0  0  0  0  0  0
   -0.4387   -4.5542   27.6440 C   0  0  0  0  0  0  0  0  0  0  0  0
    3.9693   -6.5401   26.8981 C   0  0  0  0  0  0  0  0  0  0  0  0
    5.6754   -8.0679   25.9462 He  0  0  0  0  0  0  0  0  0  0  0  0
    5.3919   -6.4217   27.7821 He  0  0  0  0  0  0  0  0  0  0  0  0
    8.4938   -2.3908   28.8878 He  0  0  0  0  0  0  0  0  0  0  0  0
    0.2992   -4.5501   27.1681 He  0  0  0  0  0  0  0  0  0  0  0  0
    2.6261   -9.8651   16.9485 He  0  0  0  0  0  0  0  0  0  0  0  0
    4.8308   -9.2397   17.6871 He  0  0  0  0  0  0  0  0  0  0  0  0
    3.8439   -8.3293   16.4923 He  0  0  0  0  0  0  0  0  0  0  0  0
  1 11  4  0
  1 13  2  0
  1 14  1  0
  1 17  4  0
  1 20  4  0
  2  9  3  0
  2 14  1  0
  2 15  2  0
  2 17  1  0
  2 18  4  0
  2 20  1  0
  3 11  4  0
  4 10  3  0
  4 13  2  0
  4 14  4  0
  4 17  4  0
  5 12  4  0
  5 13  4  0
  5 14  1  0
  5 16  1  0
  5 17  4  0
  5 21  2  0
  6 13  2  0
  6 20  1  0
  7  8  4  0
  7 10  1  0
  7 11  2  0
  7 12  4  0
  7 17  4  0
  7 18  2  0
  7 20  2  0
  7 21  3  0
  8 10  1  0
  8 12  4  0
  8 18  3  0
  9 12  1  0
  9 14  4  0
  9 16  2  0
  9 17  4  0
 10 11  2  0
 10 14  4  0
 10 16  1  0
 10 18  4  0
 10 19  4  0
 10 20  2  0
 11 13  4  0
 11 14  1  0
 11 15  4  0
 11 19  1  0
 11 21  1  0
 12 15  3  0
 13 14  4  0
 13 16  1  0
 13 17  1  0
 14 15  2  0
 14 16  1  0
 14 17  3  0
 14 19  2  0
 14 21  2  0
 15 19  4  0
 17 19  1  0
 18 19  1  0
 18 20  3  0
M  END
$$$$

 Created by Python create_sdf_string function

 28 29  0  0  0  0  0  0  0  0999 V2000
    5.4601   -7.9558   26.3347 N   0  0  0  0  0  0  0  0  0  0  0  0
    0.5755   -6.4049   27.5602 C   0  0  0  0  0  0  0  0  0  0  0  0
    3.4227   -9.8934   17.4276 C   0  0  0  0  0  0  0  0  0  0  0  0
    4.7776   -6.2870   27.0809 C   0  0  0  0  0  0  0  0  0  0  0  0
    2.2756   -4.5670   26.8057 C   0  0  0  0  0  0  0  0  0  0  0  0
    8.1317   -5.4067   28.0815 C   0  0  0  0  0  0  0  0  0  0  0  0
    9.2830   -6.1536   28.0870 C   0  0  0  0  0  0  0  0  0  0  0  0
    0.9314   -4.1193   26.8840 C   0  0  0  0  0  0  0  0  0  0  0  0
    3.0002   -9.4748   16.7555 C   0  0  0  0  0  0  0  0  0  0  0  0
   -1.7856   -3.7008   27.1515 O   0  0  0  0  0  0  0  0  0  0  0  0
   -1.2655   -4.7792   27.6022 C   0  0  0  0  0  0  0  0  0  0  0  0
    4.8960   -9.5230   17.8716 C   0  0  0  0  0  0  0  0  0  0  0  0
    4.0545   -8.9904   16.3143 C   0  0  0  0  0  0  0  0  0  0  0  0
   -2.0911   -5.5424   28.3762 O   0  0  0  0  0  0  0  0  0  0  0  0
   10.5380   -8.3047   27.6930 C   0  0  0  0  0  0  0  0  0  0  0  0
    6.9288   -5.9918   27.6015 C   0  0  0  0  0  0  0  0  0  0  0  0
    2.3603   -5.8742   27.1044 C   0  0  0  0  0  0  0  0  0  0  0  0
    9.2860   -7.4980   27.6609 C   0  0  0  0  0  0  0  0  0  0  0  0
    5.6896   -8.1815   17.6884 C   0  0  0  0  0  0  0  0  0  0  0  0
    1.4723   -6.8224   27.4026 C   0  0  0  0  0  0  0  0  0  0  0  0
    8.0353   -7.9640   27.1861 C   0  0  0  0  0  0  0  0  0  0  0  0
    5.5392   -7.5339   26.6028 C   0  0  0  0  0  0  0  0  0  0  0  0
    4.1305   -8.2306   16.4140 C   0  0  0  0  0  0  0  0  0  0  0  0
    5.7277   -8.0139   17.5227 C   0  0  0  0  0  0  0  0  0  0  0  0
    5.5323   -5.4946   27.5556 N   0  0  0  0  0  0  0  0  0  0  0  0
    6.9707   -7.2453   27.1055 C   0  0  0  0  0  0  0  0  0  0  0  0
    0.0817   -5.1462   27.3592 C   0  0  0  0  0  0  0  0  0  0  0  0
    3.5868   -6.5772   26.8385 C   0  0  0  0  0  0  0  0  0  0  0  0
  1 22  4  0
  2 20  4  0
  2 27  4  0
  3  9  4  0
  3 12  4  0
  4 22  4  0
  4 25  4  0
  4 28  1  0
  5  8  4  0
  5 17  4  0
  6  7  4  0
  6 16  4  0
  7 18  4  0
  8 27  4  0
  9 13  4  0
 10 11  1  0
 11 14  2  0
 11 27  1  0
 12 19  4  0
 13 23  4  0
 15 18  1  0
 16 25  4  0
 16 26  4  0
 17 20  4  0
 17 28  1  0
 18 21  4  0
 19 24  1  0
 21 26  4  0
 22 26  4  0
M  END
$$$$

 Created by Python create_sdf_string function

 28 41  0  0  0  0  0  0  0  0999 V2000
    5.2470   -8.1109   26.0012 N   0  0  0  0  0  0  0  0  0  0  0  0
    0.8109   -6.5844   27.5697 C   0  0  0  0  0  0  0  0  0  0  0  0
    2.4758   -4.6866   27.3731 C   0  0  0  0  0  0  0  0  0  0  0  0
    9.2868   -5.5486   28.6274 C   0  0  0  0  0  0  0  0  0  0  0  0
    1.0010   -4.2225   26.6147 C   0  0  0  0  0  0  0  0  0  0  0  0
   -1.5770   -3.5944   27.7560 O   0  0  0  0  0  0  0  0  0  0  0  0
   -1.0423   -4.9618   27.6292 C   0  0  0  0  0  0  0  0  0  0  0  0
    4.1259  -10.5233   16.9630 P   0  0  0  0  0  0  0  0  0  0  0  0
    3.7658   -8.3383   16.4115 C   0  0  0  0  0  0  0  0  0  0  0  0
   -2.2037   -5.5286   28.4832 O   0  0  0  0  0  0  0  0  0  0  0  0
   10.5310   -7.6044   27.5375 C   0  0  0  0  0  0  0  0  0  0  0  0
    6.8982   -5.5239   27.4137 P   0  0  0  0  0  0  0  0  0  0  0  0
    9.5105   -7.2653   27.4387 C   0  0  0  0  0  0  0  0  0  0  0  0
    8.3057   -8.5525   27.5313 C   0  0  0  0  0  0  0  0  0  0  0  0
    5.2794   -7.6217   26.5852 Br  0  0  0  0  0  0  0  0  0  0  0  0
    4.6977   -7.6868   15.0929 N   0  0  0  0  0  0  0  0  0  0  0  0
    5.1815   -5.0457   27.0684 S   0  0  0  0  0  0  0  0  0  0  0  0
    7.1618   -6.8003   27.1521 C   0  0  0  0  0  0  0  0  0  0  0  0
    0.3069   -5.4599   26.8041 C   0  0  0  0  0  0  0  0  0  0  0  0
    3.7316   -6.6755   26.6714 C   0  0  0  0  0  0  0  0  0  0  0  0
    3.4234   -8.6450   18.5084 He  0  0  0  0  0  0  0  0  0  0  0  0
    4.8620   -6.3565   26.8564 He  0  0  0  0  0  0  0  0  0  0  0  0
    9.3854   -5.1466   28.0884 He  0  0  0  0  0  0  0  0  0  0  0  0
    2.1534   -8.2620   16.3395 He  0  0  0  0  0  0  0  0  0  0  0  0
    2.5889   -5.5125   27.3866 He  0  0  0  0  0  0  0  0  0  0  0  0
    7.0680   -6.3820   16.6910 He  0  0  0  0  0  0  0  0  0  0  0  0
    0.6884   -7.4573   27.0453 He  0  0  0  0  0  0  0  0  0  0  0  0
    5.4180   -8.8197   17.2925 He  0  0  0  0  0  0  0  0  0  0  0  0
  1  9  4  0
  1 18  1  0
  2  6  3  0
  2  8  4  0
  2  9  4  0
  2 13  4  0
  2 16  3  0
  2 19  3  0
  3  8  4  0
  3  9  1  0
  3 12  4  0
  3 13  2  0
  3 16  3  0
  3 18  4  0
  4 12  1  0
  4 14  1  0
  4 16  2  0
  4 17  2  0
  5 19  4  0
  6  7  1  0
  6  9  4  0
  6 15  4  0
  6 20  2  0
  7  9  3  0
  7 10  2  0
  8 12  2  0
  8 15  2  0
  8 19  3  0
  8 20  3  0
  9 12  2  0
  9 18  3  0
 11 20  4  0
 12 13  1  0
 12 17  4  0
 12 18  4  0
 13 14  4  0
 13 16  1  0
 14 18  4  0
 15 16  3  0
 15 18  4  0
 17 18  4  0
M  END
$$$$

 Created by Python create_sdf_string function

 28 28  0  0  0  0  0  0  0  0999 V2000
    5.5634   -8.4601   26.0910 N   0  0  0  0  0  0  0  0  0  0  0  0
    0.4621   -6.6233   27.3261 C   0  0  0  0  0  0  0  0  0  0  0  0
    3.8257   -9.3430   17.1136 C   0  0  0  0  0  0  0  0  0  0  0  0
    4.8684   -6.4126   26.9399 C   0  0  0  0  0  0  0  0  0  0  0  0
    2.4069   -4.5871   26.9903 C   0  0  0  0  0  0  0  0  0  0  0  0
    8.6041   -5.5579   28.0729 C   0  0  0  0  0  0  0  0  0  0  0  0
    8.8872   -5.5253   28.1246 C   0  0  0  0  0  0  0  0  0  0  0  0
    1.0506   -4.1686   27.0345 C   0  0  0  0  0  0  0  0  0  0  0  0
    2.8298   -8.5184   16.3236 C   0  0  0  0  0  0  0  0  0  0  0  0
   -1.5397   -3.6570   27.5004 O   0  0  0  0  0  0  0  0  0  0  0  0
   -1.1871   -4.8900   27.6749 C   0  0  0  0  0  0  0  0  0  0  0  0
    4.3956   -9.5351   17.3080 C   0  0  0  0  0  0  0  0  0  0  0  0
    3.7878   -7.9893   16.0766 C   0  0  0  0  0  0  0  0  0  0  0  0
   -1.9851   -5.7027   28.1959 O   0  0  0  0  0  0  0  0  0  0  0  0
   10.7181   -7.8670   27.5766 C   0  0  0  0  0  0  0  0  0  0  0  0
    7.0234   -5.7898   27.5719 C   0  0  0  0  0  0  0  0  0  0  0  0
    2.6305   -5.9538   27.0499 C   0  0  0  0  0  0  0  0  0  0  0  0
    9.2743   -7.2407   27.6224 C   0  0  0  0  0  0  0  0  0  0  0  0
    6.2424   -7.6901   17.0433 C   0  0  0  0  0  0  0  0  0  0  0  0
    1.7926   -6.9191   27.1624 C   0  0  0  0  0  0  0  0  0  0  0  0
    8.1944   -7.8306   27.1889 C   0  0  0  0  0  0  0  0  0  0  0  0
    5.7474   -7.4274   26.6800 C   0  0  0  0  0  0  0  0  0  0  0  0
    4.7961   -7.6293   15.8015 C   0  0  0  0  0  0  0  0  0  0  0  0
    5.4749   -8.4599   17.2198 C   0  0  0  0  0  0  0  0  0  0  0  0
    5.4962   -5.2704   27.3675 S   0  0  0  0  0  0  0  0  0  0  0  0
    7.0547   -7.0335   27.1285 C   0  0  0  0  0  0  0  0  0  0  0  0
    0.1568   -5.2603   27.3145 C   0  0  0  0  0  0  0  0  0  0  0  0
    3.5950   -6.6507   26.7865 C   0  0  0  0  0  0  0  0  0  0  0  0
  1 22  2  0
  2 20  4  0
  2 27  4  0
  3  9  4  0
  3 12  4  0
  4 22  4  0
  4 25  4  0
  4 28  1  0
  5  8  4  0
  5 17  4  0
  6  7  4  0
  7 18  4  0
  8 27  4  0
  9 13  4  0
 10 11  1  0
 11 14  2  0
 11 27  1  0
 12 24  4  0
 13 23  4  0
 15 18  1  0
 16 25  4  0
 16 26  4  0
 17 20  4  0
 17 28  1  0
 18 21  4  0
 19 24  1  0
 21 26  4  0
 22 26  4  0
M  END
$$$$

 Created by Python create_sdf_string function

 28 44  0  0  0  0  0  0  0  0999 V2000
    5.3565   -8.1561   26.1302 N   0  0  0  0  0  0  0  0  0  0  0  0
   -0.2776   -6.6059   27.0940 C   0  0  0  0  0  0  0  0  0  0  0  0
    3.0947  -10.4560   14.7657 C   0  0  0  0  0  0  0  0  0  0  0  0
    2.5805   -4.2315   27.5195 C   0  0  0  0  0  0  0  0  0  0  0  0
    7.2654   -6.1790   28.9424 N   0  0  0  0  0  0  0  0  0  0  0  0
    1.1302   -4.5218   26.7673 C   0  0  0  0  0  0  0  0  0  0  0  0
   -1.2620   -5.3576   28.0365 C   0  0  0  0  0  0  0  0  0  0  0  0
    4.7890   -7.4914   16.3770 C   0  0  0  0  0  0  0  0  0  0  0  0
   -2.4007   -5.7651   27.8264 O   0  0  0  0  0  0  0  0  0  0  0  0
    2.1291   -5.6132   27.0402 C   0  0  0  0  0  0  0  0  0  0  0  0
    9.4072   -6.7666   27.1850 C   0  0  0  0  0  0  0  0  0  0  0  0
    2.1249   -7.3895   26.6403 C   0  0  0  0  0  0  0  0  0  0  0  0
    8.3536   -7.6577   27.0114 C   0  0  0  0  0  0  0  0  0  0  0  0
    5.5654   -8.4021   15.8207 N   0  0  0  0  0  0  0  0  0  0  0  0
    5.2986   -5.1577   27.6383 S   0  0  0  0  0  0  0  0  0  0  0  0
    7.0623   -6.7931   26.8017 C   0  0  0  0  0  0  0  0  0  0  0  0
    0.2599   -5.4881   27.1520 O   0  0  0  0  0  0  0  0  0  0  0  0
    3.6476   -6.5851   27.0624 C   0  0  0  0  0  0  0  0  0  0  0  0
    5.5473   -6.4748   26.3434 He  0  0  0  0  0  0  0  0  0  0  0  0
    9.1739   -5.5530   28.8986 He  0  0  0  0  0  0  0  0  0  0  0  0
    3.9112   -7.7525   16.8934 He  0  0  0  0  0  0  0  0  0  0  0  0
   -1.0320   -3.6139   27.6565 He  0  0  0  0  0  0  0  0  0  0  0  0
    3.6513   -8.8962   17.5336 He  0  0  0  0  0  0  0  0  0  0  0  0
   10.6534   -7.9808   27.8679 He  0  0  0  0  0  0  0  0  0  0  0  0
    6.9432   -6.0406   27.2863 He  0  0  0  0  0  0  0  0  0  0  0  0
    6.6715   -7.1704   17.4015 He  0  0  0  0  0  0  0  0  0  0  0  0
    5.5543   -7.1557   26.4830 He  0  0  0  0  0  0  0  0  0  0  0  0
    6.8181   -7.9194   15.2626 He  0  0  0  0  0  0  0  0  0  0  0  0
  1 14  3  0
  2  3  2  0
  2 14  2  0
  2 17  4  0
  3  5  2  0
  3  9  3  0
  3 11  4  0
  3 15  3  0
  3 16  1  0
  4  6  4  0
  4  8  4  0
  4  9  4  0
  4 10  4  0
  4 18  2  0
  5  6  3  0
  5  8  4  0
  5 11  3  0
  5 12  3  0
  6 17  4  0
  7 10  2  0
  7 13  1  0
  7 14  3  0
  7 16  2  0
  7 17  1  0
  8 11  4  0
  8 13  2  0
  8 14  4  0
  8 16  1  0
  8 17  4  0
  9 10  3  0
  9 12  2  0
 10 12  2  0
 10 13  2  0
 10 18  1  0
 11 13  4  0
 12 14  4  0
 12 15  3  0
 12 16  3  0
 12 18  1  0
 13 14  3  0
 13 16  1  0
 14 16  2  0
 14 17  3  0
 15 16  4  0
M  END
$$$$

 Created by Python create_sdf_string function

 28 29  0  0  0  0  0  0  0  0999 V2000
    5.4727   -8.4877   25.7739 O   0  0  0  0  0  0  0  0  0  0  0  0
    0.3858   -6.5734   27.1255 C   0  0  0  0  0  0  0  0  0  0  0  0
    3.3638   -9.1722   15.8013 C   0  0  0  0  0  0  0  0  0  0  0  0
    4.8929   -6.4208   26.9244 N   0  0  0  0  0  0  0  0  0  0  0  0
    2.4243   -4.6785   27.0627 C   0  0  0  0  0  0  0  0  0  0  0  0
    7.9213   -5.3201   28.4331 C   0  0  0  0  0  0  0  0  0  0  0  0
    8.9339   -5.9995   28.5135 C   0  0  0  0  0  0  0  0  0  0  0  0
    1.0491   -4.2505   27.2269 C   0  0  0  0  0  0  0  0  0  0  0  0
    3.8146   -8.1311   16.1223 C   0  0  0  0  0  0  0  0  0  0  0  0
   -1.6293   -3.7106   27.7444 O   0  0  0  0  0  0  0  0  0  0  0  0
   -1.1886   -4.9816   27.5722 C   0  0  0  0  0  0  0  0  0  0  0  0
    3.9829   -8.8978   16.6095 C   0  0  0  0  0  0  0  0  0  0  0  0
    4.5818   -7.9931   16.7344 C   0  0  0  0  0  0  0  0  0  0  0  0
   -2.1380   -5.7180   27.7629 O   0  0  0  0  0  0  0  0  0  0  0  0
   10.6282   -7.7817   27.6366 C   0  0  0  0  0  0  0  0  0  0  0  0
    6.8566   -5.8534   27.7449 C   0  0  0  0  0  0  0  0  0  0  0  0
    2.6440   -6.0003   26.9562 C   0  0  0  0  0  0  0  0  0  0  0  0
    9.2268   -7.1615   27.7443 C   0  0  0  0  0  0  0  0  0  0  0  0
    6.4037   -7.5699   17.2002 C   0  0  0  0  0  0  0  0  0  0  0  0
    1.6348   -6.9942   26.9319 C   0  0  0  0  0  0  0  0  0  0  0  0
    8.1752   -7.6986   26.9902 C   0  0  0  0  0  0  0  0  0  0  0  0
    5.7207   -7.4582   26.5043 C   0  0  0  0  0  0  0  0  0  0  0  0
    6.1981   -7.8804   15.7734 C   0  0  0  0  0  0  0  0  0  0  0  0
    5.4134   -8.1278   16.0624 C   0  0  0  0  0  0  0  0  0  0  0  0
    5.4917   -5.3484   27.6451 N   0  0  0  0  0  0  0  0  0  0  0  0
    6.9590   -7.0220   27.0646 C   0  0  0  0  0  0  0  0  0  0  0  0
    0.1102   -5.2893   27.2986 C   0  0  0  0  0  0  0  0  0  0  0  0
    3.7274   -6.5304   26.6582 C   0  0  0  0  0  0  0  0  0  0  0  0
  1 22  2  0
  2 20  4  0
  2 27  4  0
  3  9  4  0
  3 12  4  0
  4 22  4  0
  4 25  4  0
  4 28  1  0
  5  8  4  0
  5 17  4  0
  6  7  4  0
  6 16  4  0
  7 18  4  0
  8 27  4  0
 10 11  1  0
 11 14  2  0
 11 27  1  0
 12 13  4  0
 13 24  4  0
 15 18  1  0
 16 25  4  0
 16 26  4  0
 17 20  4  0
 17 28  1  0
 18 21  4  0
 19 23  1  0
 21 26  4  0
 22 26  4  0
 23 24  4  0
M  END
$$$$

 Created by Python create_sdf_string function

 28 71  0  0  0  0  0  0  0  0999 V2000
    5.7811   -8.7683   25.7835 O   0  0  0  0  0  0  0  0  0  0  0  0
    0.1033   -6.6391   27.3225 C   0  0  0  0  0  0  0  0  0  0  0  0
    3.4974   -7.5195   17.6294 F   0  0  0  0  0  0  0  0  0  0  0  0
    4.5515   -6.6157   27.3783 N   0  0  0  0  0  0  0  0  0  0  0  0
    2.2748   -4.5249   27.7041 C   0  0  0  0  0  0  0  0  0  0  0  0
    6.8466   -3.9740   29.1758 C   0  0  0  0  0  0  0  0  0  0  0  0
    8.1772   -6.0888   28.8616 C   0  0  0  0  0  0  0  0  0  0  0  0
   -2.2979   -5.4648   27.8787 O   0  0  0  0  0  0  0  0  0  0  0  0
   10.6803   -7.7127   27.2060 C   0  0  0  0  0  0  0  0  0  0  0  0
    2.6766   -5.8407   27.1751 C   0  0  0  0  0  0  0  0  0  0  0  0
    9.2762   -7.6805   27.7529 N   0  0  0  0  0  0  0  0  0  0  0  0
    6.2085   -8.2030   17.0182 C   0  0  0  0  0  0  0  0  0  0  0  0
    1.5788   -6.7533   27.8890 F   0  0  0  0  0  0  0  0  0  0  0  0
    8.1729   -7.5883   27.5109 C   0  0  0  0  0  0  0  0  0  0  0  0
    6.1445   -7.1040   26.5162 C   0  0  0  0  0  0  0  0  0  0  0  0
    6.5501   -7.9149   17.8250 N   0  0  0  0  0  0  0  0  0  0  0  0
    6.1217   -6.1111   15.5220 Cl  0  0  0  0  0  0  0  0  0  0  0  0
    5.2949   -5.5660   28.0879 N   0  0  0  0  0  0  0  0  0  0  0  0
    6.6902   -6.8949   27.1649 C   0  0  0  0  0  0  0  0  0  0  0  0
    0.6264   -5.5806   27.7308 C   0  0  0  0  0  0  0  0  0  0  0  0
    4.0416   -6.4546   26.4828 C   0  0  0  0  0  0  0  0  0  0  0  0
    1.0938   -4.4062   27.4484 He  0  0  0  0  0  0  0  0  0  0  0  0
    3.7629   -9.1419   17.1299 He  0  0  0  0  0  0  0  0  0  0  0  0
   -1.2633   -3.5565   28.2572 He  0  0  0  0  0  0  0  0  0  0  0  0
   -0.9878   -4.5675   27.2489 He  0  0  0  0  0  0  0  0  0  0  0  0
    4.1086   -9.4673   15.0842 He  0  0  0  0  0  0  0  0  0  0  0  0
    3.4897   -7.3861   17.7148 He  0  0  0  0  0  0  0  0  0  0  0  0
    7.4159   -6.0235   28.0625 He  0  0  0  0  0  0  0  0  0  0  0  0
  1  3  2  0
  1  6  1  0
  1 13  2  0
  1 15  2  0
  1 17  1  0
  2  8  1  0
  2 12  4  0
  2 17  3  0
  2 19  1  0
  2 20  4  0
  3  4  4  0
  3  5  2  0
  3  7  1  0
  3  8  3  0
  3 11  4  0
  3 15  2  0
  3 16  4  0
  4  6  2  0
  4  7  1  0
  4  8  3  0
  4 15  4  0
  4 18  4  0
  4 21  1  0
  5 12  1  0
  5 17  3  0
  5 19  1  0
  6  8  4  0
  6  9  3  0
  6 10  2  0
  6 13  1  0
  6 16  3  0
  6 20  3  0
  6 21  3  0
  7  9  3  0
  7 11  3  0
  7 12  3  0
  7 13  1  0
  7 19  4  0
  7 21  1  0
  8  9  2  0
  8 12  3  0
  8 14  2  0
  8 17  2  0
  9 12  4  0
  9 16  1  0
  9 21  2  0
 10 11  2  0
 10 13  4  0
 10 15  1  0
 10 16  2  0
 10 21  1  0
 11 12  4  0
 11 16  2  0
 11 17  2  0
 11 19  2  0
 11 21  2  0
 12 13  4  0
 12 16  1  0
 12 18  3  0
 12 19  4  0
 13 17  4  0
 13 18  1  0
 14 15  2  0
 14 16  4  0
 14 17  2  0
 14 19  4  0
 15 17  4  0
 15 18  2  0
 16 19  4  0
 17 18  2  0
 17 20  3  0
M  END
$$$$

 Created by Python create_sdf_string function

 28 27  0  0  0  0  0  0  0  0999 V2000
    5.6773   -8.2689   25.9485 O   0  0  0  0  0  0  0  0  0  0  0  0
    0.3761   -6.4784   27.4567 C   0  0  0  0  0  0  0  0  0  0  0  0
    4.0337   -8.0392   16.8555 C   0  0  0  0  0  0  0  0  0  0  0  0
    4.9931   -6.4531   27.1483 N   0  0  0  0  0  0  0  0  0  0  0  0
    2.3706   -4.6603   27.3595 C   0  0  0  0  0  0  0  0  0  0  0  0
    6.9751   -4.9993   28.7581 C   0  0  0  0  0  0  0  0  0  0  0  0
    9.3723   -6.4144   28.2872 C   0  0  0  0  0  0  0  0  0  0  0  0
    1.1480   -4.1420   27.5455 C   0  0  0  0  0  0  0  0  0  0  0  0
    3.8756   -8.9340   16.7824 C   0  0  0  0  0  0  0  0  0  0  0  0
   -1.4954   -3.4813   27.9973 O   0  0  0  0  0  0  0  0  0  0  0  0
   -1.2239   -4.7450   27.7482 C   0  0  0  0  0  0  0  0  0  0  0  0
    4.5514   -8.6550   15.6273 C   0  0  0  0  0  0  0  0  0  0  0  0
    4.0675   -8.0033   16.8597 C   0  0  0  0  0  0  0  0  0  0  0  0
   -2.1633   -5.4637   27.6706 O   0  0  0  0  0  0  0  0  0  0  0  0
   10.2651   -7.7942   27.4926 C   0  0  0  0  0  0  0  0  0  0  0  0
    7.0804   -6.0196   28.0405 C   0  0  0  0  0  0  0  0  0  0  0  0
    2.6009   -6.0272   27.1383 C   0  0  0  0  0  0  0  0  0  0  0  0
    9.4789   -7.3076   27.7840 N   0  0  0  0  0  0  0  0  0  0  0  0
    5.8888   -7.9762   17.1765 C   0  0  0  0  0  0  0  0  0  0  0  0
    1.4829   -6.9394   27.2660 C   0  0  0  0  0  0  0  0  0  0  0  0
    8.2164   -7.8334   27.2471 C   0  0  0  0  0  0  0  0  0  0  0  0
    5.8680   -7.3610   26.7198 C   0  0  0  0  0  0  0  0  0  0  0  0
    5.9850   -7.9276   17.6492 C   0  0  0  0  0  0  0  0  0  0  0  0
    6.0162   -7.4172   15.9728 C   0  0  0  0  0  0  0  0  0  0  0  0
    5.5034   -5.5205   28.0031 N   0  0  0  0  0  0  0  0  0  0  0  0
    7.1892   -7.0182   27.3912 C   0  0  0  0  0  0  0  0  0  0  0  0
    0.1455   -5.1588   27.5958 C   0  0  0  0  0  0  0  0  0  0  0  0
    3.7019   -6.5401   26.5992 C   0  0  0  0  0  0  0  0  0  0  0  0
  1 22  2  0
  2 20  4  0
  2 27  4  0
  3 13  4  0
  4 22  4  0
  4 25  4  0
  4 28  1  0
  5  8  4  0
  5 17  4  0
  6 25  4  0
  7 15  4  0
  7 18  4  0
  8 27  4  0
  9 12  4  0
 10 11  1  0
 11 14  2  0
 11 27  1  0
 15 18  4  0
 16 25  4  0
 16 26  4  0
 17 20  4  0
 17 28  1  0
 18 21  4  0
 19 23  4  0
 19 24  4  0
 21 26  4  0
 22 26  4  0
M  END
$$$$

 Created by Python create_sdf_string function

 28 60  0  0  0  0  0  0  0  0999 V2000
    5.8038   -8.0222   25.3099 O   0  0  0  0  0  0  0  0  0  0  0  0
    0.4455   -6.1564   27.7557 C   0  0  0  0  0  0  0  0  0  0  0  0
    5.3373   -6.1879   27.3895 N   0  0  0  0  0  0  0  0  0  0  0  0
    2.5852   -4.9422   27.2994 C   0  0  0  0  0  0  0  0  0  0  0  0
    7.0830   -4.8659   29.8489 C   0  0  0  0  0  0  0  0  0  0  0  0
    9.2355   -6.2845   28.3905 C   0  0  0  0  0  0  0  0  0  0  0  0
    1.4136   -4.0188   28.0815 C   0  0  0  0  0  0  0  0  0  0  0  0
    2.5999   -9.6674   17.5611 S   0  0  0  0  0  0  0  0  0  0  0  0
   -1.3958   -2.7721   27.8500 O   0  0  0  0  0  0  0  0  0  0  0  0
   -0.9043   -4.7214   28.2757 C   0  0  0  0  0  0  0  0  0  0  0  0
    4.7642   -8.2374   14.7621 N   0  0  0  0  0  0  0  0  0  0  0  0
    5.1334   -7.8079   18.2285 S   0  0  0  0  0  0  0  0  0  0  0  0
   -2.2168   -5.1437   27.4397 F   0  0  0  0  0  0  0  0  0  0  0  0
   10.6942   -7.9694   28.0556 C   0  0  0  0  0  0  0  0  0  0  0  0
    6.8424   -6.2152   28.1265 C   0  0  0  0  0  0  0  0  0  0  0  0
    2.1090   -6.3009   26.9299 C   0  0  0  0  0  0  0  0  0  0  0  0
    8.8679   -7.5306   28.0838 N   0  0  0  0  0  0  0  0  0  0  0  0
    8.3062   -7.4449   27.3347 C   0  0  0  0  0  0  0  0  0  0  0  0
    6.2910   -7.4219   26.6997 F   0  0  0  0  0  0  0  0  0  0  0  0
    5.0181   -4.9964   27.5062 N   0  0  0  0  0  0  0  0  0  0  0  0
    7.0715   -7.0312   27.5816 C   0  0  0  0  0  0  0  0  0  0  0  0
    3.4386   -7.0949   16.7132 He  0  0  0  0  0  0  0  0  0  0  0  0
    6.9145   -8.8014   16.1919 He  0  0  0  0  0  0  0  0  0  0  0  0
    2.0527   -5.0610   27.9245 He  0  0  0  0  0  0  0  0  0  0  0  0
    5.1720   -7.3630   19.5258 He  0  0  0  0  0  0  0  0  0  0  0  0
    6.4821   -7.0531   14.1617 He  0  0  0  0  0  0  0  0  0  0  0  0
   -0.4753   -4.6909   27.6533 He  0  0  0  0  0  0  0  0  0  0  0  0
    3.1147   -5.8295   26.2921 He  0  0  0  0  0  0  0  0  0  0  0  0
  1  2  4  0
  1  8  2  0
  1 12  1  0
  1 15  4  0
  1 19  2  0
  2  5  4  0
  2  7  2  0
  2  8  3  0
  2 21  1  0
  3  8  4  0
  3 10  4  0
  3 11  2  0
  3 12  4  0
  3 15  4  0
  3 20  4  0
  4  7  4  0
  4 12  4  0
  4 14  2  0
  4 16  1  0
  4 18  4  0
  5  8  2  0
  5 11  3  0
  5 13  1  0
  5 14  3  0
  5 17  4  0
  5 19  4  0
  5 20  4  0
  5 21  2  0
  6 12  4  0
  6 14  4  0
  6 17  4  0
  6 18  1  0
  6 19  2  0
  7  9  2  0
  7 14  3  0
  8 10  2  0
  8 11  3  0
  8 13  4  0
  9 10  1  0
  9 16  1  0
  9 21  2  0
 11 12  2  0
 11 13  4  0
 11 14  3  0
 11 16  2  0
 11 18  4  0
 12 13  2  0
 12 15  2  0
 12 16  4  0
 12 17  4  0
 14 17  4  0
 15 17  1  0
 15 18  4  0
 15 20  4  0
 15 21  4  0
 16 19  2  0
 17 18  4  0
 18 20  2  0
 18 21  4  0
 19 21  4  0
M  END
$$$$

 Created by Python create_sdf_string function

 28 28  0  0  0  0  0  0  0  0999 V2000
    5.5231   -8.0296   25.5643 O   0  0  0  0  0  0  0  0  0  0  0  0
    0.3826   -6.2111   27.5575 C   0  0  0  0  0  0  0  0  0  0  0  0
    3.7598   -7.9899   16.3790 C   0  0  0  0  0  0  0  0  0  0  0  0
    4.7997   -6.3400   26.9614 N   0  0  0  0  0  0  0  0  0  0  0  0
    2.4476   -4.5066   27.4001 C   0  0  0  0  0  0  0  0  0  0  0  0
    7.4881   -5.4976   28.7097 C   0  0  0  0  0  0  0  0  0  0  0  0
    9.0377   -6.1920   28.8056 C   0  0  0  0  0  0  0  0  0  0  0  0
    1.1965   -3.9014   27.8712 C   0  0  0  0  0  0  0  0  0  0  0  0
    3.5338   -8.6353   16.8896 C   0  0  0  0  0  0  0  0  0  0  0  0
   -1.3935   -3.1156   28.1137 O   0  0  0  0  0  0  0  0  0  0  0  0
   -1.1938   -4.3434   27.9275 C   0  0  0  0  0  0  0  0  0  0  0  0
    4.5280   -7.8798   15.5564 C   0  0  0  0  0  0  0  0  0  0  0  0
    5.4904   -8.2489   17.6597 C   0  0  0  0  0  0  0  0  0  0  0  0
   -2.1793   -5.1203   27.6327 O   0  0  0  0  0  0  0  0  0  0  0  0
   10.5731   -7.9974   27.9148 C   0  0  0  0  0  0  0  0  0  0  0  0
    6.8492   -6.0004   28.0514 C   0  0  0  0  0  0  0  0  0  0  0  0
    2.4243   -5.7739   27.0583 C   0  0  0  0  0  0  0  0  0  0  0  0
    9.1603   -7.2995   27.9876 C   0  0  0  0  0  0  0  0  0  0  0  0
    6.1188   -7.8690   16.4449 C   0  0  0  0  0  0  0  0  0  0  0  0
    1.4556   -6.5021   27.1097 C   0  0  0  0  0  0  0  0  0  0  0  0
    8.0819   -7.7492   27.3242 C   0  0  0  0  0  0  0  0  0  0  0  0
    5.7247   -7.2417   26.4754 C   0  0  0  0  0  0  0  0  0  0  0  0
    5.4217   -8.3635   17.9546 C   0  0  0  0  0  0  0  0  0  0  0  0
    6.0663   -7.5464   15.4428 C   0  0  0  0  0  0  0  0  0  0  0  0
    5.4492   -5.5332   27.8839 N   0  0  0  0  0  0  0  0  0  0  0  0
    7.0313   -7.0731   27.2730 C   0  0  0  0  0  0  0  0  0  0  0  0
    0.1388   -4.7869   27.8534 C   0  0  0  0  0  0  0  0  0  0  0  0
    3.5148   -6.4425   26.4418 C   0  0  0  0  0  0  0  0  0  0  0  0
  1 22  2  0
  2 20  4  0
  2 27  4  0
  3  9  4  0
  3 12  4  0
  4 22  4  0
  4 25  4  0
  4 28  1  0
  5  8  4  0
  5 17  4  0
  6  7  4  0
  6 16  4  0
  7 18  4  0
  8 27  4  0
 10 11  1  0
 11 14  2  0
 11 27  1  0
 13 19  4  0
 13 23  4  0
 15 18  1  0
 16 25  4  0
 16 26  4  0
 17 20  4  0
 17 28  1  0
 18 21  4  0
 19 24  1  0
 21 26  4  0
 22 26  4  0
M  END
$$$$

 Created by Python create_sdf_string function

 28 85  0  0  0  0  0  0  0  0999 V2000
    5.9630   -7.8414   25.8219 O   0  0  0  0  0  0  0  0  0  0  0  0
    0.7648   -6.5646   27.8407 O   0  0  0  0  0  0  0  0  0  0  0  0
    4.2757   -7.6929   16.3673 P   0  0  0  0  0  0  0  0  0  0  0  0
    4.9084   -6.1702   26.6849 N   0  0  0  0  0  0  0  0  0  0  0  0
    2.4081   -4.8383   27.4589 C   0  0  0  0  0  0  0  0  0  0  0  0
    7.9043   -4.5253   28.7739 N   0  0  0  0  0  0  0  0  0  0  0  0
    8.8649   -5.4553   28.6310 C   0  0  0  0  0  0  0  0  0  0  0  0
    1.6032   -3.6926   27.9301 S   0  0  0  0  0  0  0  0  0  0  0  0
    4.3887   -7.8381   16.7878 N   0  0  0  0  0  0  0  0  0  0  0  0
   -0.9736   -3.7625   27.4230 Se  0  0  0  0  0  0  0  0  0  0  0  0
   -1.3643   -4.4176   27.7507 C   0  0  0  0  0  0  0  0  0  0  0  0
    5.1453   -9.7471   15.2635 C   0  0  0  0  0  0  0  0  0  0  0  0
    5.3348   -8.4466   17.2426 F   0  0  0  0  0  0  0  0  0  0  0  0
   -2.5160   -4.8345   27.3955 O   0  0  0  0  0  0  0  0  0  0  0  0
   10.6289   -7.5403   28.2359 C   0  0  0  0  0  0  0  0  0  0  0  0
    6.9371   -5.9279   28.1796 C   0  0  0  0  0  0  0  0  0  0  0  0
    2.4914   -5.9568   26.9304 C   0  0  0  0  0  0  0  0  0  0  0  0
    9.3699   -7.3232   28.4190 C   0  0  0  0  0  0  0  0  0  0  0  0
    2.1313   -7.1420   26.9615 Br  0  0  0  0  0  0  0  0  0  0  0  0
    5.6780   -7.7255   26.2317 C   0  0  0  0  0  0  0  0  0  0  0  0
    6.0119   -8.0365   14.8132 O   0  0  0  0  0  0  0  0  0  0  0  0
    5.5781   -5.8377   27.7542 N   0  0  0  0  0  0  0  0  0  0  0  0
    6.4553   -7.7098   26.8093 C   0  0  0  0  0  0  0  0  0  0  0  0
   -0.1439   -4.7528   27.9785 C   0  0  0  0  0  0  0  0  0  0  0  0
    3.6059   -6.6385   26.5544 C   0  0  0  0  0  0  0  0  0  0  0  0
    6.3361   -7.9766   18.0681 He  0  0  0  0  0  0  0  0  0  0  0  0
    8.6266   -8.2540   27.5686 He  0  0  0  0  0  0  0  0  0  0  0  0
    5.3155   -7.6493   17.2010 He  0  0  0  0  0  0  0  0  0  0  0  0
  1  5  3  0
  1  8  1  0
  1  9  2  0
  1 12  3  0
  1 14  4  0
  1 25  4  0
  2  3  4  0
  2  6  4  0
  2  9  1  0
  2 12  1  0
  2 13  3  0
  2 19  4  0
  2 21  4  0
  2 22  3  0
  2 25  2  0
  3  4  2  0
  3  6  4  0
  3  9  4  0
  3 12  3  0
  3 13  4  0
  3 16  2  0
  3 17  3  0
  3 20  3  0
  3 22  3  0
  4  5  3  0
  4 13  4  0
  4 16  4  0
  4 20  4  0
  4 21  4  0
  4 22  4  0
  4 24  3  0
  4 25  1  0
  5  8  4  0
  5 18  3  0
  5 24  2  0
  6 10  3  0
  6 12  2  0
  6 14  2  0
  6 18  4  0
  6 20  4  0
  6 23  3  0
  6 25  3  0
  7 11  2  0
  7 12  1  0
  7 13  1  0
  7 18  4  0
  8 24  4  0
  9 15  4  0
  9 16  4  0
  9 18  2  0
  9 23  3  0
 10 11  1  0
 10 13  3  0
 10 18  3  0
 10 24  4  0
 11 13  1  0
 11 14  3  0
 11 19  4  0
 11 21  3  0
 11 24  1  0
 12 14  1  0
 12 18  2  0
 12 19  2  0
 12 20  4  0
 12 25  4  0
 13 14  3  0
 13 18  4  0
 13 19  2  0
 13 22  2  0
 13 24  3  0
 14 20  1  0
 15 16  2  0
 15 21  1  0
 16 19  4  0
 16 22  4  0
 16 23  4  0
 17 21  3  0
 17 25  1  0
 19 20  4  0
 19 21  4  0
 19 22  2  0
 19 23  1  0
 20 21  2  0
 21 24  3  0
 24 25  3  0
M  END
$$$$

 Created by Python create_sdf_string function

 28 28  0  0  0  0  0  0  0  0999 V2000
    5.5572   -8.4372   25.6984 O   0  0  0  0  0  0  0  0  0  0  0  0
    0.3275   -6.2678   27.4642 C   0  0  0  0  0  0  0  0  0  0  0  0
    3.8865   -8.0786   16.4880 C   0  0  0  0  0  0  0  0  0  0  0  0
    4.9297   -6.5842   26.8869 N   0  0  0  0  0  0  0  0  0  0  0  0
    2.5393   -4.6482   27.3720 C   0  0  0  0  0  0  0  0  0  0  0  0
    7.6076   -5.3530   28.5406 C   0  0  0  0  0  0  0  0  0  0  0  0
    8.9086   -5.8481   28.6457 C   0  0  0  0  0  0  0  0  0  0  0  0
    1.3059   -4.0161   27.6915 C   0  0  0  0  0  0  0  0  0  0  0  0
    4.1004   -8.0522   16.5680 C   0  0  0  0  0  0  0  0  0  0  0  0
   -1.4647   -3.2930   27.5414 O   0  0  0  0  0  0  0  0  0  0  0  0
   -1.2354   -4.5230   27.5844 C   0  0  0  0  0  0  0  0  0  0  0  0
    5.3125   -9.0216   15.6035 C   0  0  0  0  0  0  0  0  0  0  0  0
    5.0359   -8.2525   17.3656 C   0  0  0  0  0  0  0  0  0  0  0  0
   -2.2489   -5.2411   27.5226 O   0  0  0  0  0  0  0  0  0  0  0  0
   10.5438   -7.6902   28.2256 C   0  0  0  0  0  0  0  0  0  0  0  0
    6.7659   -6.0326   27.8542 C   0  0  0  0  0  0  0  0  0  0  0  0
    2.5409   -5.9808   27.0450 C   0  0  0  0  0  0  0  0  0  0  0  0
    9.2330   -7.1107   28.0846 C   0  0  0  0  0  0  0  0  0  0  0  0
    6.0943   -8.0787   17.7905 C   0  0  0  0  0  0  0  0  0  0  0  0
    1.4518   -6.8543   27.2331 C   0  0  0  0  0  0  0  0  0  0  0  0
    8.2302   -7.8169   27.3899 C   0  0  0  0  0  0  0  0  0  0  0  0
    5.7967   -7.6049   26.4988 C   0  0  0  0  0  0  0  0  0  0  0  0
    5.7554   -7.8510   17.2639 C   0  0  0  0  0  0  0  0  0  0  0  0
    5.7577   -8.3569   15.3986 C   0  0  0  0  0  0  0  0  0  0  0  0
    5.5117   -5.6853   27.6799 N   0  0  0  0  0  0  0  0  0  0  0  0
    7.0224   -7.2395   27.2156 C   0  0  0  0  0  0  0  0  0  0  0  0
    0.1717   -4.9423   27.6236 C   0  0  0  0  0  0  0  0  0  0  0  0
    3.6644   -6.5843   26.3239 C   0  0  0  0  0  0  0  0  0  0  0  0
  1 22  2  0
  2 20  4  0
  2 27  4  0
  3  9  4  0
  3 13  4  0
  4 22  4  0
  4 25  4  0
  4 28  1  0
  5  8  4  0
  5 17  4  0
  6  7  4  0
  6 16  4  0
  7 18  4  0
  8 27  4  0
 10 11  1  0
 11 14  2  0
 11 27  1  0
 12 24  4  0
 15 18  1  0
 16 25  4  0
 16 26  4  0
 17 20  4  0
 17 28  1  0
 18 21  4  0
 19 23  4  0
 21 26  4  0
 22 26  4  0
 23 24  4  0
M  END
$$$$

 Created by Python create_sdf_string function

 28 70  0  0  0  0  0  0  0  0999 V2000
    5.6387   -8.4021   25.3101 O   0  0  0  0  0  0  0  0  0  0  0  0
    0.0664   -6.1976   27.4664 C   0  0  0  0  0  0  0  0  0  0  0  0
    4.8858   -7.0544   15.4131 F   0  0  0  0  0  0  0  0  0  0  0  0
    5.1616   -6.8857   27.3786 N   0  0  0  0  0  0  0  0  0  0  0  0
    2.6596   -4.2186   27.3245 C   0  0  0  0  0  0  0  0  0  0  0  0
    8.9806   -5.9369   28.4111 C   0  0  0  0  0  0  0  0  0  0  0  0
    1.2162   -3.4804   28.0889 C   0  0  0  0  0  0  0  0  0  0  0  0
   -1.2457   -3.6211   27.4492 O   0  0  0  0  0  0  0  0  0  0  0  0
   -1.1645   -4.3723   27.3819 C   0  0  0  0  0  0  0  0  0  0  0  0
    3.4539   -7.9441   17.6477 Cl  0  0  0  0  0  0  0  0  0  0  0  0
   -2.1882   -4.7513   27.5256 C   0  0  0  0  0  0  0  0  0  0  0  0
   10.4873   -7.6757   28.3830 C   0  0  0  0  0  0  0  0  0  0  0  0
    6.7710   -6.4782   27.9087 C   0  0  0  0  0  0  0  0  0  0  0  0
    2.8022   -5.7001   26.8113 C   0  0  0  0  0  0  0  0  0  0  0  0
    4.6332   -9.4984   18.7259 P   0  0  0  0  0  0  0  0  0  0  0  0
    1.9790   -6.9291   27.4847 O   0  0  0  0  0  0  0  0  0  0  0  0
    5.9445   -8.0256   26.6103 C   0  0  0  0  0  0  0  0  0  0  0  0
    6.2850   -7.7771   16.9411 O   0  0  0  0  0  0  0  0  0  0  0  0
    6.4866   -8.4699   16.6371 C   0  0  0  0  0  0  0  0  0  0  0  0
    5.5375   -6.0058   28.1279 N   0  0  0  0  0  0  0  0  0  0  0  0
    6.6067   -7.6963   27.6662 C   0  0  0  0  0  0  0  0  0  0  0  0
    0.3165   -4.7924   27.7128 C   0  0  0  0  0  0  0  0  0  0  0  0
    3.6199   -5.9872   27.0069 C   0  0  0  0  0  0  0  0  0  0  0  0
    8.3390   -4.5335   27.5588 He  0  0  0  0  0  0  0  0  0  0  0  0
    3.6089   -8.2662   15.9840 He  0  0  0  0  0  0  0  0  0  0  0  0
    4.8954   -9.8871   14.7841 He  0  0  0  0  0  0  0  0  0  0  0  0
    9.6987   -7.1017   28.1457 He  0  0  0  0  0  0  0  0  0  0  0  0
    8.0910   -7.9955   27.2221 He  0  0  0  0  0  0  0  0  0  0  0  0
  1  3  2  0
  1  5  3  0
  1  8  4  0
  1 10  4  0
  1 14  3  0
  1 16  4  0
  1 23  1  0
  2 12  4  0
  2 16  4  0
  2 18  3  0
  2 19  2  0
  2 23  3  0
  3  4  2  0
  3  5  2  0
  3  7  1  0
  3  9  3  0
  3 13  3  0
  3 15  4  0
  3 16  2  0
  3 18  1  0
  3 21  2  0
  3 22  4  0
  4 16  1  0
  4 17  4  0
  4 19  1  0
  4 20  4  0
  4 23  1  0
  5  7  4  0
  5 13  1  0
  5 14  2  0
  5 18  3  0
  5 20  2  0
  6  8  3  0
  6 10  4  0
  6 18  3  0
  6 19  4  0
  6 21  2  0
  7 10  4  0
  7 12  2  0
  7 16  2  0
  7 18  1  0
  7 22  4  0
  8 12  3  0
  8 18  2  0
  9 10  1  0
  9 11  1  0
  9 18  4  0
  9 20  3  0
  9 22  1  0
 10 14  4  0
 12 17  2  0
 12 23  2  0
 13 15  1  0
 13 16  2  0
 13 21  4  0
 13 22  2  0
 14 15  4  0
 14 23  1  0
 15 17  4  0
 15 18  1  0
 15 19  4  0
 15 23  4  0
 16 17  1  0
 16 19  1  0
 16 22  4  0
 17 21  4  0
 19 21  3  0
 19 22  4  0
 20 23  2  0
 21 23  4  0
M  END
$$$$

 Created by Python create_sdf_string function

 28 28  0  0  0  0  0  0  0  0999 V2000
    5.4291   -8.4979   25.7783 O   0  0  0  0  0  0  0  0  0  0  0  0
    0.4189   -6.1531   27.3562 C   0  0  0  0  0  0  0  0  0  0  0  0
    4.8060   -7.9918   15.5674 C   0  0  0  0  0  0  0  0  0  0  0  0
    4.9439   -6.6243   27.0949 N   0  0  0  0  0  0  0  0  0  0  0  0
    2.6039   -4.4890   27.4173 C   0  0  0  0  0  0  0  0  0  0  0  0
    7.9275   -5.4484   28.2068 C   0  0  0  0  0  0  0  0  0  0  0  0
    9.1277   -5.8800   28.1402 C   0  0  0  0  0  0  0  0  0  0  0  0
    1.3171   -3.8493   27.6161 C   0  0  0  0  0  0  0  0  0  0  0  0
    3.6361   -8.1991   16.2719 C   0  0  0  0  0  0  0  0  0  0  0  0
   -1.3530   -3.1482   27.4490 O   0  0  0  0  0  0  0  0  0  0  0  0
   -1.0983   -4.3202   27.5209 C   0  0  0  0  0  0  0  0  0  0  0  0
    5.1417   -9.1861   15.3310 C   0  0  0  0  0  0  0  0  0  0  0  0
    3.7015   -8.5130   16.8278 C   0  0  0  0  0  0  0  0  0  0  0  0
   -2.1893   -5.1259   27.5067 C   0  0  0  0  0  0  0  0  0  0  0  0
   10.6109   -7.8124   28.0707 C   0  0  0  0  0  0  0  0  0  0  0  0
    6.9542   -6.1543   27.8429 C   0  0  0  0  0  0  0  0  0  0  0  0
    2.6473   -5.7497   27.1267 C   0  0  0  0  0  0  0  0  0  0  0  0
    9.3134   -7.1779   27.8765 C   0  0  0  0  0  0  0  0  0  0  0  0
    5.0016   -9.0597   17.7348 C   0  0  0  0  0  0  0  0  0  0  0  0
    1.5220   -6.6653   27.1364 C   0  0  0  0  0  0  0  0  0  0  0  0
    8.2433   -7.9647   27.4294 C   0  0  0  0  0  0  0  0  0  0  0  0
    5.7388   -7.7046   26.6159 C   0  0  0  0  0  0  0  0  0  0  0  0
    6.0877   -8.1034   17.0353 C   0  0  0  0  0  0  0  0  0  0  0  0
    6.1983   -8.5674   16.8334 C   0  0  0  0  0  0  0  0  0  0  0  0
    5.6576   -5.7491   27.9124 N   0  0  0  0  0  0  0  0  0  0  0  0
    7.0326   -7.4055   27.2325 C   0  0  0  0  0  0  0  0  0  0  0  0
    0.2360   -4.7795   27.5298 C   0  0  0  0  0  0  0  0  0  0  0  0
    3.7585   -6.4329   26.5255 C   0  0  0  0  0  0  0  0  0  0  0  0
  1 22  2  0
  2 20  4  0
  2 27  4  0
  3  9  1  0
  3 12  1  0
  4 22  4  0
  4 25  4  0
  4 28  1  0
  5  8  4  0
  5 17  4  0
  6  7  4  0
  6 16  4  0
  7 18  4  0
  8 27  4  0
  9 13  1  0
 10 11  2  0
 11 14  1  0
 11 27  1  0
 13 19  4  0
 15 18  1  0
 16 25  4  0
 16 26  4  0
 17 20  4  0
 17 28  1  0
 18 21  4  0
 21 26  4  0
 22 26  4  0
 23 24  1  0
M  END
$$$$

 Created by Python create_sdf_string function

 28 44  0  0  0  0  0  0  0  0999 V2000
    5.9442   -8.6445   25.8103 Br  0  0  0  0  0  0  0  0  0  0  0  0
    0.3606   -6.4190   26.8872 N   0  0  0  0  0  0  0  0  0  0  0  0
    2.7180   -4.6319   27.2593 P   0  0  0  0  0  0  0  0  0  0  0  0
    1.2894   -4.1272   27.8704 C   0  0  0  0  0  0  0  0  0  0  0  0
    4.8563   -9.2115   16.7900 N   0  0  0  0  0  0  0  0  0  0  0  0
   -1.0617   -3.4357   27.5036 O   0  0  0  0  0  0  0  0  0  0  0  0
   -1.0779   -4.0220   27.6300 P   0  0  0  0  0  0  0  0  0  0  0  0
    4.5872   -9.1536   16.4284 C   0  0  0  0  0  0  0  0  0  0  0  0
   -2.6252   -4.8858   27.2889 N   0  0  0  0  0  0  0  0  0  0  0  0
   10.6645   -7.6166   27.7653 S   0  0  0  0  0  0  0  0  0  0  0  0
    6.6787   -6.4520   27.3352 C   0  0  0  0  0  0  0  0  0  0  0  0
    2.5804   -5.9917   27.6508 C   0  0  0  0  0  0  0  0  0  0  0  0
    9.5458   -6.9550   28.0214 C   0  0  0  0  0  0  0  0  0  0  0  0
    8.2011   -7.9850   27.4111 C   0  0  0  0  0  0  0  0  0  0  0  0
    6.1084   -8.5283   26.9178 C   0  0  0  0  0  0  0  0  0  0  0  0
    6.6414   -9.0062   18.3104 F   0  0  0  0  0  0  0  0  0  0  0  0
    6.1629   -5.9448   27.9048 C   0  0  0  0  0  0  0  0  0  0  0  0
    6.8208   -6.9447   27.5758 C   0  0  0  0  0  0  0  0  0  0  0  0
    0.5870   -4.6154   27.2660 C   0  0  0  0  0  0  0  0  0  0  0  0
    4.0104   -6.6214   26.3010 C   0  0  0  0  0  0  0  0  0  0  0  0
    3.7277   -7.7606   14.4149 He  0  0  0  0  0  0  0  0  0  0  0  0
    5.2281   -6.1746   27.4590 He  0  0  0  0  0  0  0  0  0  0  0  0
    7.5244   -4.3493   27.9109 He  0  0  0  0  0  0  0  0  0  0  0  0
    9.0856   -5.7061   27.9803 He  0  0  0  0  0  0  0  0  0  0  0  0
    6.1142   -9.4062   15.4248 He  0  0  0  0  0  0  0  0  0  0  0  0
    5.9685   -9.1415   17.1469 He  0  0  0  0  0  0  0  0  0  0  0  0
    1.5200   -7.4033   29.0425 He  0  0  0  0  0  0  0  0  0  0  0  0
    6.9932   -9.4875   17.2438 He  0  0  0  0  0  0  0  0  0  0  0  0
  1 17  3  0
  2  5  2  0
  2  8  3  0
  2 14  2  0
  2 15  2  0
  2 19  4  0
  2 20  2  0
  3 12  4  0
  5  8  1  0
  5 11  1  0
  5 13  1  0
  5 14  1  0
  5 15  1  0
  5 18  1  0
  6  7  2  0
  6 16  3  0
  6 19  3  0
  7  8  1  0
  7  9  1  0
  8 10  1  0
  8 12  4  0
  8 14  2  0
  8 18  2  0
  8 19  1  0
  8 20  2  0
  9 10  2  0
 10 13  4  0
 10 16  4  0
 10 20  4  0
 11 15  2  0
 11 16  4  0
 11 17  4  0
 12 14  3  0
 12 20  1  0
 13 14  4  0
 13 16  3  0
 13 18  2  0
 14 15  1  0
 14 18  4  0
 15 16  2  0
 15 18  4  0
 15 20  3  0
 16 18  2  0
 16 19  2  0
M  END
$$$$

 Created by Python create_sdf_string function

 28 27  0  0  0  0  0  0  0  0999 V2000
    5.6152   -8.5520   26.1716 N   0  0  0  0  0  0  0  0  0  0  0  0
    0.3834   -6.3098   27.3886 C   0  0  0  0  0  0  0  0  0  0  0  0
    4.3855   -8.4736   15.2225 C   0  0  0  0  0  0  0  0  0  0  0  0
    5.0240   -6.6416   27.1144 C   0  0  0  0  0  0  0  0  0  0  0  0
    2.6086   -4.6873   27.5126 C   0  0  0  0  0  0  0  0  0  0  0  0
    8.1014   -5.1166   27.9659 C   0  0  0  0  0  0  0  0  0  0  0  0
    9.2046   -5.5619   28.0181 C   0  0  0  0  0  0  0  0  0  0  0  0
    1.4070   -4.0213   27.5801 C   0  0  0  0  0  0  0  0  0  0  0  0
    4.3143   -8.9375   16.6767 C   0  0  0  0  0  0  0  0  0  0  0  0
   -1.1786   -3.0681   27.5371 O   0  0  0  0  0  0  0  0  0  0  0  0
   -1.0359   -4.2848   27.4069 C   0  0  0  0  0  0  0  0  0  0  0  0
    5.8214   -9.0593   15.6725 C   0  0  0  0  0  0  0  0  0  0  0  0
    4.4136   -8.9795   16.7645 C   0  0  0  0  0  0  0  0  0  0  0  0
   -2.1447   -5.0552   27.2353 N   0  0  0  0  0  0  0  0  0  0  0  0
   10.7071   -7.5396   27.8539 C   0  0  0  0  0  0  0  0  0  0  0  0
    7.0349   -5.9073   27.6498 C   0  0  0  0  0  0  0  0  0  0  0  0
    2.6055   -6.0305   27.2685 C   0  0  0  0  0  0  0  0  0  0  0  0
    9.4730   -6.9745   27.7994 C   0  0  0  0  0  0  0  0  0  0  0  0
    5.6276   -8.8933   17.4586 C   0  0  0  0  0  0  0  0  0  0  0  0
    1.5177   -6.8816   27.2487 C   0  0  0  0  0  0  0  0  0  0  0  0
    8.3471   -7.8095   27.4354 C   0  0  0  0  0  0  0  0  0  0  0  0
    5.8638   -7.7064   26.7927 C   0  0  0  0  0  0  0  0  0  0  0  0
    6.0396   -8.7581   17.9070 C   0  0  0  0  0  0  0  0  0  0  0  0
    6.4746   -8.9704   17.1806 C   0  0  0  0  0  0  0  0  0  0  0  0
    5.8210   -5.6025   27.6251 C   0  0  0  0  0  0  0  0  0  0  0  0
    7.1321   -7.3034   27.2471 C   0  0  0  0  0  0  0  0  0  0  0  0
    0.3072   -4.9052   27.4663 C   0  0  0  0  0  0  0  0  0  0  0  0
    3.7598   -6.7795   26.7977 C   0  0  0  0  0  0  0  0  0  0  0  0
  1 22  4  0
  2 20  4  0
  2 27  4  0
  3 12  4  0
  4 22  4  0
  4 25  4  0
  4 28  1  0
  5  8  4  0
  5 17  4  0
  6  7  4  0
  6 16  4  0
  7 18  4  0
  8 27  4  0
  9 13  4  0
 10 11  2  0
 11 14  1  0
 11 27  1  0
 15 18  1  0
 16 25  4  0
 16 26  4  0
 17 20  4  0
 17 28  1  0
 18 21  4  0
 19 23  4  0
 21 26  4  0
 22 26  4  0
 23 24  4  0
M  END
$$$$

 Created by Python create_sdf_string function

 28 47  0  0  0  0  0  0  0  0999 V2000
    6.1016   -8.5787   26.4856 N   0  0  0  0  0  0  0  0  0  0  0  0
    0.1826   -6.0263   27.3284 C   0  0  0  0  0  0  0  0  0  0  0  0
    4.9388   -6.7532   27.2730 C   0  0  0  0  0  0  0  0  0  0  0  0
    9.6058   -5.3761   28.2494 S   0  0  0  0  0  0  0  0  0  0  0  0
    0.9866   -3.8012   27.4662 C   0  0  0  0  0  0  0  0  0  0  0  0
    5.4015   -7.9411   18.7504 N   0  0  0  0  0  0  0  0  0  0  0  0
   -0.9688   -3.2624   27.7316 O   0  0  0  0  0  0  0  0  0  0  0  0
   -1.4083   -4.4064   27.3906 C   0  0  0  0  0  0  0  0  0  0  0  0
    5.0256  -11.0344   15.0298 C   0  0  0  0  0  0  0  0  0  0  0  0
   -1.9633   -4.7853   27.8151 N   0  0  0  0  0  0  0  0  0  0  0  0
    7.0382   -5.8019   27.2401 C   0  0  0  0  0  0  0  0  0  0  0  0
    2.9397   -5.7771   27.8033 B   0  0  0  0  0  0  0  0  0  0  0  0
    5.8288   -9.1755   17.1716 C   0  0  0  0  0  0  0  0  0  0  0  0
    1.2169   -6.9495   27.1519 Cl  0  0  0  0  0  0  0  0  0  0  0  0
    8.5953   -7.7126   27.2834 C   0  0  0  0  0  0  0  0  0  0  0  0
    5.9802   -8.1374   26.6270 C   0  0  0  0  0  0  0  0  0  0  0  0
    5.8395   -8.2201   19.5793 C   0  0  0  0  0  0  0  0  0  0  0  0
    5.8557   -5.1678   27.6789 C   0  0  0  0  0  0  0  0  0  0  0  0
    7.3880   -7.4589   27.8997 C   0  0  0  0  0  0  0  0  0  0  0  0
   -0.2318   -4.5771   27.0653 C   0  0  0  0  0  0  0  0  0  0  0  0
    3.4298   -6.8719   26.8578 O   0  0  0  0  0  0  0  0  0  0  0  0
    4.0916   -7.7939   15.4197 He  0  0  0  0  0  0  0  0  0  0  0  0
    2.7588   -4.6650   27.6986 He  0  0  0  0  0  0  0  0  0  0  0  0
    7.2138   -5.8526   28.6598 He  0  0  0  0  0  0  0  0  0  0  0  0
    5.8465   -8.4291   16.1013 He  0  0  0  0  0  0  0  0  0  0  0  0
   10.8865   -7.8677   27.8289 He  0  0  0  0  0  0  0  0  0  0  0  0
    9.1869   -7.2328   27.7693 He  0  0  0  0  0  0  0  0  0  0  0  0
    8.1858   -8.5419   17.0502 He  0  0  0  0  0  0  0  0  0  0  0  0
  1  4  4  0
  1 12  3  0
  1 13  4  0
  1 14  2  0
  1 16  4  0
  2  6  3  0
  2 13  2  0
  2 20  4  0
  2 21  4  0
  3 14  3  0
  3 17  1  0
  3 18  4  0
  4 14  3  0
  4 15  4  0
  4 16  1  0
  4 18  4  0
  5  6  1  0
  5 15  2  0
  6  8  1  0
  6  9  1  0
  6 17  3  0
  6 21  1  0
  7  8  4  0
  7 10  4  0
  7 19  4  0
  8 10  4  0
  8 11  4  0
  8 17  1  0
  8 20  1  0
  9 12  4  0
  9 15  1  0
  9 16  3  0
  9 19  4  0
  9 21  2  0
 10 16  2  0
 10 19  2  0
 11 18  4  0
 11 19  4  0
 12 14  1  0
 12 17  3  0
 12 21  1  0
 13 15  1  0
 13 18  3  0
 15 17  1  0
 15 19  4  0
 16 19  4  0
 17 19  1  0
M  END
$$$$

 Created by Python create_sdf_string function

 28 26  0  0  0  0  0  0  0  0999 V2000
    5.5150   -7.9413   26.6734 N   0  0  0  0  0  0  0  0  0  0  0  0
    0.4188   -6.1566   27.1719 C   0  0  0  0  0  0  0  0  0  0  0  0
    4.4448   -8.3953   16.1609 C   0  0  0  0  0  0  0  0  0  0  0  0
    4.9030   -6.6835   27.1575 C   0  0  0  0  0  0  0  0  0  0  0  0
    2.6932   -4.6379   27.4385 C   0  0  0  0  0  0  0  0  0  0  0  0
    8.0734   -5.2903   28.1612 C   0  0  0  0  0  0  0  0  0  0  0  0
    9.2367   -5.8249   28.3050 C   0  0  0  0  0  0  0  0  0  0  0  0
    1.3861   -3.9603   27.4955 C   0  0  0  0  0  0  0  0  0  0  0  0
    5.6277   -8.3487   17.8568 C   0  0  0  0  0  0  0  0  0  0  0  0
   -1.2329   -3.0230   27.6055 O   0  0  0  0  0  0  0  0  0  0  0  0
   -1.0475   -4.2815   27.5132 C   0  0  0  0  0  0  0  0  0  0  0  0
    5.5232   -8.7336   16.2318 C   0  0  0  0  0  0  0  0  0  0  0  0
    5.0821   -9.9008   15.5627 C   0  0  0  0  0  0  0  0  0  0  0  0
   -2.0654   -5.0170   27.4624 O   0  0  0  0  0  0  0  0  0  0  0  0
   10.8967   -7.7480   27.7523 C   0  0  0  0  0  0  0  0  0  0  0  0
    7.0187   -6.0562   27.7120 C   0  0  0  0  0  0  0  0  0  0  0  0
    2.7055   -5.9040   27.2780 C   0  0  0  0  0  0  0  0  0  0  0  0
    9.5669   -7.1496   27.8294 C   0  0  0  0  0  0  0  0  0  0  0  0
    6.1844   -9.1718   16.8566 C   0  0  0  0  0  0  0  0  0  0  0  0
    1.6024   -6.7246   27.1672 C   0  0  0  0  0  0  0  0  0  0  0  0
    8.5357   -7.8406   27.3565 C   0  0  0  0  0  0  0  0  0  0  0  0
    6.0149   -7.9977   26.7082 C   0  0  0  0  0  0  0  0  0  0  0  0
    6.0157   -8.3989   18.3232 C   0  0  0  0  0  0  0  0  0  0  0  0
    7.2128   -8.5992   17.0451 C   0  0  0  0  0  0  0  0  0  0  0  0
    5.6264   -5.7516   27.6184 C   0  0  0  0  0  0  0  0  0  0  0  0
    7.2661   -7.3404   27.2750 C   0  0  0  0  0  0  0  0  0  0  0  0
    0.2426   -4.7762   27.4108 C   0  0  0  0  0  0  0  0  0  0  0  0
    3.6601   -6.7984   26.9970 N   0  0  0  0  0  0  0  0  0  0  0  0
  1  4  4  0
  1 22  4  0
  2 20  4  0
  2 27  4  0
  3 12  4  0
  4 25  4  0
  4 28  1  0
  5  8  4  0
  5 17  4  0
  6  7  4  0
  6 16  4  0
  7 18  4  0
  8 27  4  0
  9 23  4  0
 10 11  2  0
 11 14  2  0
 11 27  1  0
 12 19  4  0
 15 18  1  0
 16 25  4  0
 16 26  4  0
 17 20  4  0
 17 28  1  0
 18 21  4  0
 21 26  4  0
 22 26  4  0
M  END
$$$$

 Created by Python create_sdf_string function

 28 54  0  0  0  0  0  0  0  0999 V2000
    5.6327   -7.5604   26.4537 N   0  0  0  0  0  0  0  0  0  0  0  0
    0.9134   -5.2113   27.2947 C   0  0  0  0  0  0  0  0  0  0  0  0
    4.8517   -6.8185   27.2141 C   0  0  0  0  0  0  0  0  0  0  0  0
    2.4601   -4.5691   26.9714 C   0  0  0  0  0  0  0  0  0  0  0  0
    8.8086   -5.9757   27.6222 C   0  0  0  0  0  0  0  0  0  0  0  0
    9.4236   -6.3399   28.4533 N   0  0  0  0  0  0  0  0  0  0  0  0
    2.3305   -4.2882   27.0631 C   0  0  0  0  0  0  0  0  0  0  0  0
   -1.8557   -2.7322   27.3803 O   0  0  0  0  0  0  0  0  0  0  0  0
   -0.9736   -4.1636   27.2198 C   0  0  0  0  0  0  0  0  0  0  0  0
   -2.2773   -5.5325   27.9930 O   0  0  0  0  0  0  0  0  0  0  0  0
    6.6487   -6.0075   27.6944 S   0  0  0  0  0  0  0  0  0  0  0  0
    2.6801   -6.0724   27.5177 C   0  0  0  0  0  0  0  0  0  0  0  0
    9.6235   -7.2062   28.0563 C   0  0  0  0  0  0  0  0  0  0  0  0
    6.1136   -9.6780   15.8286 C   0  0  0  0  0  0  0  0  0  0  0  0
    0.5824   -8.6576   27.5487 P   0  0  0  0  0  0  0  0  0  0  0  0
    5.5916   -7.9979   26.5295 C   0  0  0  0  0  0  0  0  0  0  0  0
    5.7946  -10.3880   19.7798 I   0  0  0  0  0  0  0  0  0  0  0  0
    5.8653   -5.7631   27.9216 C   0  0  0  0  0  0  0  0  0  0  0  0
    7.4660   -7.4634   27.1271 F   0  0  0  0  0  0  0  0  0  0  0  0
    0.3633   -4.4347   27.7317 C   0  0  0  0  0  0  0  0  0  0  0  0
    5.1919  -10.2357   15.6873 He  0  0  0  0  0  0  0  0  0  0  0  0
    6.0828   -6.9530   17.7737 He  0  0  0  0  0  0  0  0  0  0  0  0
    4.9794   -9.0473   16.2065 He  0  0  0  0  0  0  0  0  0  0  0  0
    5.5445   -8.5561   15.3544 He  0  0  0  0  0  0  0  0  0  0  0  0
   10.7345   -7.8200   27.1494 He  0  0  0  0  0  0  0  0  0  0  0  0
    8.3977   -8.1381   27.5147 He  0  0  0  0  0  0  0  0  0  0  0  0
    6.0662   -7.6093   16.6898 He  0  0  0  0  0  0  0  0  0  0  0  0
    3.3572   -7.1326   27.1164 He  0  0  0  0  0  0  0  0  0  0  0  0
  1  3  1  0
  1  5  2  0
  1  7  2  0
  1  8  2  0
  1 16  4  0
  2 10  2  0
  2 14  2  0
  2 15  2  0
  2 18  1  0
  3 10  2  0
  3 11  1  0
  3 16  1  0
  3 18  4  0
  4  7  4  0
  4 14  3  0
  4 15  3  0
  4 17  4  0
  5  7  1  0
  5  9  2  0
  5 10  2  0
  5 12  2  0
  5 14  4  0
  5 15  1  0
  5 19  2  0
  6  7  1  0
  6  8  3  0
  6 13  4  0
  7 16  2  0
  7 18  2  0
  7 19  2  0
  7 20  4  0
  8  9  2  0
  8 15  4  0
  8 20  1  0
  9 10  2  0
  9 14  2  0
  9 15  1  0
  9 17  1  0
  9 20  1  0
 10 14  3  0
 10 17  4  0
 10 19  2  0
 11 15  1  0
 11 17  2  0
 11 18  4  0
 11 19  4  0
 12 18  1  0
 13 20  2  0
 14 19  3  0
 14 20  4  0
 15 16  2  0
 15 20  4  0
 16 17  3  0
 17 19  3  0
M  END
$$$$

 Created by Python create_sdf_string function

 28 29  0  0  0  0  0  0  0  0999 V2000
    5.0676   -7.7907   26.4506 N   0  0  0  0  0  0  0  0  0  0  0  0
    0.4409   -6.1189   27.4410 C   0  0  0  0  0  0  0  0  0  0  0  0
    5.1233  -10.0424   16.4927 C   0  0  0  0  0  0  0  0  0  0  0  0
    4.6860   -6.6743   27.2113 C   0  0  0  0  0  0  0  0  0  0  0  0
    2.5891   -4.5918   27.0493 C   0  0  0  0  0  0  0  0  0  0  0  0
    8.0645   -5.7233   28.2425 C   0  0  0  0  0  0  0  0  0  0  0  0
    9.2649   -6.2198   28.1984 N   0  0  0  0  0  0  0  0  0  0  0  0
    1.4616   -3.8905   27.1262 C   0  0  0  0  0  0  0  0  0  0  0  0
    6.1620   -7.8787   17.9127 C   0  0  0  0  0  0  0  0  0  0  0  0
   -1.3574   -3.1171   27.2838 O   0  0  0  0  0  0  0  0  0  0  0  0
   -1.0496   -4.2605   27.4486 C   0  0  0  0  0  0  0  0  0  0  0  0
    4.9038   -9.4910   16.7067 C   0  0  0  0  0  0  0  0  0  0  0  0
    5.8242   -8.4686   15.7389 C   0  0  0  0  0  0  0  0  0  0  0  0
   -1.9991   -5.1210   27.7107 O   0  0  0  0  0  0  0  0  0  0  0  0
   10.7257   -8.0391   27.5074 C   0  0  0  0  0  0  0  0  0  0  0  0
    6.9670   -6.2755   27.7346 C   0  0  0  0  0  0  0  0  0  0  0  0
    2.5120   -6.0234   27.2009 C   0  0  0  0  0  0  0  0  0  0  0  0
    9.5149   -7.4902   27.6256 C   0  0  0  0  0  0  0  0  0  0  0  0
    5.8839   -9.4825   16.1392 C   0  0  0  0  0  0  0  0  0  0  0  0
    1.3726   -6.7474   27.3718 C   0  0  0  0  0  0  0  0  0  0  0  0
    8.4864   -8.1303   27.1851 N   0  0  0  0  0  0  0  0  0  0  0  0
    6.0138   -8.1230   26.4984 C   0  0  0  0  0  0  0  0  0  0  0  0
    5.6323   -9.0255   18.1931 C   0  0  0  0  0  0  0  0  0  0  0  0
    6.2269   -7.7495   17.1379 C   0  0  0  0  0  0  0  0  0  0  0  0
    5.6511   -5.8676   27.7173 C   0  0  0  0  0  0  0  0  0  0  0  0
    7.2024   -7.4708   27.1527 C   0  0  0  0  0  0  0  0  0  0  0  0
    0.3257   -4.7282   27.3460 C   0  0  0  0  0  0  0  0  0  0  0  0
    3.5520   -6.8894   27.1475 N   0  0  0  0  0  0  0  0  0  0  0  0
  1  4  4  0
  1 22  4  0
  2 20  4  0
  2 27  4  0
  3 12  4  0
  3 19  4  0
  4 25  4  0
  4 28  1  0
  5  8  4  0
  5 17  4  0
  6  7  4  0
  6 16  4  0
  7 18  4  0
  8 27  4  0
  9 23  4  0
  9 24  4  0
 10 11  2  0
 11 14  2  0
 11 27  1  0
 13 19  4  0
 13 24  4  0
 15 18  1  0
 16 25  4  0
 16 26  4  0
 17 20  4  0
 17 28  1  0
 18 21  4  0
 21 26  4  0
 22 26  4  0
M  END
$$$$

 Created by Python create_sdf_string function

 28 75  0  0  0  0  0  0  0  0999 V2000
    5.5454   -7.8286   26.0975 N   0  0  0  0  0  0  0  0  0  0  0  0
    0.4772   -6.3274   27.2512 C   0  0  0  0  0  0  0  0  0  0  0  0
    5.2472  -10.3367   15.9439 B   0  0  0  0  0  0  0  0  0  0  0  0
    4.7154   -6.7776   27.3476 C   0  0  0  0  0  0  0  0  0  0  0  0
    2.3580   -4.0438   27.1288 C   0  0  0  0  0  0  0  0  0  0  0  0
    8.1361   -6.0374   28.1973 C   0  0  0  0  0  0  0  0  0  0  0  0
    9.3181   -6.2617   27.9156 N   0  0  0  0  0  0  0  0  0  0  0  0
    1.3414   -4.1002   27.4556 C   0  0  0  0  0  0  0  0  0  0  0  0
    5.1439   -8.0219   17.0761 C   0  0  0  0  0  0  0  0  0  0  0  0
   -0.7424   -3.9091   26.8135 C   0  0  0  0  0  0  0  0  0  0  0  0
    5.3870   -8.8649   15.2170 O   0  0  0  0  0  0  0  0  0  0  0  0
   -2.1269   -5.1814   27.4802 O   0  0  0  0  0  0  0  0  0  0  0  0
   10.5119   -8.1622   27.0841 C   0  0  0  0  0  0  0  0  0  0  0  0
    7.1480   -6.1990   28.2740 C   0  0  0  0  0  0  0  0  0  0  0  0
    3.3924   -5.9600   27.6670 Cl  0  0  0  0  0  0  0  0  0  0  0  0
    9.1872   -7.6160   27.8628 C   0  0  0  0  0  0  0  0  0  0  0  0
    6.3959   -8.2263   16.4413 B   0  0  0  0  0  0  0  0  0  0  0  0
    8.4951   -7.9675   26.6722 N   0  0  0  0  0  0  0  0  0  0  0  0
    6.2288   -8.3403   26.4062 N   0  0  0  0  0  0  0  0  0  0  0  0
    5.9397   -8.3481   17.2598 C   0  0  0  0  0  0  0  0  0  0  0  0
    5.8561   -6.3376   27.7274 C   0  0  0  0  0  0  0  0  0  0  0  0
    7.0789   -7.4764   27.4875 C   0  0  0  0  0  0  0  0  0  0  0  0
   -0.0393   -4.9638   27.7073 C   0  0  0  0  0  0  0  0  0  0  0  0
    3.5296   -6.9790   27.1847 N   0  0  0  0  0  0  0  0  0  0  0  0
   -1.2722   -3.2112   27.3183 He  0  0  0  0  0  0  0  0  0  0  0  0
    6.0985   -8.6836   17.7592 He  0  0  0  0  0  0  0  0  0  0  0  0
    1.3680   -6.3945   27.4842 He  0  0  0  0  0  0  0  0  0  0  0  0
    4.5245   -8.5550   17.8611 He  0  0  0  0  0  0  0  0  0  0  0  0
  1  3  4  0
  1  4  4  0
  1 11  2  0
  1 16  3  0
  1 19  4  0
  2  5  1  0
  2  8  3  0
  2 13  3  0
  2 15  4  0
  2 17  1  0
  2 23  4  0
  3  5  1  0
  3 11  2  0
  3 12  3  0
  3 14  3  0
  3 15  4  0
  3 16  4  0
  3 17  4  0
  3 20  4  0
  3 24  3  0
  4  6  3  0
  4  9  2  0
  4 12  3  0
  4 24  1  0
  5  6  3  0
  5  8  3  0
  5 13  2  0
  5 17  3  0
  5 20  1  0
  6  7  1  0
  6  8  1  0
  6 11  3  0
  7 11  1  0
  7 16  4  0
  7 23  1  0
  8 11  2  0
  9 11  3  0
  9 12  1  0
  9 14  4  0
  9 16  2  0
  9 20  3  0
  9 21  2  0
  9 22  1  0
 10 12  2  0
 10 22  2  0
 10 23  1  0
 11 12  1  0
 11 13  1  0
 11 14  1  0
 11 16  3  0
 11 18  4  0
 11 21  3  0
 11 23  1  0
 12 14  3  0
 12 19  4  0
 13 15  4  0
 13 16  1  0
 13 18  2  0
 13 20  4  0
 14 20  3  0
 14 21  4  0
 14 22  4  0
 15 19  2  0
 15 21  3  0
 15 24  1  0
 16 20  1  0
 17 19  1  0
 17 23  4  0
 18 20  1  0
 18 22  4  0
 19 22  4  0
 20 21  3  0
 20 22  4  0
 21 23  2  0
 22 24  1  0
M  END
$$$$

 Created by Python create_sdf_string function

 28 26  0  0  0  0  0  0  0  0999 V2000
    5.1396   -7.8936   26.2443 N   0  0  0  0  0  0  0  0  0  0  0  0
    0.4900   -6.1994   27.3227 C   0  0  0  0  0  0  0  0  0  0  0  0
    5.5424  -10.0562   16.3886 C   0  0  0  0  0  0  0  0  0  0  0  0
    4.7850   -6.9156   27.1488 C   0  0  0  0  0  0  0  0  0  0  0  0
    2.6810   -4.5537   27.3094 C   0  0  0  0  0  0  0  0  0  0  0  0
    8.0964   -5.8849   28.4286 C   0  0  0  0  0  0  0  0  0  0  0  0
    9.3416   -6.2875   28.2147 N   0  0  0  0  0  0  0  0  0  0  0  0
    1.4869   -3.8956   27.2903 C   0  0  0  0  0  0  0  0  0  0  0  0
    4.9497   -8.2042   17.0124 C   0  0  0  0  0  0  0  0  0  0  0  0
   -1.2745   -3.0355   27.1911 O   0  0  0  0  0  0  0  0  0  0  0  0
   -1.0482   -4.3103   27.2684 C   0  0  0  0  0  0  0  0  0  0  0  0
    5.9216   -8.4417   17.8223 C   0  0  0  0  0  0  0  0  0  0  0  0
    5.4653   -9.0023   15.6717 C   0  0  0  0  0  0  0  0  0  0  0  0
   -1.9952   -5.1103   27.2591 O   0  0  0  0  0  0  0  0  0  0  0  0
   10.7222   -8.1304   27.2367 C   0  0  0  0  0  0  0  0  0  0  0  0
    7.0190   -6.5490   27.8356 C   0  0  0  0  0  0  0  0  0  0  0  0
    2.6844   -5.9027   27.3187 C   0  0  0  0  0  0  0  0  0  0  0  0
    9.4560   -7.5274   27.5151 C   0  0  0  0  0  0  0  0  0  0  0  0
    6.4825   -8.3324   16.5007 C   0  0  0  0  0  0  0  0  0  0  0  0
    1.5168   -6.6628   27.3265 C   0  0  0  0  0  0  0  0  0  0  0  0
    8.4881   -8.2041   27.1160 N   0  0  0  0  0  0  0  0  0  0  0  0
    6.3511   -8.2894   26.3020 N   0  0  0  0  0  0  0  0  0  0  0  0
    4.6569   -9.1538   17.3151 C   0  0  0  0  0  0  0  0  0  0  0  0
    6.0214   -8.3840   17.4932 C   0  0  0  0  0  0  0  0  0  0  0  0
    5.7246   -6.2229   27.8518 C   0  0  0  0  0  0  0  0  0  0  0  0
    7.2833   -7.6587   27.1020 C   0  0  0  0  0  0  0  0  0  0  0  0
    0.3255   -4.7939   27.2996 C   0  0  0  0  0  0  0  0  0  0  0  0
    3.4786   -6.7496   27.2610 N   0  0  0  0  0  0  0  0  0  0  0  0
  1  4  4  0
  1 22  4  0
  2 20  4  0
  2 27  4  0
  3 13  4  0
  4 25  4  0
  4 28  1  0
  5  8  4  0
  5 17  4  0
  6  7  4  0
  6 16  4  0
  7 18  4  0
  8 27  4  0
  9 23  4  0
 10 11  2  0
 11 14  2  0
 11 27  1  0
 12 24  4  0
 15 18  1  0
 16 25  4  0
 16 26  4  0
 17 20  4  0
 17 28  1  0
 18 21  4  0
 21 26  4  0
 22 26  4  0
M  END
$$$$

 Created by Python create_sdf_string function

 28 63  0  0  0  0  0  0  0  0999 V2000
    4.8651   -8.0108   26.1048 N   0  0  0  0  0  0  0  0  0  0  0  0
    0.7507   -6.0772   26.7797 C   0  0  0  0  0  0  0  0  0  0  0  0
    4.7426   -7.1175   27.2815 C   0  0  0  0  0  0  0  0  0  0  0  0
    2.2006   -4.2826   27.4260 C   0  0  0  0  0  0  0  0  0  0  0  0
    6.8008   -4.8957   29.9494 C   0  0  0  0  0  0  0  0  0  0  0  0
    8.9104   -6.1737   28.7370 N   0  0  0  0  0  0  0  0  0  0  0  0
    1.9251   -3.7698   27.1232 C   0  0  0  0  0  0  0  0  0  0  0  0
   -1.4895   -3.1603   27.3490 O   0  0  0  0  0  0  0  0  0  0  0  0
   -1.2578   -4.2565   27.1203 C   0  0  0  0  0  0  0  0  0  0  0  0
    4.9799   -8.3092   17.1497 O   0  0  0  0  0  0  0  0  0  0  0  0
    5.6837   -8.8842   16.1093 O   0  0  0  0  0  0  0  0  0  0  0  0
   -2.3042   -5.2694   27.6285 O   0  0  0  0  0  0  0  0  0  0  0  0
   10.5596   -8.5480   27.1887 C   0  0  0  0  0  0  0  0  0  0  0  0
    1.5418   -6.1087   27.5324 C   0  0  0  0  0  0  0  0  0  0  0  0
    7.5871   -7.6476   15.5391 C   0  0  0  0  0  0  0  0  0  0  0  0
    2.6482   -6.8903   28.3392 C   0  0  0  0  0  0  0  0  0  0  0  0
    8.8553   -7.7494   26.7197 N   0  0  0  0  0  0  0  0  0  0  0  0
    6.3990   -7.9629   26.2956 N   0  0  0  0  0  0  0  0  0  0  0  0
    5.8179   -7.8988   17.0999 F   0  0  0  0  0  0  0  0  0  0  0  0
    5.8939   -6.0372   28.0947 N   0  0  0  0  0  0  0  0  0  0  0  0
    7.4882   -7.9984   26.9653 C   0  0  0  0  0  0  0  0  0  0  0  0
    0.1203   -4.5246   27.3097 C   0  0  0  0  0  0  0  0  0  0  0  0
    3.6486   -7.2152   27.0648 N   0  0  0  0  0  0  0  0  0  0  0  0
    5.3570   -9.0908   17.2467 He  0  0  0  0  0  0  0  0  0  0  0  0
    5.2475   -8.5847   15.2521 He  0  0  0  0  0  0  0  0  0  0  0  0
    6.9470   -6.2253   27.7845 He  0  0  0  0  0  0  0  0  0  0  0  0
    9.5005   -7.4302   27.4059 He  0  0  0  0  0  0  0  0  0  0  0  0
    3.5876   -9.6917   16.5631 He  0  0  0  0  0  0  0  0  0  0  0  0
  1  3  4  0
  1  5  1  0
  1  8  1  0
  1 10  1  0
  1 15  4  0
  1 18  4  0
  2  3  2  0
  2  5  1  0
  2  8  4  0
  2 11  4  0
  2 16  4  0
  2 21  3  0
  2 23  1  0
  3 20  4  0
  3 23  1  0
  4  7  4  0
  4 14  4  0
  4 19  3  0
  5  8  4  0
  5 12  1  0
  5 13  4  0
  5 16  2  0
  5 17  4  0
  5 20  4  0
  6  7  1  0
  6 10  3  0
  6 14  2  0
  6 15  2  0
  7  8  1  0
  7 11  4  0
  7 12  4  0
  7 13  3  0
  7 15  3  0
  7 16  1  0
  7 22  1  0
  8  9  2  0
  8 15  2  0
  8 22  4  0
  9 12  2  0
  9 22  1  0
  9 23  2  0
 10 19  2  0
 11 15  1  0
 11 19  2  0
 11 23  3  0
 12 16  3  0
 13 14  3  0
 13 15  1  0
 13 16  4  0
 13 19  2  0
 13 20  3  0
 14 17  4  0
 14 20  3  0
 15 17  2  0
 15 20  3  0
 15 21  4  0
 15 23  4  0
 16 22  1  0
 17 19  4  0
 18 19  1  0
 18 21  4  0
 19 23  1  0
 22 23  3  0
M  END
$$$$

 Created by Python create_sdf_string function

 28 30  0  0  0  0  0  0  0  0999 V2000
    5.1289   -7.8711   26.2752 N   0  0  0  0  0  0  0  0  0  0  0  0
    0.3546   -6.0603   27.2315 C   0  0  0  0  0  0  0  0  0  0  0  0
    5.3667   -9.0221   17.6186 C   0  0  0  0  0  0  0  0  0  0  0  0
    4.6912   -6.9999   27.2751 C   0  0  0  0  0  0  0  0  0  0  0  0
    2.5862   -4.5767   27.3053 C   0  0  0  0  0  0  0  0  0  0  0  0
    7.9956   -5.9346   28.6921 C   0  0  0  0  0  0  0  0  0  0  0  0
    9.3127   -6.4421   28.5315 N   0  0  0  0  0  0  0  0  0  0  0  0
    1.3405   -3.8784   27.2240 C   0  0  0  0  0  0  0  0  0  0  0  0
    5.0633   -8.7094   15.3539 C   0  0  0  0  0  0  0  0  0  0  0  0
   -1.5026   -3.0504   27.1563 O   0  0  0  0  0  0  0  0  0  0  0  0
   -1.2301   -4.3356   27.2533 C   0  0  0  0  0  0  0  0  0  0  0  0
    4.6976   -8.4538   17.0752 C   0  0  0  0  0  0  0  0  0  0  0  0
    6.1534   -8.4477   15.9471 C   0  0  0  0  0  0  0  0  0  0  0  0
   -2.1316   -5.2123   27.3936 O   0  0  0  0  0  0  0  0  0  0  0  0
   10.8078   -8.0334   27.4251 C   0  0  0  0  0  0  0  0  0  0  0  0
    6.8372   -6.6440   27.8233 C   0  0  0  0  0  0  0  0  0  0  0  0
    2.4092   -5.8549   27.4330 C   0  0  0  0  0  0  0  0  0  0  0  0
    9.4708   -7.4722   27.6068 C   0  0  0  0  0  0  0  0  0  0  0  0
    7.1341   -7.9161   15.6070 C   0  0  0  0  0  0  0  0  0  0  0  0
    1.1337   -6.2531   27.4160 C   0  0  0  0  0  0  0  0  0  0  0  0
    8.6001   -7.9496   26.9347 N   0  0  0  0  0  0  0  0  0  0  0  0
    6.3117   -8.1910   26.1347 N   0  0  0  0  0  0  0  0  0  0  0  0
    3.9623   -9.1565   16.4225 C   0  0  0  0  0  0  0  0  0  0  0  0
    5.9001   -8.2555   17.3868 C   0  0  0  0  0  0  0  0  0  0  0  0
    5.5253   -6.3135   27.9796 N   0  0  0  0  0  0  0  0  0  0  0  0
    7.2641   -7.5362   27.0051 C   0  0  0  0  0  0  0  0  0  0  0  0
    0.2615   -4.8092   27.2532 C   0  0  0  0  0  0  0  0  0  0  0  0
    3.4669   -7.1187   27.5159 N   0  0  0  0  0  0  0  0  0  0  0  0
  1  4  4  0
  1 22  4  0
  2 20  4  0
  2 27  4  0
  3 24  4  0
  4 25  4  0
  4 28  1  0
  5  8  4  0
  5 17  4  0
  6  7  4  0
  6 16  4  0
  7 18  4  0
  8 27  4  0
  9 13  4  0
  9 23  1  0
 10 11  1  0
 11 14  2  0
 11 27  1  0
 12 23  4  0
 12 24  4  0
 13 19  1  0
 13 24  4  0
 15 18  1  0
 16 25  4  0
 16 26  4  0
 17 20  4  0
 17 28  1  0
 18 21  4  0
 21 26  4  0
 22 26  4  0
M  END
$$$$

 Created by Python create_sdf_string function

 28 39  0  0  0  0  0  0  0  0999 V2000
    4.6886   -8.0804   26.1112 Cl  0  0  0  0  0  0  0  0  0  0  0  0
    0.7829   -6.0556   27.1488 C   0  0  0  0  0  0  0  0  0  0  0  0
    4.4177   -7.3499   27.5928 C   0  0  0  0  0  0  0  0  0  0  0  0
    2.9249   -4.7829   27.0606 C   0  0  0  0  0  0  0  0  0  0  0  0
    7.8641   -5.2949   27.7732 C   0  0  0  0  0  0  0  0  0  0  0  0
    0.9668   -3.7209   26.6428 C   0  0  0  0  0  0  0  0  0  0  0  0
    4.7677   -7.0819   14.0137 C   0  0  0  0  0  0  0  0  0  0  0  0
   -1.5144   -3.1489   27.0579 O   0  0  0  0  0  0  0  0  0  0  0  0
   -1.0656   -4.5747   27.4771 C   0  0  0  0  0  0  0  0  0  0  0  0
    3.8731   -8.3231   17.2607 Se  0  0  0  0  0  0  0  0  0  0  0  0
    5.4616   -7.8070   16.9477 Se  0  0  0  0  0  0  0  0  0  0  0  0
   -2.3556   -5.3774   26.7786 O   0  0  0  0  0  0  0  0  0  0  0  0
    2.5166   -5.6679   26.8060 C   0  0  0  0  0  0  0  0  0  0  0  0
    9.2795   -7.7287   27.7726 O   0  0  0  0  0  0  0  0  0  0  0  0
    1.3354   -7.0961   28.6903 C   0  0  0  0  0  0  0  0  0  0  0  0
    6.8774   -8.4712   26.2653 N   0  0  0  0  0  0  0  0  0  0  0  0
    5.7680   -6.6981   27.3979 N   0  0  0  0  0  0  0  0  0  0  0  0
    7.3857   -7.4756   27.1502 C   0  0  0  0  0  0  0  0  0  0  0  0
    0.8634   -4.7527   26.9939 O   0  0  0  0  0  0  0  0  0  0  0  0
    5.7914   -8.0765   16.0237 He  0  0  0  0  0  0  0  0  0  0  0  0
    9.3607   -7.3284   28.2747 He  0  0  0  0  0  0  0  0  0  0  0  0
   10.4241   -7.9248   27.8220 He  0  0  0  0  0  0  0  0  0  0  0  0
    6.7365   -6.4292   28.0894 He  0  0  0  0  0  0  0  0  0  0  0  0
    6.6942   -6.9597   16.4865 He  0  0  0  0  0  0  0  0  0  0  0  0
    8.4932   -7.7260   27.0894 He  0  0  0  0  0  0  0  0  0  0  0  0
    4.0644   -9.3682   16.1664 He  0  0  0  0  0  0  0  0  0  0  0  0
    6.8233   -7.4707   17.6881 He  0  0  0  0  0  0  0  0  0  0  0  0
    3.1822   -7.3651   27.5543 He  0  0  0  0  0  0  0  0  0  0  0  0
  1  9  2  0
  1 18  2  0
  2  3  3  0
  3  5  4  0
  3  9  3  0
  3 15  4  0
  3 17  4  0
  4  6  2  0
  4  8  2  0
  4 10  4  0
  4 13  4  0
  5  7  3  0
  5  8  4  0
  5  9  3  0
  5 12  4  0
  5 13  2  0
  5 14  1  0
  5 16  1  0
  6 11  2  0
  6 19  4  0
  7 11  4  0
  7 12  3  0
  8  9  1  0
  8 10  4  0
  9 12  2  0
  9 19  1  0
 10 11  4  0
 10 14  4  0
 10 16  3  0
 11 13  1  0
 11 14  1  0
 11 16  1  0
 11 18  1  0
 11 19  1  0
 13 15  4  0
 13 17  2  0
 15 17  4  0
 16 18  4  0
 16 19  2  0
M  END
$$$$

 Created by Python create_sdf_string function

 28 27  0  0  0  0  0  0  0  0999 V2000
    4.9219   -8.1745   26.3073 C   0  0  0  0  0  0  0  0  0  0  0  0
    0.3702   -6.1784   27.5697 C   0  0  0  0  0  0  0  0  0  0  0  0
    5.3339   -7.9766   15.9851 C   0  0  0  0  0  0  0  0  0  0  0  0
    4.6026   -7.1504   27.1715 C   0  0  0  0  0  0  0  0  0  0  0  0
    2.6332   -4.9205   26.9056 C   0  0  0  0  0  0  0  0  0  0  0  0
    7.8378   -5.8289   28.2120 C   0  0  0  0  0  0  0  0  0  0  0  0
    9.1002   -6.3395   28.1130 C   0  0  0  0  0  0  0  0  0  0  0  0
    1.4115   -4.1578   26.7928 C   0  0  0  0  0  0  0  0  0  0  0  0
    5.2478   -7.3986   15.0329 C   0  0  0  0  0  0  0  0  0  0  0  0
   -1.2965   -3.1227   26.9900 O   0  0  0  0  0  0  0  0  0  0  0  0
   -1.0946   -4.4079   27.0029 C   0  0  0  0  0  0  0  0  0  0  0  0
    4.2923   -8.4506   16.7736 C   0  0  0  0  0  0  0  0  0  0  0  0
    5.6912   -7.8660   17.2695 C   0  0  0  0  0  0  0  0  0  0  0  0
   -2.1178   -5.1715   26.9129 O   0  0  0  0  0  0  0  0  0  0  0  0
   10.6743   -8.1048   27.7350 C   0  0  0  0  0  0  0  0  0  0  0  0
    6.8180   -6.5625   27.7283 C   0  0  0  0  0  0  0  0  0  0  0  0
    2.5693   -6.2479   27.3065 C   0  0  0  0  0  0  0  0  0  0  0  0
    9.3991   -7.5355   27.7175 C   0  0  0  0  0  0  0  0  0  0  0  0
    6.6751   -7.1029   16.3968 C   0  0  0  0  0  0  0  0  0  0  0  0
    1.4223   -6.7739   27.6010 C   0  0  0  0  0  0  0  0  0  0  0  0
    8.4711   -8.1317   27.2736 C   0  0  0  0  0  0  0  0  0  0  0  0
    6.2314   -8.4802   26.2551 N   0  0  0  0  0  0  0  0  0  0  0  0
    4.1402   -8.5540   16.0977 C   0  0  0  0  0  0  0  0  0  0  0  0
    6.3073   -7.5975   17.5135 C   0  0  0  0  0  0  0  0  0  0  0  0
    5.3794   -6.3229   27.7819 N   0  0  0  0  0  0  0  0  0  0  0  0
    7.1182   -7.6945   27.0494 C   0  0  0  0  0  0  0  0  0  0  0  0
    0.2463   -4.8793   27.1312 C   0  0  0  0  0  0  0  0  0  0  0  0
    3.4004   -7.1283   27.4739 N   0  0  0  0  0  0  0  0  0  0  0  0
  1  4  4  0
  1 22  4  0
  2 20  4  0
  2 27  4  0
  3 23  4  0
  4 25  4  0
  4 28  1  0
  5  8  4  0
  5 17  4  0
  6  7  4  0
  6 16  4  0
  7 18  4  0
  8 27  4  0
 10 11  1  0
 11 14  2  0
 11 27  1  0
 12 13  4  0
 12 23  4  0
 13 24  4  0
 15 18  1  0
 16 25  4  0
 16 26  4  0
 17 20  4  0
 17 28  1  0
 18 21  4  0
 21 26  4  0
 22 26  4  0
M  END
$$$$

 Created by Python create_sdf_string function

 28 42  0  0  0  0  0  0  0  0999 V2000
    4.9669   -8.1341   25.9812 C   0  0  0  0  0  0  0  0  0  0  0  0
    0.0270   -5.9016   27.6318 F   0  0  0  0  0  0  0  0  0  0  0  0
    5.2621   -7.1101   27.3921 C   0  0  0  0  0  0  0  0  0  0  0  0
    2.6370   -5.2012   27.0731 C   0  0  0  0  0  0  0  0  0  0  0  0
    9.9584   -6.4825   28.0893 C   0  0  0  0  0  0  0  0  0  0  0  0
    1.7459   -3.9634   26.5624 C   0  0  0  0  0  0  0  0  0  0  0  0
    4.9110   -6.5311   14.0073 N   0  0  0  0  0  0  0  0  0  0  0  0
   -1.0531   -3.2942   26.9317 O   0  0  0  0  0  0  0  0  0  0  0  0
   -1.6165   -3.8625   26.9740 F   0  0  0  0  0  0  0  0  0  0  0  0
    5.3944   -8.4571   16.1271 C   0  0  0  0  0  0  0  0  0  0  0  0
   10.7027   -8.2778   27.9336 C   0  0  0  0  0  0  0  0  0  0  0  0
    6.8533   -6.5790   28.1668 C   0  0  0  0  0  0  0  0  0  0  0  0
    7.0061   -7.4417   16.5925 C   0  0  0  0  0  0  0  0  0  0  0  0
    8.3766   -8.2622   27.3497 C   0  0  0  0  0  0  0  0  0  0  0  0
    6.2860   -8.4041   26.4540 N   0  0  0  0  0  0  0  0  0  0  0  0
    5.4865   -6.5817   28.1760 N   0  0  0  0  0  0  0  0  0  0  0  0
    6.9285   -7.5988   26.8573 C   0  0  0  0  0  0  0  0  0  0  0  0
    0.1285   -5.3762   27.2354 C   0  0  0  0  0  0  0  0  0  0  0  0
    3.1551   -7.3731   27.4865 N   0  0  0  0  0  0  0  0  0  0  0  0
    3.8896   -7.2758   15.2061 He  0  0  0  0  0  0  0  0  0  0  0  0
    6.8797   -4.8192   28.3117 He  0  0  0  0  0  0  0  0  0  0  0  0
    3.5110  -10.0194   17.1458 He  0  0  0  0  0  0  0  0  0  0  0  0
   -2.2195   -5.0887   26.8622 He  0  0  0  0  0  0  0  0  0  0  0  0
    2.5703   -6.6118   26.8835 He  0  0  0  0  0  0  0  0  0  0  0  0
    9.2121   -7.6757   27.7936 He  0  0  0  0  0  0  0  0  0  0  0  0
    1.5569   -5.7683   28.2747 He  0  0  0  0  0  0  0  0  0  0  0  0
    3.8880   -9.3545   15.7854 He  0  0  0  0  0  0  0  0  0  0  0  0
    7.0258   -8.2208   17.8229 He  0  0  0  0  0  0  0  0  0  0  0  0
  1  3  3  0
  1  7  3  0
  1 10  1  0
  1 15  4  0
  1 17  2  0
  2 11  3  0
  2 18  4  0
  2 19  1  0
  3  6  2  0
  3 18  1  0
  4  6  4  0
  4  7  1  0
  4 11  3  0
  5  7  3  0
  5 10  3  0
  5 13  2  0
  5 15  4  0
  6 10  4  0
  6 11  2  0
  6 13  4  0
  6 18  4  0
  7  8  3  0
  7 14  2  0
  7 15  2  0
  7 19  3  0
  8  9  2  0
  8 10  2  0
  8 13  3  0
  9 10  3  0
  9 18  1  0
 10 12  1  0
 10 14  3  0
 10 17  4  0
 11 15  2  0
 12 15  3  0
 12 16  4  0
 12 17  4  0
 13 16  3  0
 13 17  4  0
 14 15  4  0
 14 17  2  0
 17 18  4  0
M  END
$$$$

 Created by Python create_sdf_string function

 28 27  0  0  0  0  0  0  0  0999 V2000
    5.0481   -8.0996   26.3087 C   0  0  0  0  0  0  0  0  0  0  0  0
    0.2355   -6.1941   27.6335 C   0  0  0  0  0  0  0  0  0  0  0  0
    4.1202   -7.7597   15.4720 C   0  0  0  0  0  0  0  0  0  0  0  0
    4.6624   -7.1500   27.2641 C   0  0  0  0  0  0  0  0  0  0  0  0
    2.5904   -5.0491   26.8516 C   0  0  0  0  0  0  0  0  0  0  0  0
    7.8910   -5.8726   28.2677 C   0  0  0  0  0  0  0  0  0  0  0  0
    9.2296   -6.3182   28.2289 C   0  0  0  0  0  0  0  0  0  0  0  0
    1.4476   -4.2432   26.7240 C   0  0  0  0  0  0  0  0  0  0  0  0
    4.9481   -7.2456   14.9544 C   0  0  0  0  0  0  0  0  0  0  0  0
   -1.1506   -3.0462   26.8601 O   0  0  0  0  0  0  0  0  0  0  0  0
   -1.1238   -4.2842   26.9891 C   0  0  0  0  0  0  0  0  0  0  0  0
    4.1543   -8.9205   16.8397 C   0  0  0  0  0  0  0  0  0  0  0  0
    5.5392   -7.9251   16.4387 C   0  0  0  0  0  0  0  0  0  0  0  0
   -2.2356   -4.9951   26.9593 O   0  0  0  0  0  0  0  0  0  0  0  0
   10.7847   -8.2702   27.7770 C   0  0  0  0  0  0  0  0  0  0  0  0
    6.8594   -6.6166   27.8193 C   0  0  0  0  0  0  0  0  0  0  0  0
    2.4412   -6.3330   27.2474 C   0  0  0  0  0  0  0  0  0  0  0  0
    9.4660   -7.5837   27.7256 C   0  0  0  0  0  0  0  0  0  0  0  0
    6.2544   -7.5249   16.5236 C   0  0  0  0  0  0  0  0  0  0  0  0
    1.2234   -6.8399   27.4296 C   0  0  0  0  0  0  0  0  0  0  0  0
    8.4440   -8.2248   27.1879 C   0  0  0  0  0  0  0  0  0  0  0  0
    6.2905   -8.4291   26.3145 N   0  0  0  0  0  0  0  0  0  0  0  0
    4.1603   -8.6270   16.4311 C   0  0  0  0  0  0  0  0  0  0  0  0
    5.9460   -8.1729   17.5688 C   0  0  0  0  0  0  0  0  0  0  0  0
    5.4833   -6.3617   27.9082 N   0  0  0  0  0  0  0  0  0  0  0  0
    7.1820   -7.7068   27.1431 C   0  0  0  0  0  0  0  0  0  0  0  0
    0.2634   -4.9451   27.1652 C   0  0  0  0  0  0  0  0  0  0  0  0
    3.3328   -7.1543   27.4900 N   0  0  0  0  0  0  0  0  0  0  0  0
  1  4  4  0
  1 22  4  0
  2 20  4  0
  2 27  4  0
  3  9  4  0
  4 25  4  0
  4 28  1  0
  5  8  4  0
  5 17  4  0
  6  7  4  0
  6 16  4  0
  7 18  4  0
  8 27  4  0
 10 11  2  0
 11 14  2  0
 11 27  1  0
 12 23  4  0
 13 19  4  0
 15 18  1  0
 16 25  4  0
 16 26  4  0
 17 20  4  0
 17 28  1  0
 18 21  4  0
 19 24  4  0
 21 26  4  0
 22 26  4  0
M  END
$$$$

 Created by Python create_sdf_string function

 28 97  0  0  0  0  0  0  0  0999 V2000
    5.1011   -7.9712   26.3010 C   0  0  0  0  0  0  0  0  0  0  0  0
    0.1400   -5.8672   27.5172 C   0  0  0  0  0  0  0  0  0  0  0  0
    4.6346   -9.5429   15.7868 N   0  0  0  0  0  0  0  0  0  0  0  0
    4.9926   -7.2652   27.4035 C   0  0  0  0  0  0  0  0  0  0  0  0
    2.3153   -4.8972   27.1894 C   0  0  0  0  0  0  0  0  0  0  0  0
    7.4250   -4.9074   27.8360 O   0  0  0  0  0  0  0  0  0  0  0  0
    8.8122   -6.4850   28.4116 C   0  0  0  0  0  0  0  0  0  0  0  0
    1.5303   -4.3441   26.3619 C   0  0  0  0  0  0  0  0  0  0  0  0
    6.1572   -7.3086   13.9645 B   0  0  0  0  0  0  0  0  0  0  0  0
   -1.1720   -2.6610   26.9055 O   0  0  0  0  0  0  0  0  0  0  0  0
   -1.3612   -4.7492   27.2052 C   0  0  0  0  0  0  0  0  0  0  0  0
    4.1291   -9.1818   15.9874 C   0  0  0  0  0  0  0  0  0  0  0  0
   -2.8026   -5.2487   26.9289 O   0  0  0  0  0  0  0  0  0  0  0  0
   10.7234   -8.2194   27.0971 S   0  0  0  0  0  0  0  0  0  0  0  0
    7.2616   -6.3348   28.3067 C   0  0  0  0  0  0  0  0  0  0  0  0
    2.8114   -6.1981   27.0325 C   0  0  0  0  0  0  0  0  0  0  0  0
    9.6525   -7.6140   27.7610 N   0  0  0  0  0  0  0  0  0  0  0  0
   -0.0641   -6.2187   28.9187 C   0  0  0  0  0  0  0  0  0  0  0  0
    8.2765   -8.1943   27.3323 C   0  0  0  0  0  0  0  0  0  0  0  0
    6.0468   -8.3349   26.3473 S   0  0  0  0  0  0  0  0  0  0  0  0
    3.4027   -8.9875   16.3138 C   0  0  0  0  0  0  0  0  0  0  0  0
    5.1542   -6.9928   16.6585 C   0  0  0  0  0  0  0  0  0  0  0  0
    5.5059   -6.8161   27.7756 N   0  0  0  0  0  0  0  0  0  0  0  0
    7.0430   -7.9001   27.4305 C   0  0  0  0  0  0  0  0  0  0  0  0
    0.1318   -4.6238   27.2732 C   0  0  0  0  0  0  0  0  0  0  0  0
    3.3614   -7.4829   27.6167 N   0  0  0  0  0  0  0  0  0  0  0  0
    6.0040   -7.9677   15.8321 He  0  0  0  0  0  0  0  0  0  0  0  0
    5.7939   -8.0281   17.0893 He  0  0  0  0  0  0  0  0  0  0  0  0
  1  3  4  0
  1  4  4  0
  1  6  4  0
  1  9  4  0
  1 13  4  0
  1 21  1  0
  1 22  4  0
  1 23  1  0
  2  3  3  0
  2 13  2  0
  2 15  4  0
  2 25  4  0
  3  8  2  0
  3  9  2  0
  3 10  2  0
  3 12  2  0
  3 16  2  0
  3 18  4  0
  3 26  2  0
  4  6  1  0
  4 12  3  0
  4 21  1  0
  4 23  4  0
  4 25  1  0
  4 26  1  0
  5  8  4  0
  5 10  3  0
  5 12  4  0
  5 13  4  0
  5 14  3  0
  5 16  4  0
  5 22  4  0
  5 24  3  0
  6  8  1  0
  6 12  3  0
  6 13  3  0
  6 14  2  0
  6 15  4  0
  6 19  3  0
  6 22  2  0
  6 23  2  0
  6 25  3  0
  6 26  3  0
  7 10  4  0
  7 12  4  0
  7 17  4  0
  8 16  3  0
  8 25  4  0
  8 26  2  0
  9 12  3  0
  9 13  2  0
  9 17  4  0
  9 24  2  0
 10 11  2  0
 10 21  1  0
 10 26  4  0
 11 13  2  0
 11 14  3  0
 11 21  4  0
 11 22  1  0
 11 25  1  0
 12 18  1  0
 12 19  3  0
 12 20  1  0
 12 21  3  0
 12 25  3  0
 13 18  2  0
 13 21  4  0
 13 23  4  0
 14 17  1  0
 14 21  1  0
 14 22  3  0
 15 19  1  0
 15 23  4  0
 15 24  4  0
 16 17  2  0
 16 18  4  0
 16 26  3  0
 17 18  1  0
 17 19  4  0
 17 21  1  0
 18 20  2  0
 18 21  4  0
 18 22  3  0
 18 23  3  0
 18 26  4  0
 19 21  4  0
 19 22  3  0
 19 23  1  0
 20 21  4  0
 20 22  2  0
 20 24  4  0
 21 22  4  0
 21 24  2  0
 21 25  3  0
 22 23  1  0
 22 25  3  0
M  END
$$$$

 Created by Python create_sdf_string function

 28 28  0  0  0  0  0  0  0  0999 V2000
    4.8966   -8.0798   26.3963 C   0  0  0  0  0  0  0  0  0  0  0  0
    0.2156   -6.1951   27.9033 C   0  0  0  0  0  0  0  0  0  0  0  0
    4.6772   -9.1572   15.6641 C   0  0  0  0  0  0  0  0  0  0  0  0
    4.6033   -7.1358   27.3104 C   0  0  0  0  0  0  0  0  0  0  0  0
    2.4713   -5.0218   26.8260 C   0  0  0  0  0  0  0  0  0  0  0  0
    7.7685   -5.8261   28.2905 C   0  0  0  0  0  0  0  0  0  0  0  0
    9.0952   -6.1777   28.1754 C   0  0  0  0  0  0  0  0  0  0  0  0
    1.3204   -4.2944   26.6853 C   0  0  0  0  0  0  0  0  0  0  0  0
    5.8849   -7.7223   14.7959 C   0  0  0  0  0  0  0  0  0  0  0  0
   -1.3262   -3.1053   26.7791 O   0  0  0  0  0  0  0  0  0  0  0  0
   -1.2302   -4.3082   26.9890 C   0  0  0  0  0  0  0  0  0  0  0  0
    4.0497   -8.8674   15.9887 C   0  0  0  0  0  0  0  0  0  0  0  0
    5.8268   -7.7830   15.5480 C   0  0  0  0  0  0  0  0  0  0  0  0
   -2.2963   -5.0461   27.0494 O   0  0  0  0  0  0  0  0  0  0  0  0
   10.7910   -8.0294   27.4717 C   0  0  0  0  0  0  0  0  0  0  0  0
    6.7516   -6.5998   27.7876 C   0  0  0  0  0  0  0  0  0  0  0  0
    2.4289   -6.3169   27.4790 C   0  0  0  0  0  0  0  0  0  0  0  0
    9.4182   -7.4480   27.6564 C   0  0  0  0  0  0  0  0  0  0  0  0
    5.4707   -7.9620   16.9864 C   0  0  0  0  0  0  0  0  0  0  0  0
    1.2792   -6.7347   27.9015 C   0  0  0  0  0  0  0  0  0  0  0  0
    8.4316   -8.1830   27.2400 C   0  0  0  0  0  0  0  0  0  0  0  0
    6.1419   -8.5098   26.3935 C   0  0  0  0  0  0  0  0  0  0  0  0
    3.4825   -8.5801   16.3334 C   0  0  0  0  0  0  0  0  0  0  0  0
    4.9855   -7.8705   16.7611 C   0  0  0  0  0  0  0  0  0  0  0  0
    5.4254   -6.3292   27.8725 N   0  0  0  0  0  0  0  0  0  0  0  0
    7.1127   -7.7622   27.1291 C   0  0  0  0  0  0  0  0  0  0  0  0
    0.1389   -4.9353   27.2134 C   0  0  0  0  0  0  0  0  0  0  0  0
    3.2887   -7.1084   27.7090 N   0  0  0  0  0  0  0  0  0  0  0  0
  1  4  4  0
  1 22  4  0
  2 20  4  0
  2 27  4  0
  3 12  4  0
  4 25  4  0
  4 28  1  0
  5  8  4  0
  5 17  4  0
  6  7  4  0
  6 16  4  0
  7 18  4  0
  8 27  4  0
  9 13  4  0
 10 11  2  0
 11 14  2  0
 11 27  1  0
 12 23  4  0
 15 18  1  0
 16 25  4  0
 16 26  4  0
 17 20  4  0
 17 28  1  0
 18 21  4  0
 19 24  4  0
 21 26  4  0
 22 26  4  0
 23 24  4  0
M  END
$$$$

 Created by Python create_sdf_string function

 28 51  0  0  0  0  0  0  0  0999 V2000
    4.4905   -8.2785   26.3291 C   0  0  0  0  0  0  0  0  0  0  0  0
    0.3491   -6.0871   28.1146 C   0  0  0  0  0  0  0  0  0  0  0  0
    4.3552   -9.4019   16.3614 F   0  0  0  0  0  0  0  0  0  0  0  0
    2.5799   -4.9894   26.4822 F   0  0  0  0  0  0  0  0  0  0  0  0
    8.8288   -5.9198   27.8738 N   0  0  0  0  0  0  0  0  0  0  0  0
    1.3236   -4.0096   26.2451 C   0  0  0  0  0  0  0  0  0  0  0  0
    4.8921   -8.4081   15.3528 O   0  0  0  0  0  0  0  0  0  0  0  0
   -1.3087   -3.4998   26.9641 O   0  0  0  0  0  0  0  0  0  0  0  0
   -1.0623   -3.8529   27.1563 C   0  0  0  0  0  0  0  0  0  0  0  0
    3.2584   -8.8707   16.6527 O   0  0  0  0  0  0  0  0  0  0  0  0
   -2.1142   -5.5294   27.6698 O   0  0  0  0  0  0  0  0  0  0  0  0
    2.6465   -5.7101   27.7719 C   0  0  0  0  0  0  0  0  0  0  0  0
    9.3835   -7.1662   27.8354 C   0  0  0  0  0  0  0  0  0  0  0  0
    8.4971   -8.0602   27.6775 C   0  0  0  0  0  0  0  0  0  0  0  0
    6.0992   -8.7463   26.4432 C   0  0  0  0  0  0  0  0  0  0  0  0
    3.3672   -8.7955   17.1818 C   0  0  0  0  0  0  0  0  0  0  0  0
    5.9349   -7.2819   16.8155 C   0  0  0  0  0  0  0  0  0  0  0  0
    7.0352   -7.8100   27.3934 C   0  0  0  0  0  0  0  0  0  0  0  0
    0.1617   -4.8191   27.3413 C   0  0  0  0  0  0  0  0  0  0  0  0
    2.8839   -7.0751   27.2947 N   0  0  0  0  0  0  0  0  0  0  0  0
    5.0068   -6.8312   27.1637 He  0  0  0  0  0  0  0  0  0  0  0  0
    8.7700   -5.6877   28.4367 He  0  0  0  0  0  0  0  0  0  0  0  0
    6.7490   -7.2133   15.6069 He  0  0  0  0  0  0  0  0  0  0  0  0
   10.3041   -7.6288   27.4079 He  0  0  0  0  0  0  0  0  0  0  0  0
    6.7940   -5.9622   27.9374 He  0  0  0  0  0  0  0  0  0  0  0  0
    5.2714   -7.6565   17.2791 He  0  0  0  0  0  0  0  0  0  0  0  0
    1.7121   -6.7251   27.6860 He  0  0  0  0  0  0  0  0  0  0  0  0
    5.3272   -5.9016   28.1970 He  0  0  0  0  0  0  0  0  0  0  0  0
  1  5  1  0
  1 15  4  0
  1 16  4  0
  2 12  1  0
  2 19  1  0
  3  4  3  0
  3  6  1  0
  3  8  1  0
  3  9  2  0
  3 14  1  0
  3 18  4  0
  3 19  3  0
  4  5  4  0
  4  6  4  0
  4 12  4  0
  5 12  2  0
  5 13  4  0
  5 17  2  0
  5 20  3  0
  6  9  2  0
  7  8  1  0
  7 11  4  0
  7 12  4  0
  7 13  3  0
  7 14  2  0
  7 17  2  0
  7 18  1  0
  7 19  3  0
  8  9  2  0
  8 11  3  0
  8 20  4  0
  9 15  1  0
  9 18  4  0
  9 19  1  0
  9 20  1  0
 10 11  2  0
 10 19  1  0
 12 16  2  0
 12 17  4  0
 12 20  1  0
 13 14  4  0
 13 16  3  0
 13 18  2  0
 13 19  3  0
 14 17  1  0
 14 18  4  0
 14 19  1  0
 15 18  4  0
 15 20  1  0
 16 20  2  0
 17 20  2  0
M  END
$$$$

 Created by Python create_sdf_string function

 28 30  0  0  0  0  0  0  0  0999 V2000
    4.8801   -8.0755   26.5827 C   0  0  0  0  0  0  0  0  0  0  0  0
    0.3815   -6.1017   27.8496 C   0  0  0  0  0  0  0  0  0  0  0  0
    4.1769   -8.8020   16.1477 C   0  0  0  0  0  0  0  0  0  0  0  0
    4.5624   -6.9747   27.3054 C   0  0  0  0  0  0  0  0  0  0  0  0
    2.5339   -4.7633   26.6762 C   0  0  0  0  0  0  0  0  0  0  0  0
    7.8750   -5.6027   28.1490 C   0  0  0  0  0  0  0  0  0  0  0  0
    9.0303   -6.0262   28.0633 N   0  0  0  0  0  0  0  0  0  0  0  0
    1.2342   -4.0735   26.5958 C   0  0  0  0  0  0  0  0  0  0  0  0
    5.0371   -8.2698   15.2988 C   0  0  0  0  0  0  0  0  0  0  0  0
   -1.4225   -3.2876   26.8196 O   0  0  0  0  0  0  0  0  0  0  0  0
   -1.1210   -4.3838   27.2130 C   0  0  0  0  0  0  0  0  0  0  0  0
    3.1256   -9.0518   16.4050 O   0  0  0  0  0  0  0  0  0  0  0  0
    6.2058   -7.4094   15.8166 C   0  0  0  0  0  0  0  0  0  0  0  0
   -2.0476   -5.2112   27.6304 O   0  0  0  0  0  0  0  0  0  0  0  0
   10.6831   -7.7377   27.4295 C   0  0  0  0  0  0  0  0  0  0  0  0
    6.8052   -6.4265   27.7463 C   0  0  0  0  0  0  0  0  0  0  0  0
    2.5128   -5.9629   27.3376 C   0  0  0  0  0  0  0  0  0  0  0  0
    9.3669   -7.2951   27.5970 C   0  0  0  0  0  0  0  0  0  0  0  0
    5.2936   -7.9836   17.5450 C   0  0  0  0  0  0  0  0  0  0  0  0
    1.4788   -6.5397   27.8238 C   0  0  0  0  0  0  0  0  0  0  0  0
    8.4435   -8.0980   27.3105 N   0  0  0  0  0  0  0  0  0  0  0  0
    6.1797   -8.4965   26.6639 C   0  0  0  0  0  0  0  0  0  0  0  0
    3.8843   -8.6747   17.0239 C   0  0  0  0  0  0  0  0  0  0  0  0
    6.0306   -7.5176   17.0898 C   0  0  0  0  0  0  0  0  0  0  0  0
    5.4439   -6.1057   27.7538 C   0  0  0  0  0  0  0  0  0  0  0  0
    7.1082   -7.6544   27.2635 C   0  0  0  0  0  0  0  0  0  0  0  0
    0.2007   -4.8300   27.2283 C   0  0  0  0  0  0  0  0  0  0  0  0
    3.2109   -6.8206   27.6023 N   0  0  0  0  0  0  0  0  0  0  0  0
  1  4  4  0
  1 22  4  0
  2 20  4  0
  2 27  4  0
  3  9  4  0
  3 12  4  0
  3 23  4  0
  4 25  4  0
  4 28  1  0
  5  8  4  0
  5 17  4  0
  6  7  4  0
  6 16  4  0
  7 18  4  0
  8 27  4  0
  9 13  4  0
 10 11  2  0
 11 14  1  0
 11 27  1  0
 13 24  4  0
 15 18  1  0
 16 25  4  0
 16 26  4  0
 17 20  4  0
 17 28  1  0
 18 21  4  0
 19 23  4  0
 19 24  4  0
 21 26  4  0
 22 26  4  0
M  END
$$$$

 Created by Python create_sdf_string function

 28 56  0  0  0  0  0  0  0  0999 V2000
    5.2456   -7.8331   26.6277 N   0  0  0  0  0  0  0  0  0  0  0  0
    0.5222   -5.9467   27.7670 C   0  0  0  0  0  0  0  0  0  0  0  0
    4.5520   -7.4836   17.2191 C   0  0  0  0  0  0  0  0  0  0  0  0
    4.9959   -7.0489   27.7084 N   0  0  0  0  0  0  0  0  0  0  0  0
    2.8096   -4.6725   26.5451 C   0  0  0  0  0  0  0  0  0  0  0  0
    9.2445   -5.8584   27.9236 N   0  0  0  0  0  0  0  0  0  0  0  0
    5.2589   -8.4209   14.2127 Cl  0  0  0  0  0  0  0  0  0  0  0  0
   -1.6615   -3.4292   27.2202 O   0  0  0  0  0  0  0  0  0  0  0  0
   -0.9460   -4.6849   27.0873 C   0  0  0  0  0  0  0  0  0  0  0  0
    5.5772   -6.4468   15.8860 F   0  0  0  0  0  0  0  0  0  0  0  0
   -2.1358   -5.5762   27.4041 O   0  0  0  0  0  0  0  0  0  0  0  0
   10.6758   -7.3408   27.4240 C   0  0  0  0  0  0  0  0  0  0  0  0
    6.6209   -6.5279   27.5744 C   0  0  0  0  0  0  0  0  0  0  0  0
    2.5505   -6.0343   27.1561 C   0  0  0  0  0  0  0  0  0  0  0  0
    8.7581   -6.8636   27.4141 C   0  0  0  0  0  0  0  0  0  0  0  0
    5.1402   -8.4108   17.6994 C   0  0  0  0  0  0  0  0  0  0  0  0
    6.3522   -8.3967   26.7496 C   0  0  0  0  0  0  0  0  0  0  0  0
    4.9342   -8.6535   17.8653 F   0  0  0  0  0  0  0  0  0  0  0  0
    3.1491   -6.9541   27.5989 N   0  0  0  0  0  0  0  0  0  0  0  0
    7.0485   -5.0491   29.3204 He  0  0  0  0  0  0  0  0  0  0  0  0
    1.0346   -4.0094   27.1422 He  0  0  0  0  0  0  0  0  0  0  0  0
    3.0578   -8.2904   15.7930 He  0  0  0  0  0  0  0  0  0  0  0  0
    0.9954   -5.3788   27.7963 He  0  0  0  0  0  0  0  0  0  0  0  0
    7.9602   -7.9465   27.0082 He  0  0  0  0  0  0  0  0  0  0  0  0
    1.8273   -9.2050   18.0344 He  0  0  0  0  0  0  0  0  0  0  0  0
    5.0254   -5.8089   28.1622 He  0  0  0  0  0  0  0  0  0  0  0  0
    7.2981   -7.4190   27.2118 He  0  0  0  0  0  0  0  0  0  0  0  0
    0.1690   -5.1253   27.1714 He  0  0  0  0  0  0  0  0  0  0  0  0
  1  4  4  0
  1  5  2  0
  1 10  1  0
  1 12  3  0
  1 14  1  0
  2  3  4  0
  2  7  1  0
  2 10  3  0
  2 17  2  0
  3  7  1  0
  3 11  3  0
  3 13  4  0
  3 17  2  0
  3 19  3  0
  4 10  3  0
  4 11  4  0
  4 15  1  0
  4 17  1  0
  5 15  4  0
  5 16  2  0
  5 17  1  0
  5 19  3  0
  6 10  4  0
  6 15  4  0
  6 17  1  0
  6 18  3  0
  7  8  2  0
  7  9  3  0
  7 11  2  0
  7 12  1  0
  7 14  3  0
  7 16  3  0
  8  9  2  0
  8 10  2  0
  8 14  3  0
  8 18  3  0
  9 11  1  0
  9 13  4  0
  9 16  2  0
 10 14  1  0
 10 18  4  0
 10 19  2  0
 11 15  4  0
 12 15  1  0
 12 16  1  0
 12 17  1  0
 12 18  2  0
 12 19  4  0
 13 15  4  0
 13 16  4  0
 13 17  1  0
 14 15  3  0
 14 18  4  0
 14 19  1  0
 15 18  4  0
 18 19  4  0
M  END
$$$$

 Created by Python create_sdf_string function

 28 29  0  0  0  0  0  0  0  0999 V2000
    4.9515   -7.9087   26.6213 N   0  0  0  0  0  0  0  0  0  0  0  0
    0.6495   -6.1691   27.4797 C   0  0  0  0  0  0  0  0  0  0  0  0
    3.9194   -8.1841   16.2623 C   0  0  0  0  0  0  0  0  0  0  0  0
    4.5091   -6.8633   27.4261 C   0  0  0  0  0  0  0  0  0  0  0  0
    2.4183   -4.6167   26.8694 C   0  0  0  0  0  0  0  0  0  0  0  0
    7.7265   -5.3954   28.4419 C   0  0  0  0  0  0  0  0  0  0  0  0
    8.9460   -5.7471   28.2810 N   0  0  0  0  0  0  0  0  0  0  0  0
    1.2322   -3.9624   26.7993 C   0  0  0  0  0  0  0  0  0  0  0  0
    4.8919   -7.6926   15.0875 C   0  0  0  0  0  0  0  0  0  0  0  0
   -1.6658   -3.4120   27.0699 O   0  0  0  0  0  0  0  0  0  0  0  0
   -1.3515   -4.5594   27.2786 C   0  0  0  0  0  0  0  0  0  0  0  0
    3.2617   -8.1849   15.9045 C   0  0  0  0  0  0  0  0  0  0  0  0
    5.6537   -7.4703   16.0527 C   0  0  0  0  0  0  0  0  0  0  0  0
   -2.2130   -5.4629   27.4536 O   0  0  0  0  0  0  0  0  0  0  0  0
   10.6258   -7.2255   27.4249 C   0  0  0  0  0  0  0  0  0  0  0  0
    6.6919   -6.2903   27.9355 C   0  0  0  0  0  0  0  0  0  0  0  0
    2.3509   -5.9247   27.2044 C   0  0  0  0  0  0  0  0  0  0  0  0
    9.2303   -6.9123   27.6124 C   0  0  0  0  0  0  0  0  0  0  0  0
    5.1554   -8.3115   17.4247 C   0  0  0  0  0  0  0  0  0  0  0  0
    1.3103   -6.3194   27.2919 C   0  0  0  0  0  0  0  0  0  0  0  0
    8.3710   -7.7613   27.1551 N   0  0  0  0  0  0  0  0  0  0  0  0
    6.1761   -8.1672   26.6181 C   0  0  0  0  0  0  0  0  0  0  0  0
    2.8613   -9.1957   17.0228 C   0  0  0  0  0  0  0  0  0  0  0  0
    4.7142   -8.6279   17.4001 C   0  0  0  0  0  0  0  0  0  0  0  0
    5.3726   -6.0194   28.0262 C   0  0  0  0  0  0  0  0  0  0  0  0
    7.0847   -7.3954   27.2359 C   0  0  0  0  0  0  0  0  0  0  0  0
    0.2048   -4.9797   27.2549 C   0  0  0  0  0  0  0  0  0  0  0  0
    3.0714   -6.7591   27.6740 N   0  0  0  0  0  0  0  0  0  0  0  0
  1  4  4  0
  1 22  4  0
  2 20  4  0
  2 27  4  0
  3 12  4  0
  4 25  4  0
  4 28  1  0
  5  8  4  0
  5 17  4  0
  6  7  4  0
  6 16  4  0
  7 18  4  0
  8 27  4  0
  9 13  4  0
 10 11  2  0
 11 14  1  0
 11 27  1  0
 12 23  4  0
 13 19  4  0
 15 18  1  0
 16 25  4  0
 16 26  4  0
 17 20  4  0
 17 28  1  0
 18 21  4  0
 19 24  4  0
 21 26  4  0
 22 26  4  0
 23 24  4  0
M  END
$$$$

 Created by Python create_sdf_string function

 28 53  0  0  0  0  0  0  0  0999 V2000
    4.6255   -7.9807   26.5514 N   0  0  0  0  0  0  0  0  0  0  0  0
    4.7567   -6.6569   27.1658 C   0  0  0  0  0  0  0  0  0  0  0  0
    2.3051   -4.4175   26.6779 C   0  0  0  0  0  0  0  0  0  0  0  0
    7.3458   -5.7801   29.5183 C   0  0  0  0  0  0  0  0  0  0  0  0
    8.9364   -5.6572   27.9798 N   0  0  0  0  0  0  0  0  0  0  0  0
    1.2495   -3.8049   26.9653 C   0  0  0  0  0  0  0  0  0  0  0  0
   -2.0009   -3.6014   27.1182 O   0  0  0  0  0  0  0  0  0  0  0  0
   -1.1512   -4.4525   27.0029 N   0  0  0  0  0  0  0  0  0  0  0  0
    3.2917   -8.0925   15.5836 C   0  0  0  0  0  0  0  0  0  0  0  0
    6.3336   -7.8380   16.5048 N   0  0  0  0  0  0  0  0  0  0  0  0
   -2.3848   -5.7966   27.4831 O   0  0  0  0  0  0  0  0  0  0  0  0
   10.9670   -6.9931   27.1180 C   0  0  0  0  0  0  0  0  0  0  0  0
    6.7633   -5.8738   27.6828 C   0  0  0  0  0  0  0  0  0  0  0  0
    2.3205   -6.4841   27.0253 C   0  0  0  0  0  0  0  0  0  0  0  0
    9.1979   -6.9676   27.5727 O   0  0  0  0  0  0  0  0  0  0  0  0
    1.2996   -5.2484   26.3364 C   0  0  0  0  0  0  0  0  0  0  0  0
    8.5063   -8.1639   27.2708 N   0  0  0  0  0  0  0  0  0  0  0  0
    6.4795   -8.1434   27.2761 Cl  0  0  0  0  0  0  0  0  0  0  0  0
    3.4783   -8.2998   16.9020 N   0  0  0  0  0  0  0  0  0  0  0  0
    5.7725   -8.7755   18.0503 C   0  0  0  0  0  0  0  0  0  0  0  0
    5.4895   -6.6536   28.0027 C   0  0  0  0  0  0  0  0  0  0  0  0
    7.1579   -7.1747   27.4310 C   0  0  0  0  0  0  0  0  0  0  0  0
    3.4810   -7.3947   27.5228 N   0  0  0  0  0  0  0  0  0  0  0  0
    0.6567   -5.9903   27.3521 He  0  0  0  0  0  0  0  0  0  0  0  0
    3.4946   -7.7259   15.2136 He  0  0  0  0  0  0  0  0  0  0  0  0
    4.3194   -9.5225   14.3226 He  0  0  0  0  0  0  0  0  0  0  0  0
    3.2949   -9.1392   16.9194 He  0  0  0  0  0  0  0  0  0  0  0  0
    0.6774   -4.9006   26.9880 He  0  0  0  0  0  0  0  0  0  0  0  0
  1  2  4  0
  1  7  3  0
  1 18  4  0
  2  4  4  0
  2  9  3  0
  2 11  4  0
  2 13  1  0
  2 21  4  0
  2 23  1  0
  3  4  1  0
  3  5  2  0
  3  6  4  0
  3  7  3  0
  3  9  2  0
  3 14  4  0
  3 21  1  0
  4 18  3  0
  4 20  4  0
  5 15  4  0
  6 21  1  0
  7  8  2  0
  7 10  3  0
  7 16  4  0
  7 19  3  0
  7 21  3  0
  8 11  1  0
  8 14  2  0
  8 19  3  0
  9 10  4  0
  9 23  2  0
 10 12  4  0
 10 13  1  0
 10 14  3  0
 10 15  2  0
 10 16  3  0
 10 18  1  0
 11 23  2  0
 12 15  1  0
 12 23  4  0
 13 19  4  0
 13 20  4  0
 13 21  3  0
 14 16  4  0
 14 19  4  0
 14 23  1  0
 15 17  4  0
 17 19  1  0
 17 21  2  0
 18 20  1  0
 18 21  1  0
 18 22  4  0
 19 20  4  0
 21 23  4  0
M  END
$$$$

 Created by Python create_sdf_string function

 28 30  0  0  0  0  0  0  0  0999 V2000
    5.0188   -8.0095   26.6074 N   0  0  0  0  0  0  0  0  0  0  0  0
    0.3824   -6.1665   27.2030 C   0  0  0  0  0  0  0  0  0  0  0  0
    3.5687   -8.0642   14.8582 C   0  0  0  0  0  0  0  0  0  0  0  0
    4.5180   -6.9121   27.2385 C   0  0  0  0  0  0  0  0  0  0  0  0
    2.4306   -4.5979   26.8679 C   0  0  0  0  0  0  0  0  0  0  0  0
    7.6499   -5.4965   28.5198 C   0  0  0  0  0  0  0  0  0  0  0  0
    9.0102   -5.7350   28.1956 N   0  0  0  0  0  0  0  0  0  0  0  0
    1.2474   -3.9869   26.8414 C   0  0  0  0  0  0  0  0  0  0  0  0
    4.8954   -8.6650   15.0377 C   0  0  0  0  0  0  0  0  0  0  0  0
   -1.6084   -3.3475   26.9379 O   0  0  0  0  0  0  0  0  0  0  0  0
   -1.3419   -4.4723   27.1594 N   0  0  0  0  0  0  0  0  0  0  0  0
    3.2113   -8.1424   15.9622 C   0  0  0  0  0  0  0  0  0  0  0  0
    5.6221   -8.3629   16.3713 C   0  0  0  0  0  0  0  0  0  0  0  0
   -2.2587   -5.3756   27.4510 O   0  0  0  0  0  0  0  0  0  0  0  0
   10.8030   -7.0204   27.2021 C   0  0  0  0  0  0  0  0  0  0  0  0
    6.8399   -6.1887   28.0787 C   0  0  0  0  0  0  0  0  0  0  0  0
    2.4881   -5.9614   27.0252 C   0  0  0  0  0  0  0  0  0  0  0  0
    9.4047   -6.9133   27.4957 C   0  0  0  0  0  0  0  0  0  0  0  0
    3.3734   -8.8910   16.6559 C   0  0  0  0  0  0  0  0  0  0  0  0
    1.4219   -6.5593   27.0815 C   0  0  0  0  0  0  0  0  0  0  0  0
    8.5821   -7.8932   27.1701 N   0  0  0  0  0  0  0  0  0  0  0  0
    6.2479   -8.3024   26.6743 C   0  0  0  0  0  0  0  0  0  0  0  0
    4.0221   -8.9685   17.3062 C   0  0  0  0  0  0  0  0  0  0  0  0
    5.3330   -8.4734   17.5684 C   0  0  0  0  0  0  0  0  0  0  0  0
    5.4481   -6.0908   27.9471 C   0  0  0  0  0  0  0  0  0  0  0  0
    7.2017   -7.5217   27.3024 C   0  0  0  0  0  0  0  0  0  0  0  0
    0.0972   -4.8497   27.0891 C   0  0  0  0  0  0  0  0  0  0  0  0
    3.2467   -6.6417   27.1298 N   0  0  0  0  0  0  0  0  0  0  0  0
  1  4  4  0
  1 22  4  0
  2 20  4  0
  2 27  4  0
  3  9  4  0
  3 12  4  0
  4 25  4  0
  4 28  1  0
  5  8  4  0
  5 17  4  0
  6  7  4  0
  6 16  4  0
  7 18  4  0
  8 27  4  0
  9 13  4  0
 10 11  2  0
 11 14  1  0
 11 27  1  0
 12 19  4  0
 13 24  4  0
 15 18  1  0
 16 25  4  0
 16 26  4  0
 17 20  4  0
 17 28  1  0
 18 21  4  0
 19 23  4  0
 21 26  4  0
 22 26  4  0
 23 24  4  0
M  END
$$$$

 Created by Python create_sdf_string function

 28 51  0  0  0  0  0  0  0  0999 V2000
    5.0066   -8.0695   26.6612 N   0  0  0  0  0  0  0  0  0  0  0  0
    6.8901   -4.9194   28.3137 C   0  0  0  0  0  0  0  0  0  0  0  0
    9.0277   -5.8527   28.2675 N   0  0  0  0  0  0  0  0  0  0  0  0
    0.6054   -4.1234   27.0821 C   0  0  0  0  0  0  0  0  0  0  0  0
   -1.5634   -3.3662   26.5904 O   0  0  0  0  0  0  0  0  0  0  0  0
   -1.1338   -4.5502   27.3269 N   0  0  0  0  0  0  0  0  0  0  0  0
    5.3319   -7.5710   17.2844 C   0  0  0  0  0  0  0  0  0  0  0  0
   -2.2609   -5.2611   27.6369 O   0  0  0  0  0  0  0  0  0  0  0  0
   10.8623   -7.0231   27.1495 C   0  0  0  0  0  0  0  0  0  0  0  0
    6.6939   -6.0203   28.2797 Se  0  0  0  0  0  0  0  0  0  0  0  0
    2.7853   -6.0267   27.1051 C   0  0  0  0  0  0  0  0  0  0  0  0
    2.4275   -9.9660   17.2292 C   0  0  0  0  0  0  0  0  0  0  0  0
    1.3210   -4.9059   27.4534 O   0  0  0  0  0  0  0  0  0  0  0  0
    9.0557   -8.1471   27.3719 N   0  0  0  0  0  0  0  0  0  0  0  0
    6.3938   -8.4720   26.7327 C   0  0  0  0  0  0  0  0  0  0  0  0
    4.7038   -8.5389   17.8317 N   0  0  0  0  0  0  0  0  0  0  0  0
    5.4224   -6.1979   27.8587 C   0  0  0  0  0  0  0  0  0  0  0  0
    7.2358   -7.6623   26.7491 C   0  0  0  0  0  0  0  0  0  0  0  0
    0.0412   -4.9259   27.5371 C   0  0  0  0  0  0  0  0  0  0  0  0
    3.3039   -6.7821   26.9542 N   0  0  0  0  0  0  0  0  0  0  0  0
   -0.1256   -5.8917   27.6852 He  0  0  0  0  0  0  0  0  0  0  0  0
    3.8296   -6.5813   14.7821 He  0  0  0  0  0  0  0  0  0  0  0  0
    4.6057   -7.1455   27.4121 He  0  0  0  0  0  0  0  0  0  0  0  0
    2.4919   -5.1636   26.6385 He  0  0  0  0  0  0  0  0  0  0  0  0
    4.8933   -7.9746   16.3125 He  0  0  0  0  0  0  0  0  0  0  0  0
    3.6866   -7.3866   15.1154 He  0  0  0  0  0  0  0  0  0  0  0  0
    9.1971   -6.2629   27.7962 He  0  0  0  0  0  0  0  0  0  0  0  0
    6.2169   -8.5048   17.1033 He  0  0  0  0  0  0  0  0  0  0  0  0
  1  2  3  0
  1  7  2  0
  1 10  4  0
  1 15  4  0
  1 18  2  0
  2  3  2  0
  2  5  2  0
  2  8  3  0
  2  9  1  0
  2 10  4  0
  2 12  4  0
  2 14  4  0
  2 15  3  0
  2 17  2  0
  3 15  4  0
  3 19  1  0
  4 12  1  0
  4 14  4  0
  4 19  4  0
  5  6  2  0
  5 13  3  0
  5 16  2  0
  5 20  4  0
  6  8  1  0
  6  9  3  0
  6 10  4  0
  6 16  2  0
  6 18  2  0
  6 19  1  0
  7  9  1  0
  7 13  2  0
  7 14  2  0
  7 16  4  0
  8 10  2  0
  8 16  4  0
  9 10  4  0
  9 11  1  0
  9 12  2  0
  9 17  2  0
  9 19  1  0
 10 16  4  0
 10 17  4  0
 11 12  1  0
 11 13  2  0
 11 20  1  0
 12 18  4  0
 13 16  2  0
 14 17  4  0
 14 18  4  0
 15 18  4  0
 16 17  1  0
M  END
$$$$

 Created by Python create_sdf_string function

 28 29  0  0  0  0  0  0  0  0999 V2000
    5.1056   -8.1709   26.5806 N   0  0  0  0  0  0  0  0  0  0  0  0
    0.2612   -6.2313   27.7391 C   0  0  0  0  0  0  0  0  0  0  0  0
    4.0279   -7.0129   14.8813 C   0  0  0  0  0  0  0  0  0  0  0  0
    4.5809   -7.0172   27.1498 C   0  0  0  0  0  0  0  0  0  0  0  0
    2.3256   -4.7380   26.7564 C   0  0  0  0  0  0  0  0  0  0  0  0
    7.7200   -5.4322   28.3031 C   0  0  0  0  0  0  0  0  0  0  0  0
    9.0013   -5.6008   28.1717 N   0  0  0  0  0  0  0  0  0  0  0  0
    1.1046   -4.0782   26.7336 C   0  0  0  0  0  0  0  0  0  0  0  0
    4.4312   -7.7061   15.9899 C   0  0  0  0  0  0  0  0  0  0  0  0
   -1.6218   -3.3776   26.6998 O   0  0  0  0  0  0  0  0  0  0  0  0
   -1.3494   -4.4503   27.1977 N   0  0  0  0  0  0  0  0  0  0  0  0
    3.0822   -7.9848   15.8310 C   0  0  0  0  0  0  0  0  0  0  0  0
    5.4749   -7.9608   17.1412 C   0  0  0  0  0  0  0  0  0  0  0  0
   -2.2862   -5.2563   27.6615 O   0  0  0  0  0  0  0  0  0  0  0  0
   10.9126   -6.8739   27.4410 C   0  0  0  0  0  0  0  0  0  0  0  0
    6.7940   -6.3098   27.7983 C   0  0  0  0  0  0  0  0  0  0  0  0
    2.4456   -6.0034   27.1531 C   0  0  0  0  0  0  0  0  0  0  0  0
    9.4627   -6.7576   27.6000 C   0  0  0  0  0  0  0  0  0  0  0  0
    3.1947   -8.9843   16.7941 C   0  0  0  0  0  0  0  0  0  0  0  0
    1.3547   -6.6696   27.5530 C   0  0  0  0  0  0  0  0  0  0  0  0
    8.6179   -7.7352   27.2289 N   0  0  0  0  0  0  0  0  0  0  0  0
    6.3841   -8.4173   26.6977 C   0  0  0  0  0  0  0  0  0  0  0  0
    5.4889   -8.0287   17.1846 C   0  0  0  0  0  0  0  0  0  0  0  0
    4.3942   -9.1065   17.4581 C   0  0  0  0  0  0  0  0  0  0  0  0
    5.4009   -6.1482   27.7512 C   0  0  0  0  0  0  0  0  0  0  0  0
    7.2571   -7.4778   27.2451 C   0  0  0  0  0  0  0  0  0  0  0  0
    0.0631   -4.8981   27.2579 C   0  0  0  0  0  0  0  0  0  0  0  0
    3.1919   -6.8078   27.0321 N   0  0  0  0  0  0  0  0  0  0  0  0
  1  4  4  0
  1 22  4  0
  2 20  4  0
  2 27  4  0
  3  9  1  0
  4 25  4  0
  4 28  1  0
  5  8  4  0
  5 17  4  0
  6  7  4  0
  6 16  4  0
  7 18  4  0
  8 27  4  0
 10 11  2  0
 11 14  1  0
 11 27  1  0
 12 19  4  0
 13 23  4  0
 13 24  4  0
 15 18  1  0
 16 25  4  0
 16 26  4  0
 17 20  4  0
 17 28  1  0
 18 21  4  0
 19 24  4  0
 21 26  4  0
 22 26  4  0
 23 24  4  0
M  END
$$$$

 Created by Python create_sdf_string function

 28 53  0  0  0  0  0  0  0  0999 V2000
    4.8855   -8.0707   26.8528 N   0  0  0  0  0  0  0  0  0  0  0  0
    0.3545   -5.9058   27.8795 N   0  0  0  0  0  0  0  0  0  0  0  0
    4.1077   -7.1075   13.9889 C   0  0  0  0  0  0  0  0  0  0  0  0
    4.9711   -6.3191   27.4250 C   0  0  0  0  0  0  0  0  0  0  0  0
    2.8285   -4.5361   26.9763 C   0  0  0  0  0  0  0  0  0  0  0  0
    9.1132   -5.4990   28.0899 N   0  0  0  0  0  0  0  0  0  0  0  0
    1.4339   -3.4609   26.8012 C   0  0  0  0  0  0  0  0  0  0  0  0
   -1.4161   -3.1262   27.2416 O   0  0  0  0  0  0  0  0  0  0  0  0
   -1.1876   -4.7519   27.6593 C   0  0  0  0  0  0  0  0  0  0  0  0
    3.9254   -8.9455   14.5680 C   0  0  0  0  0  0  0  0  0  0  0  0
    5.7701   -7.7132   16.4869 C   0  0  0  0  0  0  0  0  0  0  0  0
   -2.3344   -5.0916   27.5150 O   0  0  0  0  0  0  0  0  0  0  0  0
   11.0364   -6.8834   27.2128 C   0  0  0  0  0  0  0  0  0  0  0  0
    6.9410   -6.2594   27.7305 C   0  0  0  0  0  0  0  0  0  0  0  0
    2.4722   -5.9318   27.3085 C   0  0  0  0  0  0  0  0  0  0  0  0
    9.1876   -6.3248   27.6667 C   0  0  0  0  0  0  0  0  0  0  0  0
    8.9001   -7.4291   27.1730 N   0  0  0  0  0  0  0  0  0  0  0  0
    6.3110   -8.1784   26.9712 C   0  0  0  0  0  0  0  0  0  0  0  0
    5.6126   -9.4293   16.5630 C   0  0  0  0  0  0  0  0  0  0  0  0
    5.0085   -6.0085   27.8785 N   0  0  0  0  0  0  0  0  0  0  0  0
    7.1804   -7.3523   27.3906 C   0  0  0  0  0  0  0  0  0  0  0  0
   -0.0300   -4.4808   27.3076 C   0  0  0  0  0  0  0  0  0  0  0  0
    3.1086   -6.5471   26.9912 F   0  0  0  0  0  0  0  0  0  0  0  0
    8.6981   -4.2714   29.6887 He  0  0  0  0  0  0  0  0  0  0  0  0
    3.9121   -6.5422   15.5017 He  0  0  0  0  0  0  0  0  0  0  0  0
    2.7272   -8.4315   17.2597 He  0  0  0  0  0  0  0  0  0  0  0  0
    1.1646   -6.3540   27.6375 He  0  0  0  0  0  0  0  0  0  0  0  0
    2.2391   -8.4238   18.3504 He  0  0  0  0  0  0  0  0  0  0  0  0
  1  3  4  0
  1  4  4  0
  1 11  3  0
  1 16  3  0
  1 18  2  0
  1 20  3  0
  2 16  3  0
  2 22  4  0
  3  6  3  0
  3  7  1  0
  3  9  4  0
  3 12  4  0
  3 13  1  0
  3 22  2  0
  4  5  3  0
  4 23  1  0
  5  7  4  0
  5 10  1  0
  5 15  4  0
  5 16  4  0
  5 19  2  0
  6 10  4  0
  6 16  1  0
  7 12  4  0
  7 13  4  0
  7 18  1  0
  7 19  3  0
  7 22  4  0
  8  9  2  0
  8 11  4  0
  8 14  4  0
  8 20  4  0
  9 16  1  0
  9 18  3  0
  9 22  1  0
 10 15  2  0
 10 16  3  0
 10 18  2  0
 10 21  2  0
 11 14  1  0
 11 15  4  0
 11 19  3  0
 11 22  2  0
 12 19  1  0
 13 16  1  0
 13 19  1  0
 14 20  4  0
 14 21  4  0
 15 19  3  0
 15 23  1  0
 16 17  4  0
 17 21  4  0
 19 21  3  0
M  END
$$$$

 Created by Python create_sdf_string function

 28 29  0  0  0  0  0  0  0  0999 V2000
    5.2148   -7.9992   26.7858 N   0  0  0  0  0  0  0  0  0  0  0  0
    0.2656   -6.0744   27.5541 C   0  0  0  0  0  0  0  0  0  0  0  0
    4.1313   -7.0207   14.4071 C   0  0  0  0  0  0  0  0  0  0  0  0
    4.6644   -6.8116   27.1918 C   0  0  0  0  0  0  0  0  0  0  0  0
    2.4708   -4.5428   26.9823 C   0  0  0  0  0  0  0  0  0  0  0  0
    7.8988   -5.1406   28.5179 C   0  0  0  0  0  0  0  0  0  0  0  0
    8.9708   -5.4482   28.2428 N   0  0  0  0  0  0  0  0  0  0  0  0
    1.2217   -3.8646   27.0127 C   0  0  0  0  0  0  0  0  0  0  0  0
    3.5103   -7.5051   15.3435 C   0  0  0  0  0  0  0  0  0  0  0  0
   -1.4482   -3.0854   27.2145 O   0  0  0  0  0  0  0  0  0  0  0  0
   -1.2591   -4.2137   27.3537 C   0  0  0  0  0  0  0  0  0  0  0  0
    4.2752   -8.2258   15.1449 C   0  0  0  0  0  0  0  0  0  0  0  0
    5.0418   -8.1882   16.6420 C   0  0  0  0  0  0  0  0  0  0  0  0
   -2.2263   -5.0509   27.5334 O   0  0  0  0  0  0  0  0  0  0  0  0
   10.9360   -6.6744   27.3374 C   0  0  0  0  0  0  0  0  0  0  0  0
    6.8431   -6.1595   27.8016 C   0  0  0  0  0  0  0  0  0  0  0  0
    2.5205   -5.8964   27.1807 C   0  0  0  0  0  0  0  0  0  0  0  0
    9.4859   -6.5862   27.5681 C   0  0  0  0  0  0  0  0  0  0  0  0
    2.7578   -8.4456   16.4513 C   0  0  0  0  0  0  0  0  0  0  0  0
    1.3680   -6.5378   27.5071 C   0  0  0  0  0  0  0  0  0  0  0  0
    8.7274   -7.5344   27.2149 N   0  0  0  0  0  0  0  0  0  0  0  0
    6.4551   -8.2624   26.8523 C   0  0  0  0  0  0  0  0  0  0  0  0
    4.8947   -8.7236   17.0013 C   0  0  0  0  0  0  0  0  0  0  0  0
    3.2923   -8.9610   16.8966 C   0  0  0  0  0  0  0  0  0  0  0  0
    5.4483   -5.8791   27.7378 N   0  0  0  0  0  0  0  0  0  0  0  0
    7.3569   -7.2572   27.3157 C   0  0  0  0  0  0  0  0  0  0  0  0
    0.0991   -4.7325   27.3144 C   0  0  0  0  0  0  0  0  0  0  0  0
    3.4372   -6.5438   26.9129 N   0  0  0  0  0  0  0  0  0  0  0  0
  1  4  4  0
  1 22  4  0
  2 20  4  0
  2 27  4  0
  3  9  1  0
  4 25  4  0
  4 28  1  0
  5  8  4  0
  5 17  4  0
  6  7  4  0
  6 16  4  0
  7 18  4  0
  8 27  4  0
  9 12  4  0
  9 19  4  0
 10 11  2  0
 11 14  1  0
 11 27  1  0
 13 23  4  0
 15 18  1  0
 16 25  4  0
 16 26  4  0
 17 20  4  0
 17 28  1  0
 18 21  4  0
 19 24  4  0
 21 26  4  0
 22 26  4  0
 23 24  4  0
M  END
$$$$

 Created by Python create_sdf_string function

 28 62  0  0  0  0  0  0  0  0999 V2000
    5.6138   -7.9239   26.6735 N   0  0  0  0  0  0  0  0  0  0  0  0
    0.0327   -6.7978   27.1385 C   0  0  0  0  0  0  0  0  0  0  0  0
    4.6777   -6.6874   14.6651 Cl  0  0  0  0  0  0  0  0  0  0  0  0
    4.7596   -6.8226   27.0919 C   0  0  0  0  0  0  0  0  0  0  0  0
    2.1375   -4.7539   27.2851 N   0  0  0  0  0  0  0  0  0  0  0  0
    8.7964   -4.7458   28.7001 N   0  0  0  0  0  0  0  0  0  0  0  0
    0.9556   -3.3247   27.0187 C   0  0  0  0  0  0  0  0  0  0  0  0
    4.1641   -7.2124   15.4637 N   0  0  0  0  0  0  0  0  0  0  0  0
   -1.2943   -3.5220   27.5778 O   0  0  0  0  0  0  0  0  0  0  0  0
   -1.4250   -4.4870   27.7546 C   0  0  0  0  0  0  0  0  0  0  0  0
    5.5300   -9.1243   15.9690 C   0  0  0  0  0  0  0  0  0  0  0  0
   -2.6983   -4.4170   27.5138 O   0  0  0  0  0  0  0  0  0  0  0  0
   10.8565   -6.4133   27.3315 S   0  0  0  0  0  0  0  0  0  0  0  0
    7.1489   -6.7878   27.6849 C   0  0  0  0  0  0  0  0  0  0  0  0
    2.5729   -5.8994   27.5001 C   0  0  0  0  0  0  0  0  0  0  0  0
    9.3285   -6.6907   27.6538 C   0  0  0  0  0  0  0  0  0  0  0  0
    2.9619   -8.2153   16.4185 C   0  0  0  0  0  0  0  0  0  0  0  0
    1.0099   -6.0500   26.5612 C   0  0  0  0  0  0  0  0  0  0  0  0
    8.5190   -7.2804   27.4381 N   0  0  0  0  0  0  0  0  0  0  0  0
    6.2986   -7.9921   26.4724 C   0  0  0  0  0  0  0  0  0  0  0  0
    3.6134   -8.6071   16.9497 C   0  0  0  0  0  0  0  0  0  0  0  0
    4.8444   -9.6246   16.4219 F   0  0  0  0  0  0  0  0  0  0  0  0
    5.4509   -5.9822   27.9674 N   0  0  0  0  0  0  0  0  0  0  0  0
    7.2187   -7.1041   26.7967 C   0  0  0  0  0  0  0  0  0  0  0  0
   -0.1343   -4.5259   27.8636 C   0  0  0  0  0  0  0  0  0  0  0  0
    3.5577   -6.9396   27.2452 N   0  0  0  0  0  0  0  0  0  0  0  0
    7.6989   -6.3337   27.9923 He  0  0  0  0  0  0  0  0  0  0  0  0
    3.8012   -8.1120   15.6435 He  0  0  0  0  0  0  0  0  0  0  0  0
  1  4  4  0
  1 17  3  0
  1 18  1  0
  1 20  4  0
  2  9  4  0
  2 10  2  0
  2 11  3  0
  2 16  1  0
  2 21  4  0
  2 22  2  0
  2 25  4  0
  3  8  4  0
  3 10  3  0
  3 11  4  0
  3 17  1  0
  3 20  3  0
  3 24  3  0
  4 18  3  0
  4 23  4  0
  4 25  1  0
  4 26  1  0
  5 15  4  0
  6  8  2  0
  6 14  3  0
  6 16  4  0
  6 19  3  0
  6 22  4  0
  7 25  4  0
  8 11  4  0
  8 12  3  0
  8 15  3  0
  8 22  1  0
  9 11  3  0
  9 22  2  0
 10 12  1  0
 10 17  4  0
 10 25  4  0
 11 15  4  0
 11 18  3  0
 11 21  4  0
 11 24  2  0
 12 13  3  0
 12 17  1  0
 12 22  4  0
 13 24  1  0
 14 15  4  0
 14 17  1  0
 14 23  4  0
 14 24  4  0
 15 26  1  0
 16 17  3  0
 16 19  4  0
 17 18  2  0
 17 24  3  0
 18 19  1  0
 18 21  3  0
 19 21  4  0
 19 24  4  0
 20 24  1  0
 21 22  4  0
 22 24  1  0
 23 24  2  0
M  END
$$$$

 Created by Python create_sdf_string function

 28 29  0  0  0  0  0  0  0  0999 V2000
    5.1613   -7.9279   26.4513 N   0  0  0  0  0  0  0  0  0  0  0  0
    0.1346   -6.1355   27.2843 C   0  0  0  0  0  0  0  0  0  0  0  0
    4.8080   -7.0139   14.7153 C   0  0  0  0  0  0  0  0  0  0  0  0
    4.6605   -6.8912   27.1817 C   0  0  0  0  0  0  0  0  0  0  0  0
    2.3298   -4.6176   27.2187 C   0  0  0  0  0  0  0  0  0  0  0  0
    7.6081   -5.2396   28.4313 C   0  0  0  0  0  0  0  0  0  0  0  0
    8.8051   -5.4221   28.3661 N   0  0  0  0  0  0  0  0  0  0  0  0
    1.1624   -3.9959   27.2441 C   0  0  0  0  0  0  0  0  0  0  0  0
    4.1182   -7.3908   15.2585 C   0  0  0  0  0  0  0  0  0  0  0  0
   -1.4064   -3.0920   27.5927 O   0  0  0  0  0  0  0  0  0  0  0  0
   -1.4094   -4.2897   27.4875 C   0  0  0  0  0  0  0  0  0  0  0  0
    3.4390   -7.6779   15.3078 C   0  0  0  0  0  0  0  0  0  0  0  0
    5.0853   -8.6711   16.2262 C   0  0  0  0  0  0  0  0  0  0  0  0
   -2.4238   -4.9439   27.5353 O   0  0  0  0  0  0  0  0  0  0  0  0
   10.8545   -6.4150   27.5637 O   0  0  0  0  0  0  0  0  0  0  0  0
    6.7983   -6.2128   27.7784 C   0  0  0  0  0  0  0  0  0  0  0  0
    2.3978   -5.9536   27.2700 C   0  0  0  0  0  0  0  0  0  0  0  0
    9.4210   -6.4492   27.6733 C   0  0  0  0  0  0  0  0  0  0  0  0
    2.8209   -8.2965   16.2981 C   0  0  0  0  0  0  0  0  0  0  0  0
    1.2864   -6.6931   27.3241 C   0  0  0  0  0  0  0  0  0  0  0  0
    8.6953   -7.4084   27.1412 N   0  0  0  0  0  0  0  0  0  0  0  0
    6.5128   -8.2222   26.4479 C   0  0  0  0  0  0  0  0  0  0  0  0
    3.7306   -8.9965   16.6992 C   0  0  0  0  0  0  0  0  0  0  0  0
    4.2774   -9.4714   17.0519 C   0  0  0  0  0  0  0  0  0  0  0  0
    5.3843   -6.0609   27.8122 N   0  0  0  0  0  0  0  0  0  0  0  0
    7.3351   -7.3078   27.1214 C   0  0  0  0  0  0  0  0  0  0  0  0
   -0.0488   -4.8387   27.3148 C   0  0  0  0  0  0  0  0  0  0  0  0
    3.3965   -6.7785   27.2304 N   0  0  0  0  0  0  0  0  0  0  0  0
  1  4  4  0
  1 22  4  0
  2 20  4  0
  2 27  4  0
  3  9  4  0
  4 25  4  0
  4 28  1  0
  5  8  4  0
  5 17  4  0
  6  7  4  0
  6 16  4  0
  7 18  4  0
  8 27  4  0
  9 12  4  0
 10 11  2  0
 11 14  1  0
 11 27  1  0
 12 19  4  0
 13 23  4  0
 15 18  2  0
 16 25  4  0
 16 26  4  0
 17 20  4  0
 17 28  1  0
 18 21  4  0
 19 23  4  0
 21 26  4  0
 22 26  4  0
 23 24  4  0
M  END
$$$$

 Created by Python create_sdf_string function

 28 59  0  0  0  0  0  0  0  0999 V2000
    5.2817   -8.1268   26.3408 N   0  0  0  0  0  0  0  0  0  0  0  0
    0.0683   -6.2727   27.5592 C   0  0  0  0  0  0  0  0  0  0  0  0
    5.5599   -6.2107   14.5632 F   0  0  0  0  0  0  0  0  0  0  0  0
    2.1638   -4.4421   27.1857 C   0  0  0  0  0  0  0  0  0  0  0  0
    6.8767   -4.6677   29.2905 S   0  0  0  0  0  0  0  0  0  0  0  0
    8.5536   -5.5043   28.7863 N   0  0  0  0  0  0  0  0  0  0  0  0
    0.8960   -4.2915   27.0751 F   0  0  0  0  0  0  0  0  0  0  0  0
    4.5141   -6.7958   15.9065 N   0  0  0  0  0  0  0  0  0  0  0  0
   -1.5231   -2.9022   27.5688 O   0  0  0  0  0  0  0  0  0  0  0  0
   -1.2183   -4.2130   27.9068 C   0  0  0  0  0  0  0  0  0  0  0  0
   -2.1050   -4.9956   27.7997 O   0  0  0  0  0  0  0  0  0  0  0  0
   11.1940   -6.1696   27.5598 O   0  0  0  0  0  0  0  0  0  0  0  0
    6.9240   -5.8762   28.0490 S   0  0  0  0  0  0  0  0  0  0  0  0
    2.1721   -6.3143   27.5810 C   0  0  0  0  0  0  0  0  0  0  0  0
    9.5119   -6.3642   27.5683 C   0  0  0  0  0  0  0  0  0  0  0  0
    2.4706   -8.7484   16.2899 P   0  0  0  0  0  0  0  0  0  0  0  0
    6.3816   -8.2702   26.4428 C   0  0  0  0  0  0  0  0  0  0  0  0
    4.2657   -8.4359   16.5312 C   0  0  0  0  0  0  0  0  0  0  0  0
    3.8818   -9.8504   17.6370 C   0  0  0  0  0  0  0  0  0  0  0  0
    5.1412   -5.6930   27.5480 N   0  0  0  0  0  0  0  0  0  0  0  0
    7.1197   -7.0668   26.9179 C   0  0  0  0  0  0  0  0  0  0  0  0
   -0.2831   -4.8197   27.1363 C   0  0  0  0  0  0  0  0  0  0  0  0
    3.2712   -6.8690   27.4213 N   0  0  0  0  0  0  0  0  0  0  0  0
    4.1836   -6.9992   27.1023 He  0  0  0  0  0  0  0  0  0  0  0  0
    2.6468   -7.3284   14.3696 He  0  0  0  0  0  0  0  0  0  0  0  0
    5.1511   -8.4900   15.6387 He  0  0  0  0  0  0  0  0  0  0  0  0
    2.2726   -8.2751   27.1010 He  0  0  0  0  0  0  0  0  0  0  0  0
    8.5390   -7.3102   27.0296 He  0  0  0  0  0  0  0  0  0  0  0  0
  1  5  3  0
  1  6  4  0
  1  7  3  0
  1  9  2  0
  1 17  4  0
  1 18  2  0
  2  8  2  0
  2 15  2  0
  2 20  4  0
  2 22  4  0
  3  6  4  0
  3  8  4  0
  3 12  4  0
  3 14  3  0
  3 19  1  0
  4  5  4  0
  4  6  3  0
  4  7  4  0
  4 11  1  0
  4 12  3  0
  4 14  4  0
  4 22  1  0
  5  7  2  0
  5  8  1  0
  5 10  1  0
  5 11  4  0
  5 13  2  0
  5 14  3  0
  5 15  2  0
  5 16  3  0
  5 20  3  0
  5 22  1  0
  6 15  4  0
  7  8  1  0
  7 16  1  0
  7 19  2  0
  7 21  2  0
  7 22  4  0
  8 13  4  0
  8 14  2  0
  8 17  3  0
  8 22  3  0
  9 10  2  0
  9 11  2  0
  9 19  4  0
 10 11  1  0
 10 12  2  0
 10 14  3  0
 10 22  1  0
 11 18  2  0
 12 13  4  0
 12 15  2  0
 13 15  4  0
 13 21  4  0
 13 23  2  0
 14 23  1  0
 16 21  1  0
 17 21  4  0
 21 22  4  0
M  END
$$$$

 Created by Python create_sdf_string function

 28 32  0  0  0  0  0  0  0  0999 V2000
    5.1909   -7.9806   26.4084 N   0  0  0  0  0  0  0  0  0  0  0  0
    0.0306   -6.2478   27.4926 C   0  0  0  0  0  0  0  0  0  0  0  0
    5.1854   -6.7021   14.6608 C   0  0  0  0  0  0  0  0  0  0  0  0
    4.5447   -6.9506   27.1106 C   0  0  0  0  0  0  0  0  0  0  0  0
    2.3175   -4.8061   27.0418 C   0  0  0  0  0  0  0  0  0  0  0  0
    7.3277   -5.1118   28.6452 C   0  0  0  0  0  0  0  0  0  0  0  0
    8.6822   -5.3079   28.5512 N   0  0  0  0  0  0  0  0  0  0  0  0
    1.1172   -4.1089   27.1523 C   0  0  0  0  0  0  0  0  0  0  0  0
    4.4159   -7.3579   15.3144 C   0  0  0  0  0  0  0  0  0  0  0  0
   -1.4452   -3.1402   27.5244 O   0  0  0  0  0  0  0  0  0  0  0  0
   -1.3099   -4.3615   27.5932 C   0  0  0  0  0  0  0  0  0  0  0  0
    2.9127   -7.4595   15.2838 C   0  0  0  0  0  0  0  0  0  0  0  0
    5.0639   -8.1868   16.3389 C   0  0  0  0  0  0  0  0  0  0  0  0
   -2.3105   -5.1331   27.8406 O   0  0  0  0  0  0  0  0  0  0  0  0
   10.5678   -6.2258   27.7751 O   0  0  0  0  0  0  0  0  0  0  0  0
    6.5497   -6.1087   27.8142 C   0  0  0  0  0  0  0  0  0  0  0  0
    2.3076   -6.1472   27.1741 C   0  0  0  0  0  0  0  0  0  0  0  0
    9.2779   -6.2511   27.8279 C   0  0  0  0  0  0  0  0  0  0  0  0
    2.4943   -8.3438   16.1676 C   0  0  0  0  0  0  0  0  0  0  0  0
    1.1061   -6.7787   27.2937 C   0  0  0  0  0  0  0  0  0  0  0  0
    8.5304   -7.2330   27.2015 N   0  0  0  0  0  0  0  0  0  0  0  0
    6.4371   -8.1077   26.4397 C   0  0  0  0  0  0  0  0  0  0  0  0
    4.0588   -8.7596   16.5920 C   0  0  0  0  0  0  0  0  0  0  0  0
    3.6489   -9.2200   16.9191 C   0  0  0  0  0  0  0  0  0  0  0  0
    5.2292   -5.9833   27.7561 C   0  0  0  0  0  0  0  0  0  0  0  0
    7.1399   -7.1536   27.1302 C   0  0  0  0  0  0  0  0  0  0  0  0
    0.0184   -4.9595   27.4115 C   0  0  0  0  0  0  0  0  0  0  0  0
    3.2706   -6.9216   27.1187 N   0  0  0  0  0  0  0  0  0  0  0  0
  1  4  4  0
  1 22  4  0
  2 20  4  0
  2 27  4  0
  3  9  1  0
  4 25  4  0
  4 28  1  0
  5  8  4  0
  5 17  4  0
  6  7  4  0
  6 16  4  0
  7 18  4  0
  8 27  4  0
  9 12  4  0
  9 13  4  0
 10 11  2  0
 11 14  1  0
 11 27  1  0
 12 19  4  0
 13 23  4  0
 13 24  4  0
 15 18  2  0
 16 25  4  0
 16 26  4  0
 17 20  4  0
 17 28  1  0
 18 21  4  0
 19 23  4  0
 19 24  4  0
 21 26  4  0
 22 26  4  0
 23 24  4  0
M  END
$$$$

 Created by Python create_sdf_string function

 28 55  0  0  0  0  0  0  0  0999 V2000
   -0.1545   -6.1668   27.3356 C   0  0  0  0  0  0  0  0  0  0  0  0
    4.4915   -7.0652   26.8729 Br  0  0  0  0  0  0  0  0  0  0  0  0
    6.2772   -5.0655   29.1426 C   0  0  0  0  0  0  0  0  0  0  0  0
    8.9521   -5.5250   28.4962 N   0  0  0  0  0  0  0  0  0  0  0  0
    5.7016   -7.7409   15.1787 S   0  0  0  0  0  0  0  0  0  0  0  0
   -1.9360   -2.8687   27.4652 O   0  0  0  0  0  0  0  0  0  0  0  0
   -1.4940   -4.2999   27.5976 C   0  0  0  0  0  0  0  0  0  0  0  0
    3.6368   -7.1565   16.6706 F   0  0  0  0  0  0  0  0  0  0  0  0
    5.4425   -8.5652   17.2258 C   0  0  0  0  0  0  0  0  0  0  0  0
   -2.5894   -4.7828   27.8071 C   0  0  0  0  0  0  0  0  0  0  0  0
   10.7045   -6.6088   27.8416 O   0  0  0  0  0  0  0  0  0  0  0  0
    6.0999   -6.3850   27.7122 C   0  0  0  0  0  0  0  0  0  0  0  0
    9.2915   -6.3262   28.2402 C   0  0  0  0  0  0  0  0  0  0  0  0
    1.2575   -8.6221   17.0418 S   0  0  0  0  0  0  0  0  0  0  0  0
    0.0571   -6.7795   26.2172 C   0  0  0  0  0  0  0  0  0  0  0  0
    8.4868   -7.0379   26.9181 N   0  0  0  0  0  0  0  0  0  0  0  0
    6.3370   -7.6560   26.5653 C   0  0  0  0  0  0  0  0  0  0  0  0
    4.6770   -5.8812   27.7969 C   0  0  0  0  0  0  0  0  0  0  0  0
    7.0165   -7.7141   27.1933 C   0  0  0  0  0  0  0  0  0  0  0  0
    2.9254   -6.3723   26.8199 N   0  0  0  0  0  0  0  0  0  0  0  0
    5.2119   -8.1841   26.6651 He  0  0  0  0  0  0  0  0  0  0  0  0
    5.5174   -6.1824   14.1018 He  0  0  0  0  0  0  0  0  0  0  0  0
    2.3123   -5.0340   27.5343 He  0  0  0  0  0  0  0  0  0  0  0  0
    0.8852   -3.8328   26.9671 He  0  0  0  0  0  0  0  0  0  0  0  0
    2.6089   -6.2511   26.7803 He  0  0  0  0  0  0  0  0  0  0  0  0
    4.3699   -9.0892   15.8416 He  0  0  0  0  0  0  0  0  0  0  0  0
    4.0992   -8.8982   15.8063 He  0  0  0  0  0  0  0  0  0  0  0  0
   -0.1093   -4.6342   27.3640 He  0  0  0  0  0  0  0  0  0  0  0  0
  1  5  1  0
  1  6  4  0
  1 13  1  0
  1 14  1  0
  1 15  4  0
  2  3  4  0
  2  4  2  0
  2  5  2  0
  2  7  3  0
  2 10  1  0
  2 12  3  0
  2 13  3  0
  2 18  4  0
  2 20  1  0
  3  4  1  0
  3  6  3  0
  3 10  2  0
  3 14  2  0
  3 17  2  0
  4  5  2  0
  4 13  4  0
  5  8  2  0
  5  9  3  0
  5 10  3  0
  5 11  3  0
  5 13  1  0
  5 14  2  0
  5 17  3  0
  6  7  2  0
  7 10  1  0
  8 10  4  0
  8 11  3  0
  8 14  4  0
  8 15  4  0
  8 16  3  0
  8 18  1  0
  9 10  3  0
  9 11  1  0
  9 19  1  0
  9 20  3  0
 10 11  1  0
 10 13  2  0
 10 14  4  0
 11 13  2  0
 11 14  1  0
 11 15  3  0
 12 14  4  0
 12 18  4  0
 12 19  4  0
 13 15  3  0
 13 16  4  0
 13 20  4  0
 14 16  3  0
 15 19  4  0
 17 19  4  0
M  END
$$$$

 Created by Python create_sdf_string function

 28 29  0  0  0  0  0  0  0  0999 V2000
    4.9524   -7.9393   26.3570 C   0  0  0  0  0  0  0  0  0  0  0  0
   -0.2064   -6.0526   27.0192 C   0  0  0  0  0  0  0  0  0  0  0  0
    5.4920   -6.9638   14.8691 C   0  0  0  0  0  0  0  0  0  0  0  0
    4.2943   -6.8983   26.9030 C   0  0  0  0  0  0  0  0  0  0  0  0
    2.1451   -4.6965   27.0762 C   0  0  0  0  0  0  0  0  0  0  0  0
    7.2078   -5.2540   28.6810 C   0  0  0  0  0  0  0  0  0  0  0  0
    8.5232   -5.4094   28.6659 N   0  0  0  0  0  0  0  0  0  0  0  0
    0.9640   -3.9873   27.3003 C   0  0  0  0  0  0  0  0  0  0  0  0
    5.3644   -7.4897   15.4133 C   0  0  0  0  0  0  0  0  0  0  0  0
   -1.6460   -2.8941   27.4540 O   0  0  0  0  0  0  0  0  0  0  0  0
   -1.5304   -4.0534   27.5251 C   0  0  0  0  0  0  0  0  0  0  0  0
    3.3738   -7.4889   16.1654 C   0  0  0  0  0  0  0  0  0  0  0  0
    5.0778   -8.1740   16.7292 C   0  0  0  0  0  0  0  0  0  0  0  0
   -2.6395   -4.8761   27.8095 C   0  0  0  0  0  0  0  0  0  0  0  0
   10.4585   -6.4175   27.8787 O   0  0  0  0  0  0  0  0  0  0  0  0
    6.4166   -6.1760   27.8352 C   0  0  0  0  0  0  0  0  0  0  0  0
    2.1182   -5.9883   26.9053 C   0  0  0  0  0  0  0  0  0  0  0  0
    9.1308   -6.3993   27.9024 C   0  0  0  0  0  0  0  0  0  0  0  0
    2.3226   -8.6065   16.5871 C   0  0  0  0  0  0  0  0  0  0  0  0
    0.9346   -6.7163   26.9135 C   0  0  0  0  0  0  0  0  0  0  0  0
    8.4185   -7.3208   27.2841 N   0  0  0  0  0  0  0  0  0  0  0  0
    6.2844   -8.1551   26.4977 C   0  0  0  0  0  0  0  0  0  0  0  0
    3.8798   -9.0696   16.2023 C   0  0  0  0  0  0  0  0  0  0  0  0
    3.9094   -8.6457   15.8599 C   0  0  0  0  0  0  0  0  0  0  0  0
    5.0115   -6.0727   27.6348 C   0  0  0  0  0  0  0  0  0  0  0  0
    7.0550   -7.1908   27.2134 C   0  0  0  0  0  0  0  0  0  0  0  0
   -0.2505   -4.7257   27.2849 C   0  0  0  0  0  0  0  0  0  0  0  0
    3.0612   -6.7576   26.5458 N   0  0  0  0  0  0  0  0  0  0  0  0
  1  4  4  0
  1 22  4  0
  2 20  4  0
  2 27  4  0
  3  9  1  0
  4 25  4  0
  4 28  1  0
  5  8  4  0
  5 17  4  0
  6  7  4  0
  6 16  4  0
  7 18  4  0
  8 27  4  0
  9 13  4  0
 10 11  2  0
 11 14  1  0
 11 27  1  0
 12 19  4  0
 13 23  4  0
 15 18  2  0
 16 25  4  0
 16 26  4  0
 17 20  4  0
 17 28  1  0
 18 21  4  0
 19 23  4  0
 21 26  4  0
 22 26  4  0
 23 24  4  0
M  END
$$$$

 Created by Python create_sdf_string function

 28 57  0  0  0  0  0  0  0  0999 V2000
    4.7503   -8.0257   26.6623 C   0  0  0  0  0  0  0  0  0  0  0  0
   -0.1434   -6.2245   27.1208 C   0  0  0  0  0  0  0  0  0  0  0  0
    5.9038   -7.7246   14.2922 C   0  0  0  0  0  0  0  0  0  0  0  0
    4.4525   -6.7602   27.0867 C   0  0  0  0  0  0  0  0  0  0  0  0
    8.1121   -5.5894   28.1701 N   0  0  0  0  0  0  0  0  0  0  0  0
    1.0659   -4.3179   27.4753 C   0  0  0  0  0  0  0  0  0  0  0  0
    6.1586   -6.9346   16.6532 C   0  0  0  0  0  0  0  0  0  0  0  0
   -1.4645   -3.8530   27.8380 C   0  0  0  0  0  0  0  0  0  0  0  0
    3.1120   -7.5984   15.3817 F   0  0  0  0  0  0  0  0  0  0  0  0
    5.4574   -7.5449   16.0944 P   0  0  0  0  0  0  0  0  0  0  0  0
   -2.8575   -4.4487   27.5144 C   0  0  0  0  0  0  0  0  0  0  0  0
   10.5502   -5.9623   28.0481 O   0  0  0  0  0  0  0  0  0  0  0  0
    6.5118   -5.9623   27.7455 C   0  0  0  0  0  0  0  0  0  0  0  0
    1.6784   -6.1106   27.0808 B   0  0  0  0  0  0  0  0  0  0  0  0
    8.9326   -6.1738   28.2821 C   0  0  0  0  0  0  0  0  0  0  0  0
    1.3708   -6.2266   26.7354 C   0  0  0  0  0  0  0  0  0  0  0  0
    8.8098   -7.2366   27.2943 N   0  0  0  0  0  0  0  0  0  0  0  0
    6.0587   -8.2816   26.4449 C   0  0  0  0  0  0  0  0  0  0  0  0
    3.6725   -7.9457   15.1972 C   0  0  0  0  0  0  0  0  0  0  0  0
    5.2112   -5.9454   27.6200 C   0  0  0  0  0  0  0  0  0  0  0  0
    7.1886   -7.6061   26.8641 C   0  0  0  0  0  0  0  0  0  0  0  0
   -0.0737   -4.9783   27.3843 C   0  0  0  0  0  0  0  0  0  0  0  0
    3.0966   -6.7499   26.1856 N   0  0  0  0  0  0  0  0  0  0  0  0
    2.3972   -4.7552   27.0713 He  0  0  0  0  0  0  0  0  0  0  0  0
    6.5937   -3.9951   29.5972 He  0  0  0  0  0  0  0  0  0  0  0  0
   -1.3800   -2.7823   28.0487 He  0  0  0  0  0  0  0  0  0  0  0  0
    1.9429   -9.1258   15.8464 He  0  0  0  0  0  0  0  0  0  0  0  0
    3.8664   -8.9737   16.1691 He  0  0  0  0  0  0  0  0  0  0  0  0
  1  4  4  0
  1  7  1  0
  1  9  3  0
  1 14  4  0
  1 18  4  0
  1 20  2  0
  2  7  3  0
  2 12  4  0
  2 16  4  0
  2 19  3  0
  2 22  4  0
  2 23  3  0
  3  6  4  0
  3 13  4  0
  3 14  2  0
  3 16  3  0
  3 23  3  0
  4  7  2  0
  4 10  2  0
  4 16  3  0
  4 20  4  0
  4 23  1  0
  5  9  2  0
  5 13  2  0
  5 16  4  0
  5 18  3  0
  5 21  3  0
  6 16  1  0
  7 10  4  0
  7 11  3  0
  7 19  1  0
  7 22  2  0
  8 11  3  0
  8 12  3  0
  8 16  3  0
  8 22  1  0
  9 15  2  0
  9 16  3  0
  9 22  2  0
 10 16  3  0
 10 19  4  0
 10 21  1  0
 11 20  1  0
 12 15  2  0
 13 20  4  0
 14 16  4  0
 14 19  2  0
 15 17  4  0
 15 21  4  0
 15 23  4  0
 16 17  1  0
 17 19  2  0
 17 21  4  0
 17 23  3  0
 18 19  1  0
 19 22  1  0
 20 21  2  0
M  END
$$$$

 Created by Python create_sdf_string function

 28 25  0  0  0  0  0  0  0  0999 V2000
    5.0637   -7.9687   26.4220 C   0  0  0  0  0  0  0  0  0  0  0  0
   -0.1925   -5.9714   27.0937 C   0  0  0  0  0  0  0  0  0  0  0  0
    5.6647   -7.5631   14.6343 C   0  0  0  0  0  0  0  0  0  0  0  0
    4.4095   -6.8256   26.8013 C   0  0  0  0  0  0  0  0  0  0  0  0
    2.1972   -4.6716   27.1407 C   0  0  0  0  0  0  0  0  0  0  0  0
    7.1053   -4.8110   28.7219 C   0  0  0  0  0  0  0  0  0  0  0  0
    8.0394   -5.1722   28.5141 N   0  0  0  0  0  0  0  0  0  0  0  0
    1.0522   -3.9696   27.4391 C   0  0  0  0  0  0  0  0  0  0  0  0
    5.8548   -7.3971   16.4867 C   0  0  0  0  0  0  0  0  0  0  0  0
   -1.3916   -2.7889   28.0509 O   0  0  0  0  0  0  0  0  0  0  0  0
   -1.3846   -3.9610   27.6715 C   0  0  0  0  0  0  0  0  0  0  0  0
    3.0698   -7.7242   15.4905 C   0  0  0  0  0  0  0  0  0  0  0  0
    5.2294   -7.4204   15.9779 C   0  0  0  0  0  0  0  0  0  0  0  0
   -2.6236   -4.5931   27.5017 C   0  0  0  0  0  0  0  0  0  0  0  0
   10.1979   -5.9706   28.0680 O   0  0  0  0  0  0  0  0  0  0  0  0
    6.4793   -6.0887   27.7556 C   0  0  0  0  0  0  0  0  0  0  0  0
    2.1148   -5.9888   26.8322 C   0  0  0  0  0  0  0  0  0  0  0  0
    8.9410   -6.1500   27.9536 C   0  0  0  0  0  0  0  0  0  0  0  0
    2.0007   -8.5772   15.8574 C   0  0  0  0  0  0  0  0  0  0  0  0
    0.9348   -6.7167   26.8410 C   0  0  0  0  0  0  0  0  0  0  0  0
    8.5209   -7.2487   27.3470 N   0  0  0  0  0  0  0  0  0  0  0  0
    6.3899   -8.1721   26.6364 C   0  0  0  0  0  0  0  0  0  0  0  0
    3.8964   -8.0044   15.5989 C   0  0  0  0  0  0  0  0  0  0  0  0
    4.2048   -8.5848   15.9171 C   0  0  0  0  0  0  0  0  0  0  0  0
    5.1329   -5.8951   27.5686 C   0  0  0  0  0  0  0  0  0  0  0  0
    7.1189   -7.1885   27.2466 C   0  0  0  0  0  0  0  0  0  0  0  0
   -0.2005   -4.6731   27.4121 C   0  0  0  0  0  0  0  0  0  0  0  0
    3.1696   -6.6284   26.3525 N   0  0  0  0  0  0  0  0  0  0  0  0
  1  4  4  0
  1 22  4  0
  2 20  4  0
  2 27  4  0
  4 25  4  0
  4 28  1  0
  5  8  4  0
  5 17  4  0
  6  7  4  0
  7 18  4  0
  8 27  4  0
  9 13  4  0
 10 11  2  0
 11 14  1  0
 11 27  1  0
 12 23  4  0
 15 18  2  0
 16 25  4  0
 16 26  4  0
 17 20  4  0
 17 28  1  0
 18 21  4  0
 21 26  4  0
 22 26  4  0
 23 24  4  0
M  END
$$$$

 Created by Python create_sdf_string function

 28 62  0  0  0  0  0  0  0  0999 V2000
    5.3469   -7.8233   26.3064 C   0  0  0  0  0  0  0  0  0  0  0  0
   -0.1134   -6.1652   26.8351 O   0  0  0  0  0  0  0  0  0  0  0  0
    4.8229   -7.2672   14.6389 S   0  0  0  0  0  0  0  0  0  0  0  0
    4.2811   -6.5660   26.8688 C   0  0  0  0  0  0  0  0  0  0  0  0
    2.2738   -5.0100   27.3829 C   0  0  0  0  0  0  0  0  0  0  0  0
    8.5321   -5.0812   28.9775 N   0  0  0  0  0  0  0  0  0  0  0  0
    1.4745   -4.2338   27.6524 B   0  0  0  0  0  0  0  0  0  0  0  0
    4.8710   -8.4760   16.4125 Cl  0  0  0  0  0  0  0  0  0  0  0  0
   -2.2131   -2.5451   28.0460 O   0  0  0  0  0  0  0  0  0  0  0  0
   -1.6161   -3.8882   27.4945 C   0  0  0  0  0  0  0  0  0  0  0  0
    5.6014   -6.8314   16.0907 P   0  0  0  0  0  0  0  0  0  0  0  0
   -2.5469   -5.1243   27.1183 C   0  0  0  0  0  0  0  0  0  0  0  0
   10.1669   -6.1193   27.9410 O   0  0  0  0  0  0  0  0  0  0  0  0
    6.6123   -6.4784   27.8856 C   0  0  0  0  0  0  0  0  0  0  0  0
    2.4831   -5.9196   26.9693 C   0  0  0  0  0  0  0  0  0  0  0  0
    9.1313   -6.2106   27.8379 C   0  0  0  0  0  0  0  0  0  0  0  0
    1.4761   -8.7463   15.6723 C   0  0  0  0  0  0  0  0  0  0  0  0
    0.6933   -7.2958   26.9948 S   0  0  0  0  0  0  0  0  0  0  0  0
    8.3179   -7.3300   27.3577 F   0  0  0  0  0  0  0  0  0  0  0  0
    6.6437   -8.2108   26.7125 C   0  0  0  0  0  0  0  0  0  0  0  0
    3.3779   -8.0583   14.7842 C   0  0  0  0  0  0  0  0  0  0  0  0
    5.0086   -6.0160   27.8921 C   0  0  0  0  0  0  0  0  0  0  0  0
    7.1398   -6.9570   27.5007 C   0  0  0  0  0  0  0  0  0  0  0  0
    0.1812   -4.5792   27.5011 C   0  0  0  0  0  0  0  0  0  0  0  0
    3.1146   -6.4652   26.0102 N   0  0  0  0  0  0  0  0  0  0  0  0
    7.1041   -4.5380   28.0114 He  0  0  0  0  0  0  0  0  0  0  0  0
    2.7790   -7.8869   16.4887 He  0  0  0  0  0  0  0  0  0  0  0  0
    3.6545   -8.0114   16.8890 He  0  0  0  0  0  0  0  0  0  0  0  0
  1  3  2  0
  1  4  4  0
  1  6  1  0
  1  8  3  0
  1 10  4  0
  1 18  2  0
  1 20  2  0
  1 21  4  0
  1 22  4  0
  2 18  4  0
  2 21  2  0
  2 24  4  0
  3 11  4  0
  3 14  2  0
  3 16  4  0
  3 22  1  0
  4 19  4  0
  4 20  4  0
  4 22  4  0
  4 24  3  0
  4 25  1  0
  5  7  4  0
  5 15  4  0
  6 11  2  0
  6 13  2  0
  6 16  4  0
  6 18  4  0
  6 20  2  0
  6 22  1  0
  8 11  2  0
  8 20  3  0
  8 25  4  0
  9 10  2  0
  9 18  2  0
  9 22  3  0
  9 23  3  0
  9 25  1  0
 10 12  1  0
 10 22  4  0
 10 24  1  0
 11 14  1  0
 11 15  4  0
 11 17  3  0
 11 22  4  0
 11 23  2  0
 12 17  1  0
 13 16  2  0
 14 17  3  0
 14 23  4  0
 14 25  3  0
 15 24  1  0
 16 19  4  0
 16 23  4  0
 16 24  2  0
 17 18  2  0
 17 19  4  0
 19 21  4  0
 19 23  4  0
 20 21  2  0
 21 24  2  0
 21 25  1  0
 24 25  3  0
M  END
$$$$

 Created by Python create_sdf_string function

 28 30  0  0  0  0  0  0  0  0999 V2000
    5.1136   -7.8734   26.3511 C   0  0  0  0  0  0  0  0  0  0  0  0
   -0.1826   -6.0613   26.9916 C   0  0  0  0  0  0  0  0  0  0  0  0
    4.7296   -7.2609   14.8257 C   0  0  0  0  0  0  0  0  0  0  0  0
    4.4221   -6.7753   26.7637 C   0  0  0  0  0  0  0  0  0  0  0  0
    2.2193   -4.7274   27.2923 C   0  0  0  0  0  0  0  0  0  0  0  0
    7.1721   -4.9453   28.4733 C   0  0  0  0  0  0  0  0  0  0  0  0
    8.4341   -4.9535   28.4674 C   0  0  0  0  0  0  0  0  0  0  0  0
    1.0391   -4.0513   27.5380 C   0  0  0  0  0  0  0  0  0  0  0  0
    4.9667   -7.9040   16.8899 C   0  0  0  0  0  0  0  0  0  0  0  0
   -1.5011   -2.9712   27.8617 O   0  0  0  0  0  0  0  0  0  0  0  0
   -1.3899   -4.0513   27.5030 C   0  0  0  0  0  0  0  0  0  0  0  0
    2.8431   -8.1755   15.9390 C   0  0  0  0  0  0  0  0  0  0  0  0
    5.3996   -7.4592   15.9615 C   0  0  0  0  0  0  0  0  0  0  0  0
   -2.6150   -4.7951   27.1669 C   0  0  0  0  0  0  0  0  0  0  0  0
   10.3617   -6.0684   28.0818 O   0  0  0  0  0  0  0  0  0  0  0  0
    6.4766   -5.9528   27.7494 C   0  0  0  0  0  0  0  0  0  0  0  0
    2.1938   -6.0087   26.8694 C   0  0  0  0  0  0  0  0  0  0  0  0
    9.1086   -6.0958   27.9950 C   0  0  0  0  0  0  0  0  0  0  0  0
    1.4939   -8.5666   15.9342 C   0  0  0  0  0  0  0  0  0  0  0  0
    1.0202   -6.6870   26.8151 C   0  0  0  0  0  0  0  0  0  0  0  0
    8.4700   -7.1557   27.5535 N   0  0  0  0  0  0  0  0  0  0  0  0
    6.4369   -8.0807   26.6680 C   0  0  0  0  0  0  0  0  0  0  0  0
    3.3806   -7.6804   14.7614 C   0  0  0  0  0  0  0  0  0  0  0  0
    3.7063   -8.3535   16.7916 C   0  0  0  0  0  0  0  0  0  0  0  0
    5.1146   -5.8449   27.4984 C   0  0  0  0  0  0  0  0  0  0  0  0
    7.1692   -7.0703   27.3098 C   0  0  0  0  0  0  0  0  0  0  0  0
   -0.1662   -4.7612   27.3670 C   0  0  0  0  0  0  0  0  0  0  0  0
    3.1815   -6.5865   26.3085 N   0  0  0  0  0  0  0  0  0  0  0  0
  1  4  4  0
  1 22  4  0
  2 20  4  0
  2 27  4  0
  3 13  4  0
  3 23  4  0
  4 25  4  0
  4 28  1  0
  5  8  4  0
  5 17  4  0
  6  7  4  0
  6 16  4  0
  7 18  4  0
  8 27  4  0
  9 13  4  0
  9 24  4  0
 10 11  2  0
 11 14  1  0
 11 27  1  0
 12 19  1  0
 12 23  4  0
 12 24  4  0
 15 18  2  0
 16 25  4  0
 16 26  4  0
 17 20  4  0
 17 28  1  0
 18 21  4  0
 21 26  4  0
 22 26  4  0
M  END
$$$$

 Created by Python create_sdf_string function

 28 51  0  0  0  0  0  0  0  0999 V2000
    4.9103   -7.5753   26.3869 C   0  0  0  0  0  0  0  0  0  0  0  0
   -0.0299   -6.0670   27.0855 C   0  0  0  0  0  0  0  0  0  0  0  0
    4.1333   -7.2217   26.5631 C   0  0  0  0  0  0  0  0  0  0  0  0
    2.5285   -4.2044   27.1748 C   0  0  0  0  0  0  0  0  0  0  0  0
    6.8603   -5.4443   28.0428 C   0  0  0  0  0  0  0  0  0  0  0  0
    8.5849   -4.7605   28.3354 C   0  0  0  0  0  0  0  0  0  0  0  0
    0.9027   -4.2802   27.8483 C   0  0  0  0  0  0  0  0  0  0  0  0
    5.2799   -7.8474   16.2518 N   0  0  0  0  0  0  0  0  0  0  0  0
   -1.4745   -3.2437   27.7438 O   0  0  0  0  0  0  0  0  0  0  0  0
   -1.2554   -4.0811   26.9299 F   0  0  0  0  0  0  0  0  0  0  0  0
    2.0177   -7.2027   16.2436 N   0  0  0  0  0  0  0  0  0  0  0  0
    6.2415   -7.3492   16.4542 C   0  0  0  0  0  0  0  0  0  0  0  0
   -2.0194   -4.5221   27.2135 C   0  0  0  0  0  0  0  0  0  0  0  0
   10.5243   -5.7176   28.2057 O   0  0  0  0  0  0  0  0  0  0  0  0
    6.5163   -5.8450   27.3278 F   0  0  0  0  0  0  0  0  0  0  0  0
    2.2817   -6.6929   27.2247 C   0  0  0  0  0  0  0  0  0  0  0  0
    8.8970   -5.7102   27.8323 C   0  0  0  0  0  0  0  0  0  0  0  0
    1.9962   -6.6593   26.7037 C   0  0  0  0  0  0  0  0  0  0  0  0
    8.4965   -7.2018   27.1761 F   0  0  0  0  0  0  0  0  0  0  0  0
    6.1424   -8.4214   26.9510 C   0  0  0  0  0  0  0  0  0  0  0  0
    4.1735   -7.1265   15.0466 C   0  0  0  0  0  0  0  0  0  0  0  0
    5.2641   -5.7717   27.0538 C   0  0  0  0  0  0  0  0  0  0  0  0
    7.6807   -7.0959   27.2886 C   0  0  0  0  0  0  0  0  0  0  0  0
    2.9215   -6.7051   26.3773 N   0  0  0  0  0  0  0  0  0  0  0  0
    3.3320   -7.8616   15.5359 He  0  0  0  0  0  0  0  0  0  0  0  0
    1.3220   -8.6239   16.7719 He  0  0  0  0  0  0  0  0  0  0  0  0
    4.5082   -7.7685   17.1412 He  0  0  0  0  0  0  0  0  0  0  0  0
   -0.1013   -4.8854   27.4299 He  0  0  0  0  0  0  0  0  0  0  0  0
  1  3  4  0
  1 16  2  0
  1 17  1  0
  1 18  2  0
  1 20  4  0
  2 11  1  0
  2 13  1  0
  3 11  1  0
  3 13  3  0
  3 14  3  0
  3 19  2  0
  3 20  4  0
  3 24  1  0
  4  7  4  0
  4 10  2  0
  4 11  3  0
  4 16  4  0
  5  8  4  0
  5 15  4  0
  5 22  4  0
  5 23  3  0
  6  8  1  0
  6  9  1  0
  6 17  4  0
  6 21  4  0
  7 11  3  0
  8  9  1  0
  8 12  4  0
  9 10  2  0
  9 16  4  0
  9 20  2  0
  9 22  4  0
  9 23  3  0
 10 13  1  0
 11 14  4  0
 11 15  2  0
 11 17  2  0
 11 23  3  0
 12 14  3  0
 12 22  2  0
 13 22  3  0
 14 17  2  0
 14 21  2  0
 15 20  2  0
 15 22  4  0
 15 23  4  0
 16 18  4  0
 16 21  3  0
 17 19  4  0
 18 20  1  0
 20 23  4  0
M  END
$$$$

 Created by Python create_sdf_string function

 28 29  0  0  0  0  0  0  0  0999 V2000
    5.1211   -8.0459   26.4402 C   0  0  0  0  0  0  0  0  0  0  0  0
    0.0002   -6.0731   27.0424 C   0  0  0  0  0  0  0  0  0  0  0  0
    3.3761   -7.6495   15.2547 C   0  0  0  0  0  0  0  0  0  0  0  0
    4.4741   -6.9043   26.7100 C   0  0  0  0  0  0  0  0  0  0  0  0
    2.3735   -4.8119   27.2456 C   0  0  0  0  0  0  0  0  0  0  0  0
    7.1141   -4.8271   27.9779 C   0  0  0  0  0  0  0  0  0  0  0  0
    8.4964   -4.8466   28.2062 C   0  0  0  0  0  0  0  0  0  0  0  0
    1.2073   -4.0275   27.4595 C   0  0  0  0  0  0  0  0  0  0  0  0
    5.2495   -7.7071   16.8321 C   0  0  0  0  0  0  0  0  0  0  0  0
   -1.3617   -2.9412   27.7275 O   0  0  0  0  0  0  0  0  0  0  0  0
   -1.2790   -4.0576   27.3867 C   0  0  0  0  0  0  0  0  0  0  0  0
    2.5769   -7.9083   16.5558 C   0  0  0  0  0  0  0  0  0  0  0  0
    5.5289   -7.4117   16.0622 C   0  0  0  0  0  0  0  0  0  0  0  0
   -2.4986   -4.6851   26.9821 O   0  0  0  0  0  0  0  0  0  0  0  0
   10.5512   -6.0125   28.0261 O   0  0  0  0  0  0  0  0  0  0  0  0
    6.5075   -5.8678   27.4856 C   0  0  0  0  0  0  0  0  0  0  0  0
    2.2913   -6.1151   26.8398 C   0  0  0  0  0  0  0  0  0  0  0  0
    9.2154   -6.0068   27.8949 C   0  0  0  0  0  0  0  0  0  0  0  0
    1.6248   -8.2286   16.3965 C   0  0  0  0  0  0  0  0  0  0  0  0
    1.1557   -6.7821   26.8359 C   0  0  0  0  0  0  0  0  0  0  0  0
    8.5165   -7.1045   27.4551 N   0  0  0  0  0  0  0  0  0  0  0  0
    6.4875   -8.1028   26.7164 C   0  0  0  0  0  0  0  0  0  0  0  0
    4.0213   -7.4268   15.2248 C   0  0  0  0  0  0  0  0  0  0  0  0
    3.9818   -8.0346   17.0674 C   0  0  0  0  0  0  0  0  0  0  0  0
    5.0744   -5.8015   27.2188 C   0  0  0  0  0  0  0  0  0  0  0  0
    7.1800   -7.0369   27.2176 C   0  0  0  0  0  0  0  0  0  0  0  0
   -0.0465   -4.7552   27.3098 C   0  0  0  0  0  0  0  0  0  0  0  0
    3.2273   -6.8554   26.3486 N   0  0  0  0  0  0  0  0  0  0  0  0
  1  4  4  0
  1 22  4  0
  2 20  4  0
  2 27  4  0
  3 23  4  0
  4 25  4  0
  4 28  1  0
  5  8  4  0
  5 17  4  0
  6  7  4  0
  6 16  4  0
  7 18  4  0
  8 27  4  0
  9 13  4  0
  9 24  4  0
 10 11  2  0
 11 14  1  0
 11 27  1  0
 12 19  1  0
 12 24  4  0
 13 23  4  0
 15 18  2  0
 16 25  4  0
 16 26  4  0
 17 20  4  0
 17 28  1  0
 18 21  4  0
 21 26  4  0
 22 26  4  0
M  END
$$$$

 Created by Python create_sdf_string function

 28 78  0  0  0  0  0  0  0  0999 V2000
    5.1377   -7.6720   26.4682 C   0  0  0  0  0  0  0  0  0  0  0  0
    0.0928   -6.2603   26.6295 C   0  0  0  0  0  0  0  0  0  0  0  0
    2.4798   -7.9608   15.0293 C   0  0  0  0  0  0  0  0  0  0  0  0
    4.1760   -6.9171   26.6441 C   0  0  0  0  0  0  0  0  0  0  0  0
    2.2665   -4.8115   27.7009 C   0  0  0  0  0  0  0  0  0  0  0  0
    6.6745   -5.1338   28.6747 C   0  0  0  0  0  0  0  0  0  0  0  0
    8.7934   -4.6442   28.2135 C   0  0  0  0  0  0  0  0  0  0  0  0
    1.0622   -4.5968   27.1283 C   0  0  0  0  0  0  0  0  0  0  0  0
    6.0871   -8.9021   16.7068 C   0  0  0  0  0  0  0  0  0  0  0  0
   -1.0767   -3.2283   27.5149 O   0  0  0  0  0  0  0  0  0  0  0  0
   -1.3422   -3.8198   27.3499 C   0  0  0  0  0  0  0  0  0  0  0  0
    3.6151   -8.1957   16.8556 C   0  0  0  0  0  0  0  0  0  0  0  0
    4.6754   -8.2529   17.3541 C   0  0  0  0  0  0  0  0  0  0  0  0
   -2.5897   -4.7386   26.6579 O   0  0  0  0  0  0  0  0  0  0  0  0
   10.3019   -6.2563   28.1695 O   0  0  0  0  0  0  0  0  0  0  0  0
    6.5295   -5.2163   27.6723 C   0  0  0  0  0  0  0  0  0  0  0  0
    2.2906   -5.9753   26.5563 C   0  0  0  0  0  0  0  0  0  0  0  0
    9.3751   -6.0365   27.6041 C   0  0  0  0  0  0  0  0  0  0  0  0
    1.0873   -7.2562   27.8375 F   0  0  0  0  0  0  0  0  0  0  0  0
    8.6674   -7.1431   27.6943 N   0  0  0  0  0  0  0  0  0  0  0  0
    6.5005   -7.9018   26.8128 C   0  0  0  0  0  0  0  0  0  0  0  0
    3.6413   -8.0286   17.0195 C   0  0  0  0  0  0  0  0  0  0  0  0
    5.2979   -5.5732   27.0573 C   0  0  0  0  0  0  0  0  0  0  0  0
    7.2714   -6.8171   27.3112 C   0  0  0  0  0  0  0  0  0  0  0  0
   -0.0277   -4.2678   27.4221 Se  0  0  0  0  0  0  0  0  0  0  0  0
    3.3701   -6.9536   26.6318 N   0  0  0  0  0  0  0  0  0  0  0  0
    0.8199   -9.3754   15.7291 He  0  0  0  0  0  0  0  0  0  0  0  0
    4.6173   -7.4706   15.6389 He  0  0  0  0  0  0  0  0  0  0  0  0
  1  4  4  0
  1  6  1  0
  1  8  3  0
  1 10  3  0
  1 19  2  0
  1 21  4  0
  1 25  2  0
  2  4  2  0
  2  9  1  0
  2 16  3  0
  2 17  1  0
  2 22  2  0
  2 25  4  0
  3  7  2  0
  3 10  1  0
  3 18  3  0
  3 19  4  0
  3 22  1  0
  3 25  3  0
  4 12  3  0
  4 15  3  0
  4 23  4  0
  4 26  1  0
  5  6  4  0
  5  8  4  0
  5 13  1  0
  5 17  4  0
  5 19  4  0
  5 20  1  0
  5 22  2  0
  5 25  4  0
  6  7  3  0
  6 13  1  0
  6 14  3  0
  6 15  1  0
  6 16  4  0
  6 25  1  0
  6 26  1  0
  7  9  1  0
  7 18  4  0
  7 19  2  0
  8 12  3  0
  8 18  2  0
  9 14  2  0
  9 18  3  0
  9 23  2  0
  9 26  3  0
 11 12  3  0
 11 13  1  0
 11 14  1  0
 11 15  1  0
 11 17  3  0
 11 25  1  0
 12 15  2  0
 12 17  1  0
 12 18  1  0
 12 22  3  0
 12 23  2  0
 13 15  2  0
 13 17  1  0
 13 25  4  0
 14 22  2  0
 15 17  4  0
 15 18  2  0
 15 21  1  0
 16 23  4  0
 16 24  4  0
 17 20  2  0
 17 22  2  0
 18 19  1  0
 18 20  4  0
 19 21  2  0
 19 26  4  0
 20 21  2  0
 20 24  4  0
 21 22  4  0
 21 24  4  0
 22 24  4  0
M  END
$$$$

 Created by Python create_sdf_string function

 28 28  0  0  0  0  0  0  0  0999 V2000
    5.2370   -7.8660   26.4842 C   0  0  0  0  0  0  0  0  0  0  0  0
   -0.1077   -6.1344   26.9867 C   0  0  0  0  0  0  0  0  0  0  0  0
    2.9067   -7.9031   15.4276 C   0  0  0  0  0  0  0  0  0  0  0  0
    4.4785   -6.7744   26.8190 C   0  0  0  0  0  0  0  0  0  0  0  0
    2.2199   -4.8040   27.2785 C   0  0  0  0  0  0  0  0  0  0  0  0
    7.2643   -4.6538   28.0337 C   0  0  0  0  0  0  0  0  0  0  0  0
    8.5896   -4.7553   28.2889 C   0  0  0  0  0  0  0  0  0  0  0  0
    1.0805   -4.0633   27.3673 C   0  0  0  0  0  0  0  0  0  0  0  0
    5.2870   -8.3834   17.1494 C   0  0  0  0  0  0  0  0  0  0  0  0
   -1.4099   -2.9200   27.5167 O   0  0  0  0  0  0  0  0  0  0  0  0
   -1.3880   -4.0621   27.1431 C   0  0  0  0  0  0  0  0  0  0  0  0
    3.1135   -9.0175   16.8679 C   0  0  0  0  0  0  0  0  0  0  0  0
    4.9872   -8.1353   16.8142 C   0  0  0  0  0  0  0  0  0  0  0  0
   -2.4335   -4.6680   26.7522 O   0  0  0  0  0  0  0  0  0  0  0  0
   10.5474   -6.0127   28.1076 O   0  0  0  0  0  0  0  0  0  0  0  0
    6.5167   -5.6861   27.5473 C   0  0  0  0  0  0  0  0  0  0  0  0
    2.2070   -6.1279   27.0425 C   0  0  0  0  0  0  0  0  0  0  0  0
    9.2578   -5.9499   27.9908 C   0  0  0  0  0  0  0  0  0  0  0  0
    1.5564   -8.7281   16.0425 C   0  0  0  0  0  0  0  0  0  0  0  0
    1.0379   -6.8433   27.0240 C   0  0  0  0  0  0  0  0  0  0  0  0
    8.5513   -6.9763   27.5297 N   0  0  0  0  0  0  0  0  0  0  0  0
    6.5489   -7.9559   26.7616 C   0  0  0  0  0  0  0  0  0  0  0  0
    4.1957   -7.6674   15.6033 C   0  0  0  0  0  0  0  0  0  0  0  0
    3.5532   -8.6923   16.7963 C   0  0  0  0  0  0  0  0  0  0  0  0
    5.1060   -5.6922   27.3125 C   0  0  0  0  0  0  0  0  0  0  0  0
    7.2091   -6.8796   27.2826 C   0  0  0  0  0  0  0  0  0  0  0  0
   -0.0832   -4.8121   27.1872 C   0  0  0  0  0  0  0  0  0  0  0  0
    3.1272   -6.8715   26.6221 N   0  0  0  0  0  0  0  0  0  0  0  0
  1  4  4  0
  1 22  4  0
  2 20  4  0
  2 27  4  0
  3 19  4  0
  3 23  4  0
  4 25  4  0
  4 28  1  0
  5  8  4  0
  5 17  4  0
  6  7  4  0
  6 16  4  0
  7 18  4  0
  8 27  4  0
  9 13  4  0
 10 11  2  0
 11 14  1  0
 11 27  1  0
 12 24  4  0
 13 23  4  0
 15 18  2  0
 16 25  4  0
 16 26  4  0
 17 20  4  0
 17 28  1  0
 18 21  4  0
 21 26  4  0
 22 26  4  0
M  END
$$$$

 Created by Python create_sdf_string function

 28 54  0  0  0  0  0  0  0  0999 V2000
    2.0427   -4.7618   27.2859 C   0  0  0  0  0  0  0  0  0  0  0  0
    6.4262   -4.8505   26.9677 C   0  0  0  0  0  0  0  0  0  0  0  0
    8.5625   -4.8151   28.1330 C   0  0  0  0  0  0  0  0  0  0  0  0
    0.9294   -4.7178   27.1403 C   0  0  0  0  0  0  0  0  0  0  0  0
    6.0546   -8.7000   17.9881 C   0  0  0  0  0  0  0  0  0  0  0  0
   -1.5346   -3.3407   27.3834 O   0  0  0  0  0  0  0  0  0  0  0  0
   -1.3553   -3.7141   27.5769 C   0  0  0  0  0  0  0  0  0  0  0  0
    1.7189   -9.5938   16.2688 Se  0  0  0  0  0  0  0  0  0  0  0  0
    3.8114   -8.2607   16.9291 C   0  0  0  0  0  0  0  0  0  0  0  0
   -2.4013   -4.9668   26.5418 O   0  0  0  0  0  0  0  0  0  0  0  0
   10.9047   -5.9044   28.1994 O   0  0  0  0  0  0  0  0  0  0  0  0
    6.4521   -5.2610   28.0553 C   0  0  0  0  0  0  0  0  0  0  0  0
    2.5465   -5.9983   26.9625 O   0  0  0  0  0  0  0  0  0  0  0  0
    9.4291   -5.9748   28.1413 C   0  0  0  0  0  0  0  0  0  0  0  0
    0.1828   -6.8460   26.9915 N   0  0  0  0  0  0  0  0  0  0  0  0
    8.6199   -7.0482   27.6363 C   0  0  0  0  0  0  0  0  0  0  0  0
    6.8265   -7.9482   26.4293 C   0  0  0  0  0  0  0  0  0  0  0  0
    3.9985   -7.4616   14.6359 C   0  0  0  0  0  0  0  0  0  0  0  0
    3.8691   -8.4209   16.4559 C   0  0  0  0  0  0  0  0  0  0  0  0
    5.0267   -5.5436   27.2904 C   0  0  0  0  0  0  0  0  0  0  0  0
   -0.3221   -4.8707   27.2742 N   0  0  0  0  0  0  0  0  0  0  0  0
    2.9037   -6.9041   26.4041 N   0  0  0  0  0  0  0  0  0  0  0  0
    5.2739   -7.2439   26.4355 He  0  0  0  0  0  0  0  0  0  0  0  0
    0.0960   -6.1721   27.0856 He  0  0  0  0  0  0  0  0  0  0  0  0
    2.6418   -8.0707   15.4184 He  0  0  0  0  0  0  0  0  0  0  0  0
    4.2823   -6.6008   27.1369 He  0  0  0  0  0  0  0  0  0  0  0  0
    1.5139   -7.7620   16.0487 He  0  0  0  0  0  0  0  0  0  0  0  0
    7.0517   -7.0991   27.7098 He  0  0  0  0  0  0  0  0  0  0  0  0
  1 13  4  0
  1 18  3  0
  2  3  4  0
  2  4  3  0
  2  8  1  0
  2  9  4  0
  2 21  2  0
  3 14  4  0
  3 15  4  0
  3 17  4  0
  4 14  4  0
  4 18  2  0
  4 19  4  0
  4 20  1  0
  4 21  4  0
  5  8  1  0
  5  9  4  0
  5 13  4  0
  5 18  1  0
  5 21  3  0
  5 22  4  0
  6  7  3  0
  6 12  1  0
  6 21  3  0
  7 10  1  0
  7 13  4  0
  7 15  2  0
  7 19  2  0
  7 21  1  0
  8 12  3  0
  8 13  1  0
  8 18  3  0
  8 21  1  0
  9 10  1  0
  9 12  1  0
  9 15  1  0
  9 19  4  0
 10 13  1  0
 12 19  2  0
 12 20  4  0
 13 15  4  0
 14 18  4  0
 14 19  2  0
 15 16  3  0
 15 17  2  0
 15 18  1  0
 15 19  4  0
 15 20  1  0
 15 21  1  0
 15 22  3  0
 16 18  1  0
 16 20  3  0
 19 21  3  0
 19 22  2  0
M  END
$$$$

 Created by Python create_sdf_string function

 28 29  0  0  0  0  0  0  0  0999 V2000
    5.0639   -7.8312   26.4740 C   0  0  0  0  0  0  0  0  0  0  0  0
   -0.2522   -6.1835   27.0303 C   0  0  0  0  0  0  0  0  0  0  0  0
    2.8369   -7.9579   15.6634 C   0  0  0  0  0  0  0  0  0  0  0  0
    4.3781   -6.7162   26.8485 C   0  0  0  0  0  0  0  0  0  0  0  0
    2.1792   -4.8026   27.1061 C   0  0  0  0  0  0  0  0  0  0  0  0
    7.2594   -4.5816   27.7701 C   0  0  0  0  0  0  0  0  0  0  0  0
    8.5812   -4.6478   27.9269 C   0  0  0  0  0  0  0  0  0  0  0  0
    0.9424   -4.0389   27.2402 C   0  0  0  0  0  0  0  0  0  0  0  0
    5.2470   -8.3925   17.3292 C   0  0  0  0  0  0  0  0  0  0  0  0
   -1.5863   -3.0176   27.4733 O   0  0  0  0  0  0  0  0  0  0  0  0
   -1.4873   -4.1155   27.1548 C   0  0  0  0  0  0  0  0  0  0  0  0
    2.1584   -9.1026   16.6470 C   0  0  0  0  0  0  0  0  0  0  0  0
    4.3213   -8.4399   16.8258 C   0  0  0  0  0  0  0  0  0  0  0  0
   -2.6005   -4.7444   26.7812 O   0  0  0  0  0  0  0  0  0  0  0  0
   10.5530   -5.9616   28.2008 O   0  0  0  0  0  0  0  0  0  0  0  0
    6.5350   -5.6618   27.4737 C   0  0  0  0  0  0  0  0  0  0  0  0
    2.0648   -6.0830   26.9222 C   0  0  0  0  0  0  0  0  0  0  0  0
    9.2342   -5.8973   27.9224 C   0  0  0  0  0  0  0  0  0  0  0  0
    1.5723   -8.0395   15.7726 C   0  0  0  0  0  0  0  0  0  0  0  0
    0.9372   -6.8514   26.9247 C   0  0  0  0  0  0  0  0  0  0  0  0
    8.4379   -7.0067   27.6473 C   0  0  0  0  0  0  0  0  0  0  0  0
    6.3579   -8.0102   26.8119 C   0  0  0  0  0  0  0  0  0  0  0  0
    3.9435   -7.6194   15.4200 C   0  0  0  0  0  0  0  0  0  0  0  0
    3.6182   -8.9160   16.8848 C   0  0  0  0  0  0  0  0  0  0  0  0
    4.9612   -5.6392   27.3281 C   0  0  0  0  0  0  0  0  0  0  0  0
    7.1179   -6.9300   27.2851 C   0  0  0  0  0  0  0  0  0  0  0  0
   -0.2434   -4.8248   27.1599 C   0  0  0  0  0  0  0  0  0  0  0  0
    3.0872   -6.7539   26.5138 N   0  0  0  0  0  0  0  0  0  0  0  0
  1  4  4  0
  1 22  4  0
  2 20  4  0
  2 27  4  0
  3 19  1  0
  3 23  4  0
  4 25  4  0
  4 28  1  0
  5  8  4  0
  5 17  4  0
  6  7  4  0
  6 16  4  0
  7 18  4  0
  8 27  4  0
  9 13  4  0
 10 11  2  0
 11 14  1  0
 11 27  1  0
 12 24  4  0
 13 23  4  0
 13 24  4  0
 15 18  1  0
 16 25  4  0
 16 26  4  0
 17 20  4  0
 17 28  1  0
 18 21  4  0
 21 26  4  0
 22 26  4  0
M  END
$$$$

 Created by Python create_sdf_string function

 28 64  0  0  0  0  0  0  0  0999 V2000
    4.7013   -8.1076   25.9485 C   0  0  0  0  0  0  0  0  0  0  0  0
   -0.0588   -6.1510   27.3715 C   0  0  0  0  0  0  0  0  0  0  0  0
    2.9963   -7.7728   15.6672 C   0  0  0  0  0  0  0  0  0  0  0  0
    4.6583   -6.4542   27.0808 C   0  0  0  0  0  0  0  0  0  0  0  0
    2.2312   -5.0467   27.1521 C   0  0  0  0  0  0  0  0  0  0  0  0
    6.8844   -4.5965   28.1446 C   0  0  0  0  0  0  0  0  0  0  0  0
    8.1683   -4.9130   28.1869 C   0  0  0  0  0  0  0  0  0  0  0  0
    0.9895   -3.7765   27.6235 C   0  0  0  0  0  0  0  0  0  0  0  0
   -2.0246   -3.3239   27.4475 O   0  0  0  0  0  0  0  0  0  0  0  0
   -1.5631   -4.1160   27.1038 C   0  0  0  0  0  0  0  0  0  0  0  0
    2.7488   -8.2024   16.2338 C   0  0  0  0  0  0  0  0  0  0  0  0
    5.2903   -8.0045   17.1016 F   0  0  0  0  0  0  0  0  0  0  0  0
   -2.7466   -4.6418   27.3983 O   0  0  0  0  0  0  0  0  0  0  0  0
   10.5884   -6.2499   28.1000 S   0  0  0  0  0  0  0  0  0  0  0  0
    6.6899   -5.7102   27.6183 C   0  0  0  0  0  0  0  0  0  0  0  0
    1.8176   -5.8942   27.0561 C   0  0  0  0  0  0  0  0  0  0  0  0
    9.1685   -5.7589   27.9655 F   0  0  0  0  0  0  0  0  0  0  0  0
    1.6449   -6.6268   26.4941 C   0  0  0  0  0  0  0  0  0  0  0  0
    8.2693   -7.0710   28.0281 F   0  0  0  0  0  0  0  0  0  0  0  0
    6.0211   -8.1351   27.1320 C   0  0  0  0  0  0  0  0  0  0  0  0
    2.4871   -7.9743   14.9935 O   0  0  0  0  0  0  0  0  0  0  0  0
    3.4160   -8.9126   17.8698 C   0  0  0  0  0  0  0  0  0  0  0  0
    4.8450   -5.2974   27.1556 O   0  0  0  0  0  0  0  0  0  0  0  0
    6.8679   -6.8572   26.9634 C   0  0  0  0  0  0  0  0  0  0  0  0
   -0.1419   -4.6164   26.8645 C   0  0  0  0  0  0  0  0  0  0  0  0
    6.3031   -8.7670   16.7621 He  0  0  0  0  0  0  0  0  0  0  0  0
    0.6037   -8.5371   15.9783 He  0  0  0  0  0  0  0  0  0  0  0  0
    2.7084   -6.8039   26.1343 He  0  0  0  0  0  0  0  0  0  0  0  0
  1  4  4  0
  1  6  3  0
  1 14  3  0
  1 19  1  0
  1 23  4  0
  2 12  1  0
  2 15  3  0
  2 18  4  0
  2 23  3  0
  2 25  4  0
  3  9  4  0
  3 15  3  0
  3 17  2  0
  3 18  3  0
  3 21  4  0
  3 22  2  0
  3 23  1  0
  4 21  3  0
  4 23  4  0
  5  7  3  0
  5  8  4  0
  5  9  1  0
  5 12  1  0
  5 16  4  0
  6 12  2  0
  6 15  4  0
  6 18  1  0
  7 10  4  0
  7 14  3  0
  7 17  4  0
  7 21  4  0
  8 25  4  0
  9 10  2  0
  9 21  4  0
  9 22  1  0
  9 23  2  0
 10 13  1  0
 10 21  1  0
 10 25  1  0
 11 13  1  0
 11 18  4  0
 11 19  2  0
 11 21  1  0
 11 22  4  0
 11 25  2  0
 12 13  1  0
 12 16  2  0
 12 18  2  0
 12 20  2  0
 12 22  4  0
 12 24  2  0
 14 22  4  0
 15 18  3  0
 15 21  4  0
 15 23  4  0
 16 18  4  0
 16 21  3  0
 16 22  1  0
 17 19  4  0
 18 21  1  0
 19 21  2  0
 19 24  4  0
 20 24  4  0
 22 24  1  0
M  END
$$$$

 Created by Python create_sdf_string function

 28 30  0  0  0  0  0  0  0  0999 V2000
    4.9189   -7.8618   26.4441 C   0  0  0  0  0  0  0  0  0  0  0  0
   -0.2236   -6.1076   27.0353 C   0  0  0  0  0  0  0  0  0  0  0  0
    4.1453   -7.5958   15.5206 C   0  0  0  0  0  0  0  0  0  0  0  0
    4.3095   -6.6714   26.6945 C   0  0  0  0  0  0  0  0  0  0  0  0
    2.0856   -4.6370   27.1663 C   0  0  0  0  0  0  0  0  0  0  0  0
    7.0096   -4.6387   27.9969 C   0  0  0  0  0  0  0  0  0  0  0  0
    8.3502   -4.7915   28.2352 C   0  0  0  0  0  0  0  0  0  0  0  0
    0.9373   -3.9452   27.3401 C   0  0  0  0  0  0  0  0  0  0  0  0
    5.0382   -7.8999   16.4772 C   0  0  0  0  0  0  0  0  0  0  0  0
   -1.7041   -2.9403   27.3705 O   0  0  0  0  0  0  0  0  0  0  0  0
   -1.5664   -4.1251   27.2806 C   0  0  0  0  0  0  0  0  0  0  0  0
    2.5580   -8.6081   16.5030 C   0  0  0  0  0  0  0  0  0  0  0  0
    4.7575   -8.5415   17.1961 C   0  0  0  0  0  0  0  0  0  0  0  0
   -2.7029   -4.8598   27.1652 O   0  0  0  0  0  0  0  0  0  0  0  0
   10.4536   -6.0842   28.1976 C   0  0  0  0  0  0  0  0  0  0  0  0
    6.3173   -5.7395   27.5237 C   0  0  0  0  0  0  0  0  0  0  0  0
    2.0652   -5.9772   26.8489 C   0  0  0  0  0  0  0  0  0  0  0  0
    8.9810   -6.0041   28.0048 C   0  0  0  0  0  0  0  0  0  0  0  0
    1.0519   -8.7534   16.3634 C   0  0  0  0  0  0  0  0  0  0  0  0
    0.9507   -6.7223   26.8765 C   0  0  0  0  0  0  0  0  0  0  0  0
    8.2575   -7.0736   27.5740 C   0  0  0  0  0  0  0  0  0  0  0  0
    6.2822   -8.0176   26.7768 C   0  0  0  0  0  0  0  0  0  0  0  0
    2.9544   -7.7643   15.5026 C   0  0  0  0  0  0  0  0  0  0  0  0
    3.4310   -9.1034   17.2529 C   0  0  0  0  0  0  0  0  0  0  0  0
    4.9689   -5.6669   27.2154 C   0  0  0  0  0  0  0  0  0  0  0  0
    6.9355   -6.9518   27.3135 C   0  0  0  0  0  0  0  0  0  0  0  0
   -0.2780   -4.7588   27.2407 C   0  0  0  0  0  0  0  0  0  0  0  0
    3.0492   -6.5611   26.3321 N   0  0  0  0  0  0  0  0  0  0  0  0
  1  4  4  0
  1 22  4  0
  2 20  4  0
  2 27  4  0
  3  9  4  0
  3 23  4  0
  4 25  4  0
  4 28  1  0
  5  8  4  0
  5 17  4  0
  6  7  4  0
  6 16  4  0
  7 18  4  0
  8 27  4  0
  9 13  4  0
 10 11  2  0
 11 14  1  0
 11 27  1  0
 12 19  1  0
 12 23  4  0
 12 24  4  0
 13 24  4  0
 15 18  1  0
 16 25  4  0
 16 26  4  0
 17 20  4  0
 17 28  1  0
 18 21  4  0
 21 26  4  0
 22 26  4  0
M  END
$$$$

 Created by Python create_sdf_string function

 28 51  0  0  0  0  0  0  0  0999 V2000
    3.8708   -7.1625   15.1434 P   0  0  0  0  0  0  0  0  0  0  0  0
    4.3097   -6.7173   26.1475 F   0  0  0  0  0  0  0  0  0  0  0  0
    2.0177   -4.8681   26.9178 C   0  0  0  0  0  0  0  0  0  0  0  0
    6.8742   -5.0444   27.3853 C   0  0  0  0  0  0  0  0  0  0  0  0
    8.6037   -4.8407   28.2748 C   0  0  0  0  0  0  0  0  0  0  0  0
    5.1212   -8.7355   16.2647 C   0  0  0  0  0  0  0  0  0  0  0  0
   -1.5446   -3.2538   27.5046 O   0  0  0  0  0  0  0  0  0  0  0  0
   -1.3191   -4.0486   26.9122 C   0  0  0  0  0  0  0  0  0  0  0  0
    3.4369   -9.0540   16.1842 C   0  0  0  0  0  0  0  0  0  0  0  0
    4.8602   -8.5057   16.9218 C   0  0  0  0  0  0  0  0  0  0  0  0
   -2.8267   -4.6480   26.9519 O   0  0  0  0  0  0  0  0  0  0  0  0
    6.4408   -5.3869   27.7047 C   0  0  0  0  0  0  0  0  0  0  0  0
    2.1695   -5.7473   26.9581 F   0  0  0  0  0  0  0  0  0  0  0  0
    8.6912   -5.9292   27.9866 O   0  0  0  0  0  0  0  0  0  0  0  0
    0.8253   -7.5718   27.2180 C   0  0  0  0  0  0  0  0  0  0  0  0
    8.0431   -7.3278   27.7265 C   0  0  0  0  0  0  0  0  0  0  0  0
    6.2269   -8.0495   27.0105 C   0  0  0  0  0  0  0  0  0  0  0  0
    3.1322   -7.5005   15.9171 C   0  0  0  0  0  0  0  0  0  0  0  0
    3.6904   -8.7372   16.8088 B   0  0  0  0  0  0  0  0  0  0  0  0
    5.1093   -5.7265   27.4564 C   0  0  0  0  0  0  0  0  0  0  0  0
    6.4919   -7.1550   27.4705 C   0  0  0  0  0  0  0  0  0  0  0  0
   -0.2114   -5.0704   27.1824 C   0  0  0  0  0  0  0  0  0  0  0  0
    3.0260   -6.4557   26.3697 N   0  0  0  0  0  0  0  0  0  0  0  0
    4.9552   -7.9987   26.6576 He  0  0  0  0  0  0  0  0  0  0  0  0
   -0.3714   -5.8220   27.1938 He  0  0  0  0  0  0  0  0  0  0  0  0
    0.7201   -4.2357   27.1150 He  0  0  0  0  0  0  0  0  0  0  0  0
    9.9649   -6.1127   28.2667 He  0  0  0  0  0  0  0  0  0  0  0  0
    0.0655   -9.0597   16.3851 He  0  0  0  0  0  0  0  0  0  0  0  0
  1  6  4  0
  1 13  2  0
  1 15  2  0
  2  4  1  0
  2  5  3  0
  2  8  1  0
  2 15  3  0
  2 19  4  0
  2 20  4  0
  2 21  1  0
  3  9  3  0
  3 11  4  0
  3 13  4  0
  4  6  1  0
  4  7  2  0
  4 11  2  0
  4 18  2  0
  4 19  1  0
  5  9  3  0
  5 14  4  0
  5 16  4  0
  6  7  2  0
  6 13  2  0
  6 15  4  0
  6 20  3  0
  7  8  2  0
  7 17  2  0
  7 19  1  0
  7 22  3  0
  8  9  3  0
  8 11  1  0
  8 16  4  0
  8 21  4  0
  8 22  1  0
  9 10  3  0
  9 18  4  0
  9 19  1  0
  9 20  3  0
 10 13  4  0
 10 17  2  0
 10 23  1  0
 12 22  2  0
 13 15  4  0
 13 17  4  0
 13 23  1  0
 14 16  4  0
 16 19  3  0
 17 21  4  0
 19 20  3  0
 19 23  1  0
 20 22  4  0
M  END
$$$$

 Created by Python create_sdf_string function

 28 30  0  0  0  0  0  0  0  0999 V2000
    4.8957   -7.9724   26.5473 N   0  0  0  0  0  0  0  0  0  0  0  0
   -0.2313   -6.1467   27.2291 C   0  0  0  0  0  0  0  0  0  0  0  0
    4.0831   -7.3074   15.2864 C   0  0  0  0  0  0  0  0  0  0  0  0
    4.2766   -6.8093   26.7368 C   0  0  0  0  0  0  0  0  0  0  0  0
    2.0793   -4.7469   26.8216 C   0  0  0  0  0  0  0  0  0  0  0  0
    7.1380   -4.6302   27.7852 C   0  0  0  0  0  0  0  0  0  0  0  0
    8.3671   -4.8387   28.0212 C   0  0  0  0  0  0  0  0  0  0  0  0
    0.8905   -4.0097   26.9560 C   0  0  0  0  0  0  0  0  0  0  0  0
    5.0059   -7.9068   16.1324 C   0  0  0  0  0  0  0  0  0  0  0  0
   -1.6610   -2.9770   27.4097 O   0  0  0  0  0  0  0  0  0  0  0  0
   -1.5751   -4.1622   27.1611 C   0  0  0  0  0  0  0  0  0  0  0  0
    2.4344   -8.5716   16.4562 C   0  0  0  0  0  0  0  0  0  0  0  0
    4.6930   -8.7834   17.0570 C   0  0  0  0  0  0  0  0  0  0  0  0
   -2.6786   -4.8116   26.8851 O   0  0  0  0  0  0  0  0  0  0  0  0
   10.3837   -6.2079   28.3655 O   0  0  0  0  0  0  0  0  0  0  0  0
    6.3305   -5.7052   27.4326 C   0  0  0  0  0  0  0  0  0  0  0  0
    2.0037   -6.0861   26.7890 C   0  0  0  0  0  0  0  0  0  0  0  0
    8.9816   -6.0593   28.0219 C   0  0  0  0  0  0  0  0  0  0  0  0
    0.9985   -8.9958   16.5530 Br  0  0  0  0  0  0  0  0  0  0  0  0
    0.8995   -6.8158   27.1116 C   0  0  0  0  0  0  0  0  0  0  0  0
    8.1977   -7.1503   27.6997 C   0  0  0  0  0  0  0  0  0  0  0  0
    6.1946   -8.1143   26.9296 C   0  0  0  0  0  0  0  0  0  0  0  0
    2.7694   -7.5979   15.5293 C   0  0  0  0  0  0  0  0  0  0  0  0
    3.4042   -9.2372   17.1803 C   0  0  0  0  0  0  0  0  0  0  0  0
    4.8193   -5.6786   27.1127 C   0  0  0  0  0  0  0  0  0  0  0  0
    6.8948   -7.0260   27.3330 C   0  0  0  0  0  0  0  0  0  0  0  0
   -0.2680   -4.8235   27.1344 C   0  0  0  0  0  0  0  0  0  0  0  0
    2.9809   -6.8083   26.3105 N   0  0  0  0  0  0  0  0  0  0  0  0
  1  4  4  0
  1 22  4  0
  2 20  4  0
  2 27  4  0
  3  9  4  0
  3 23  4  0
  4 25  4  0
  4 28  1  0
  5  8  4  0
  5 17  4  0
  6  7  4  0
  6 16  4  0
  7 18  4  0
  8 27  4  0
  9 13  4  0
 10 11  2  0
 11 14  1  0
 11 27  1  0
 12 19  1  0
 12 23  4  0
 12 24  4  0
 13 24  4  0
 15 18  2  0
 16 25  4  0
 16 26  4  0
 17 20  4  0
 17 28  1  0
 18 21  4  0
 21 26  4  0
 22 26  4  0
M  END
$$$$

 Created by Python create_sdf_string function

 28 56  0  0  0  0  0  0  0  0999 V2000
    4.5993   -7.8669   26.6326 N   0  0  0  0  0  0  0  0  0  0  0  0
    0.0646   -6.5610   27.5185 C   0  0  0  0  0  0  0  0  0  0  0  0
    4.2234   -6.6102   15.5153 C   0  0  0  0  0  0  0  0  0  0  0  0
    3.9905   -6.7013   26.6150 C   0  0  0  0  0  0  0  0  0  0  0  0
    1.9774   -4.5358   26.8554 C   0  0  0  0  0  0  0  0  0  0  0  0
    7.4316   -4.9769   27.5054 C   0  0  0  0  0  0  0  0  0  0  0  0
    8.2252   -4.4417   28.2075 C   0  0  0  0  0  0  0  0  0  0  0  0
    0.6926   -4.1162   26.9607 C   0  0  0  0  0  0  0  0  0  0  0  0
    5.9483   -7.5201   15.9585 C   0  0  0  0  0  0  0  0  0  0  0  0
   -1.6426   -2.8415   27.1109 O   0  0  0  0  0  0  0  0  0  0  0  0
   -1.5662   -4.6312   27.0226 C   0  0  0  0  0  0  0  0  0  0  0  0
    3.0908   -9.1907   16.3895 S   0  0  0  0  0  0  0  0  0  0  0  0
   -2.4763   -5.0614   26.9479 O   0  0  0  0  0  0  0  0  0  0  0  0
    6.4014   -5.2414   27.4893 C   0  0  0  0  0  0  0  0  0  0  0  0
    1.8227   -5.9662   26.4214 C   0  0  0  0  0  0  0  0  0  0  0  0
    9.1591   -6.2043   27.9012 C   0  0  0  0  0  0  0  0  0  0  0  0
    0.9453   -9.4298   16.0559 F   0  0  0  0  0  0  0  0  0  0  0  0
    8.1475   -6.8738   27.1034 C   0  0  0  0  0  0  0  0  0  0  0  0
    6.2829   -8.6223   26.7691 C   0  0  0  0  0  0  0  0  0  0  0  0
    2.6828   -7.5744   14.7043 Cl  0  0  0  0  0  0  0  0  0  0  0  0
    2.9335   -8.7030   17.0461 C   0  0  0  0  0  0  0  0  0  0  0  0
    4.8610   -5.8258   27.1722 C   0  0  0  0  0  0  0  0  0  0  0  0
    6.8493   -7.0145   26.9669 C   0  0  0  0  0  0  0  0  0  0  0  0
   -0.0126   -5.0900   26.7781 C   0  0  0  0  0  0  0  0  0  0  0  0
    4.5514   -9.6707   16.1932 He  0  0  0  0  0  0  0  0  0  0  0  0
   10.3566   -6.0616   28.4182 He  0  0  0  0  0  0  0  0  0  0  0  0
    1.2332   -6.6236   26.7625 He  0  0  0  0  0  0  0  0  0  0  0  0
    3.0653   -7.0068   26.3620 He  0  0  0  0  0  0  0  0  0  0  0  0
  1  4  4  0
  1  9  2  0
  1 12  4  0
  1 19  4  0
  2 21  1  0
  2 23  2  0
  2 24  4  0
  3  6  3  0
  3  7  3  0
  3  9  4  0
  3 15  1  0
  3 16  3  0
  3 18  1  0
  3 22  1  0
  3 24  2  0
  4 19  1  0
  4 22  4  0
  5  8  4  0
  5  9  4  0
  5 14  1  0
  5 15  4  0
  5 17  2  0
  5 18  1  0
  5 21  3  0
  6  7  2  0
  7  9  1  0
  7 15  3  0
  7 16  4  0
  7 17  3  0
  8  9  4  0
  8 20  3  0
  8 21  2  0
  8 24  4  0
 10 11  2  0
 10 21  2  0
 11 13  1  0
 11 24  1  0
 12 13  3  0
 12 14  3  0
 12 20  4  0
 12 24  3  0
 14 23  4  0
 15 19  1  0
 15 21  3  0
 16 18  4  0
 16 19  4  0
 16 22  1  0
 16 23  3  0
 17 22  4  0
 17 23  1  0
 18 19  4  0
 18 22  2  0
 19 21  4  0
 19 23  4  0
 20 22  1  0
 21 23  1  0
M  END
$$$$

 Created by Python create_sdf_string function

 28 30  0  0  0  0  0  0  0  0999 V2000
    4.9501   -8.0716   26.5407 N   0  0  0  0  0  0  0  0  0  0  0  0
   -0.1493   -6.3103   27.1633 C   0  0  0  0  0  0  0  0  0  0  0  0
    4.1915   -7.1475   15.1852 C   0  0  0  0  0  0  0  0  0  0  0  0
    4.2960   -6.8509   26.6001 C   0  0  0  0  0  0  0  0  0  0  0  0
    2.0686   -4.7538   26.6576 C   0  0  0  0  0  0  0  0  0  0  0  0
    7.0404   -4.6804   27.6885 C   0  0  0  0  0  0  0  0  0  0  0  0
    8.3653   -4.7760   27.9516 C   0  0  0  0  0  0  0  0  0  0  0  0
    0.8775   -4.0787   26.8431 C   0  0  0  0  0  0  0  0  0  0  0  0
    5.1036   -7.7591   16.0281 C   0  0  0  0  0  0  0  0  0  0  0  0
   -1.6818   -3.1452   27.0757 O   0  0  0  0  0  0  0  0  0  0  0  0
   -1.5808   -4.3497   27.0683 C   0  0  0  0  0  0  0  0  0  0  0  0
    2.6153   -8.6354   16.0481 C   0  0  0  0  0  0  0  0  0  0  0  0
    4.7867   -8.8265   16.8717 C   0  0  0  0  0  0  0  0  0  0  0  0
   -2.6134   -5.1077   27.0122 O   0  0  0  0  0  0  0  0  0  0  0  0
   10.4788   -6.1601   28.3053 C   0  0  0  0  0  0  0  0  0  0  0  0
    6.3323   -5.7742   27.3258 C   0  0  0  0  0  0  0  0  0  0  0  0
    2.0859   -6.1322   26.6575 C   0  0  0  0  0  0  0  0  0  0  0  0
    9.0203   -6.0262   27.9191 C   0  0  0  0  0  0  0  0  0  0  0  0
    1.3001   -9.0815   16.0571 F   0  0  0  0  0  0  0  0  0  0  0  0
    1.0506   -6.9022   27.0347 C   0  0  0  0  0  0  0  0  0  0  0  0
    8.3065   -7.1390   27.5042 C   0  0  0  0  0  0  0  0  0  0  0  0
    6.3080   -8.1425   26.8218 C   0  0  0  0  0  0  0  0  0  0  0  0
    2.9009   -7.5432   15.2426 C   0  0  0  0  0  0  0  0  0  0  0  0
    3.5447   -9.3032   16.8050 C   0  0  0  0  0  0  0  0  0  0  0  0
    4.9105   -5.7490   27.0233 C   0  0  0  0  0  0  0  0  0  0  0  0
    6.9718   -7.0116   27.2132 C   0  0  0  0  0  0  0  0  0  0  0  0
   -0.2460   -4.9577   27.0542 C   0  0  0  0  0  0  0  0  0  0  0  0
    3.0812   -6.7927   26.0640 N   0  0  0  0  0  0  0  0  0  0  0  0
  1  4  4  0
  1 22  4  0
  2 20  4  0
  2 27  4  0
  3  9  4  0
  3 23  4  0
  4 25  4  0
  4 28  1  0
  5  8  4  0
  5 17  4  0
  6  7  4  0
  6 16  4  0
  7 18  4  0
  8 27  4  0
  9 13  4  0
 10 11  2  0
 11 14  1  0
 11 27  1  0
 12 19  1  0
 12 23  4  0
 12 24  4  0
 13 24  4  0
 15 18  1  0
 16 25  4  0
 16 26  4  0
 17 20  4  0
 17 28  1  0
 18 21  4  0
 21 26  4  0
 22 26  4  0
M  END
$$$$

 Created by Python create_sdf_string function

 28 54  0  0  0  0  0  0  0  0999 V2000
    4.5663   -8.2932   26.3715 N   0  0  0  0  0  0  0  0  0  0  0  0
    4.4260   -6.7006   26.8793 C   0  0  0  0  0  0  0  0  0  0  0  0
    2.3344   -4.6352   26.4788 C   0  0  0  0  0  0  0  0  0  0  0  0
    8.4260   -4.8610   27.8049 C   0  0  0  0  0  0  0  0  0  0  0  0
    1.1376   -3.8019   26.8059 C   0  0  0  0  0  0  0  0  0  0  0  0
    5.4756   -7.6821   15.9457 C   0  0  0  0  0  0  0  0  0  0  0  0
   -1.3737   -3.2497   26.8224 O   0  0  0  0  0  0  0  0  0  0  0  0
   -1.1302   -4.2462   27.1574 C   0  0  0  0  0  0  0  0  0  0  0  0
    3.0754   -8.4776   15.6345 C   0  0  0  0  0  0  0  0  0  0  0  0
   -2.5584   -5.0480   27.0762 O   0  0  0  0  0  0  0  0  0  0  0  0
   10.2715   -6.4935   28.5493 C   0  0  0  0  0  0  0  0  0  0  0  0
    6.1528   -5.8991   27.3219 C   0  0  0  0  0  0  0  0  0  0  0  0
    2.1037   -6.5223   26.7019 C   0  0  0  0  0  0  0  0  0  0  0  0
    9.1564   -5.9351   27.9490 I   0  0  0  0  0  0  0  0  0  0  0  0
    1.0177   -9.2832   16.5447 C   0  0  0  0  0  0  0  0  0  0  0  0
    7.9721   -7.1636   27.2645 C   0  0  0  0  0  0  0  0  0  0  0  0
    6.3356   -8.2876   26.8261 O   0  0  0  0  0  0  0  0  0  0  0  0
    2.8531   -6.9113   15.5130 C   0  0  0  0  0  0  0  0  0  0  0  0
    3.5053   -9.1580   17.9368 C   0  0  0  0  0  0  0  0  0  0  0  0
    5.1821   -5.5197   27.2843 C   0  0  0  0  0  0  0  0  0  0  0  0
    7.4006   -6.9354   27.3726 C   0  0  0  0  0  0  0  0  0  0  0  0
   -0.1211   -5.2243   26.7127 C   0  0  0  0  0  0  0  0  0  0  0  0
    2.9849   -7.0528   26.2112 N   0  0  0  0  0  0  0  0  0  0  0  0
   -0.3440   -6.5891   27.0513 He  0  0  0  0  0  0  0  0  0  0  0  0
    3.4012   -6.9070   15.6275 He  0  0  0  0  0  0  0  0  0  0  0  0
    6.4908   -4.5250   27.5835 He  0  0  0  0  0  0  0  0  0  0  0  0
    4.2576   -8.4003   16.8654 He  0  0  0  0  0  0  0  0  0  0  0  0
    1.0436   -6.2699   27.5169 He  0  0  0  0  0  0  0  0  0  0  0  0
  1  2  4  0
  1 10  1  0
  1 11  3  0
  1 15  1  0
  1 17  4  0
  1 19  3  0
  2  3  2  0
  2  5  3  0
  2 15  4  0
  2 20  4  0
  2 23  1  0
  3  5  4  0
  3 13  4  0
  4  6  3  0
  4 14  4  0
  4 16  3  0
  4 18  4  0
  5  6  1  0
  5 14  2  0
  5 18  3  0
  5 20  2  0
  5 22  4  0
  6 10  2  0
  6 13  1  0
  6 17  2  0
  7  9  1  0
  7 17  2  0
  8 10  2  0
  8 18  4  0
  8 22  1  0
  9 11  2  0
  9 18  4  0
  9 19  2  0
  9 21  3  0
  9 22  2  0
 10 14  3  0
 11 18  4  0
 11 21  1  0
 12 18  4  0
 12 19  1  0
 12 20  4  0
 12 21  4  0
 13 23  1  0
 14 16  4  0
 15 19  4  0
 15 23  2  0
 16 18  4  0
 16 21  4  0
 16 23  4  0
 17 18  2  0
 17 19  2  0
 17 21  4  0
 18 22  4  0
 19 20  4  0
M  END
$$$$

 Created by Python create_sdf_string function

 28 30  0  0  0  0  0  0  0  0999 V2000
    5.0158   -8.1144   26.4995 N   0  0  0  0  0  0  0  0  0  0  0  0
   -0.0510   -6.2715   27.2687 C   0  0  0  0  0  0  0  0  0  0  0  0
    3.8888   -7.0073   15.3942 C   0  0  0  0  0  0  0  0  0  0  0  0
    4.3265   -6.9659   26.6852 C   0  0  0  0  0  0  0  0  0  0  0  0
    2.2148   -4.8460   26.5884 C   0  0  0  0  0  0  0  0  0  0  0  0
    7.1145   -4.7296   27.6362 C   0  0  0  0  0  0  0  0  0  0  0  0
    8.3920   -4.8812   27.9170 C   0  0  0  0  0  0  0  0  0  0  0  0
    0.9976   -4.1133   26.6680 C   0  0  0  0  0  0  0  0  0  0  0  0
    4.8348   -7.6309   16.2890 C   0  0  0  0  0  0  0  0  0  0  0  0
   -1.5090   -3.0636   26.8416 O   0  0  0  0  0  0  0  0  0  0  0  0
   -1.4210   -4.3338   26.9748 C   0  0  0  0  0  0  0  0  0  0  0  0
    2.4434   -8.5272   16.3602 C   0  0  0  0  0  0  0  0  0  0  0  0
    4.5356   -8.6306   17.0561 C   0  0  0  0  0  0  0  0  0  0  0  0
   -2.4502   -5.0415   27.0871 O   0  0  0  0  0  0  0  0  0  0  0  0
   10.4531   -6.1749   28.3482 C   0  0  0  0  0  0  0  0  0  0  0  0
    6.3419   -5.8458   27.3095 C   0  0  0  0  0  0  0  0  0  0  0  0
    2.1524   -6.2390   26.7197 C   0  0  0  0  0  0  0  0  0  0  0  0
    8.9992   -6.1027   27.9307 C   0  0  0  0  0  0  0  0  0  0  0  0
    1.1387   -9.2019   16.4649 C   0  0  0  0  0  0  0  0  0  0  0  0
    1.0756   -6.9127   27.0811 C   0  0  0  0  0  0  0  0  0  0  0  0
    8.3057   -7.2413   27.5544 C   0  0  0  0  0  0  0  0  0  0  0  0
    6.2884   -8.2129   26.8083 C   0  0  0  0  0  0  0  0  0  0  0  0
    2.6472   -7.4541   15.5025 C   0  0  0  0  0  0  0  0  0  0  0  0
    3.5453   -9.2486   17.1936 C   0  0  0  0  0  0  0  0  0  0  0  0
    4.9388   -5.8473   27.0696 C   0  0  0  0  0  0  0  0  0  0  0  0
    6.9802   -7.0894   27.2313 C   0  0  0  0  0  0  0  0  0  0  0  0
   -0.1146   -4.9354   26.9953 C   0  0  0  0  0  0  0  0  0  0  0  0
    3.0663   -7.0103   26.3665 N   0  0  0  0  0  0  0  0  0  0  0  0
  1  4  4  0
  1 22  4  0
  2 20  4  0
  2 27  4  0
  3  9  4  0
  3 23  4  0
  4 25  4  0
  4 28  1  0
  5  8  4  0
  5 17  4  0
  6  7  4  0
  6 16  4  0
  7 18  4  0
  8 27  4  0
  9 13  4  0
 10 11  1  0
 11 14  2  0
 11 27  1  0
 12 19  1  0
 12 23  4  0
 12 24  4  0
 13 24  4  0
 15 18  1  0
 16 25  4  0
 16 26  4  0
 17 20  4  0
 17 28  1  0
 18 21  4  0
 21 26  4  0
 22 26  4  0
M  END
$$$$

 Created by Python create_sdf_string function

 28 55  0  0  0  0  0  0  0  0999 V2000
    2.6646   -7.6463   15.2230 N   0  0  0  0  0  0  0  0  0  0  0  0
    4.1603   -7.1969   26.5998 C   0  0  0  0  0  0  0  0  0  0  0  0
    2.1199   -4.5109   26.5970 C   0  0  0  0  0  0  0  0  0  0  0  0
    7.4277   -4.2327   27.3844 N   0  0  0  0  0  0  0  0  0  0  0  0
    8.5722   -5.3457   28.0114 Se  0  0  0  0  0  0  0  0  0  0  0  0
    0.7636   -3.9517   26.8113 C   0  0  0  0  0  0  0  0  0  0  0  0
    4.9460   -7.8991   16.1184 C   0  0  0  0  0  0  0  0  0  0  0  0
   -1.6829   -3.3344   26.6077 O   0  0  0  0  0  0  0  0  0  0  0  0
   -1.1450   -4.4041   27.0508 C   0  0  0  0  0  0  0  0  0  0  0  0
    2.4535   -7.3144   16.1715 O   0  0  0  0  0  0  0  0  0  0  0  0
   -2.3166   -5.5135   27.1362 O   0  0  0  0  0  0  0  0  0  0  0  0
   10.4843   -5.9511   28.1361 C   0  0  0  0  0  0  0  0  0  0  0  0
    6.4244   -6.0770   27.4589 C   0  0  0  0  0  0  0  0  0  0  0  0
    1.5728   -6.2759   26.7088 N   0  0  0  0  0  0  0  0  0  0  0  0
    8.9472   -6.0421   27.7090 C   0  0  0  0  0  0  0  0  0  0  0  0
    0.6158   -6.5363   26.8607 C   0  0  0  0  0  0  0  0  0  0  0  0
    7.9104   -7.1711   27.8741 C   0  0  0  0  0  0  0  0  0  0  0  0
    6.1948   -8.2265   26.9984 C   0  0  0  0  0  0  0  0  0  0  0  0
    2.4014   -6.3126   14.8268 Cl  0  0  0  0  0  0  0  0  0  0  0  0
    3.5094   -8.9283   17.5306 C   0  0  0  0  0  0  0  0  0  0  0  0
    5.0537   -5.6407   27.3304 C   0  0  0  0  0  0  0  0  0  0  0  0
    6.9144   -7.2292   26.9086 C   0  0  0  0  0  0  0  0  0  0  0  0
   -0.0780   -4.5407   26.9431 C   0  0  0  0  0  0  0  0  0  0  0  0
    3.3002   -7.0040   26.4090 N   0  0  0  0  0  0  0  0  0  0  0  0
    4.9486   -8.3263   26.2041 He  0  0  0  0  0  0  0  0  0  0  0  0
   -0.1149   -6.1033   27.0754 He  0  0  0  0  0  0  0  0  0  0  0  0
    4.4543   -8.2235   17.6265 He  0  0  0  0  0  0  0  0  0  0  0  0
    1.1404   -9.9574   15.9852 He  0  0  0  0  0  0  0  0  0  0  0  0
  1 10  1  0
  1 15  3  0
  1 16  4  0
  1 19  4  0
  2  5  3  0
  2  6  2  0
  2 19  2  0
  2 21  4  0
  3  6  4  0
  3 14  4  0
  3 16  2  0
  3 20  3  0
  4  5  4  0
  4  8  1  0
  4 13  4  0
  4 14  2  0
  4 17  2  0
  4 23  3  0
  4 24  1  0
  5  7  3  0
  5 10  2  0
  6 19  3  0
  6 23  4  0
  7 14  1  0
  8  9  1  0
  8 16  1  0
  9 11  2  0
  9 13  2  0
  9 16  2  0
  9 21  1  0
  9 23  1  0
 10 11  2  0
 10 13  3  0
 10 15  3  0
 10 17  3  0
 11 20  4  0
 11 24  1  0
 12 15  1  0
 12 17  3  0
 13 19  3  0
 13 21  4  0
 13 22  4  0
 14 16  4  0
 14 17  4  0
 14 18  2  0
 14 20  2  0
 14 24  3  0
 15 20  2  0
 15 22  3  0
 15 23  4  0
 16 17  2  0
 16 20  4  0
 17 22  4  0
 19 24  1  0
 20 24  2  0
M  END
$$$$

 Created by Python create_sdf_string function

 28 30  0  0  0  0  0  0  0  0999 V2000
    4.9054   -8.1271   26.5251 N   0  0  0  0  0  0  0  0  0  0  0  0
   -0.1184   -6.1998   27.1279 C   0  0  0  0  0  0  0  0  0  0  0  0
    2.9319   -7.2051   15.3423 N   0  0  0  0  0  0  0  0  0  0  0  0
    4.2628   -6.9274   26.6310 C   0  0  0  0  0  0  0  0  0  0  0  0
    2.1365   -4.7769   26.6471 C   0  0  0  0  0  0  0  0  0  0  0  0
    7.1172   -4.7736   27.5751 C   0  0  0  0  0  0  0  0  0  0  0  0
    8.3972   -4.8926   27.7647 C   0  0  0  0  0  0  0  0  0  0  0  0
    0.9130   -4.0430   26.7246 C   0  0  0  0  0  0  0  0  0  0  0  0
    4.5776   -7.5240   16.0502 C   0  0  0  0  0  0  0  0  0  0  0  0
   -1.8083   -3.0426   26.6996 O   0  0  0  0  0  0  0  0  0  0  0  0
   -1.6115   -4.3053   26.9526 C   0  0  0  0  0  0  0  0  0  0  0  0
    2.2856   -8.1669   16.0546 C   0  0  0  0  0  0  0  0  0  0  0  0
    4.4033   -8.4336   17.0197 C   0  0  0  0  0  0  0  0  0  0  0  0
   -2.6052   -5.0639   27.1810 O   0  0  0  0  0  0  0  0  0  0  0  0
   10.4574   -6.2157   28.2026 C   0  0  0  0  0  0  0  0  0  0  0  0
    6.3603   -5.9198   27.2827 C   0  0  0  0  0  0  0  0  0  0  0  0
    2.0881   -6.1149   26.6940 C   0  0  0  0  0  0  0  0  0  0  0  0
    9.0062   -6.1487   27.8651 C   0  0  0  0  0  0  0  0  0  0  0  0
    1.4724   -9.1223   16.4048 C   0  0  0  0  0  0  0  0  0  0  0  0
    1.0163   -6.8089   26.9886 C   0  0  0  0  0  0  0  0  0  0  0  0
    8.3683   -7.3063   27.6003 C   0  0  0  0  0  0  0  0  0  0  0  0
    6.2716   -8.3155   26.8442 C   0  0  0  0  0  0  0  0  0  0  0  0
    2.9062   -6.8038   15.0027 C   0  0  0  0  0  0  0  0  0  0  0  0
    3.2019   -9.1017   17.0644 C   0  0  0  0  0  0  0  0  0  0  0  0
    4.9330   -5.8633   26.9739 C   0  0  0  0  0  0  0  0  0  0  0  0
    6.9876   -7.1660   27.2645 C   0  0  0  0  0  0  0  0  0  0  0  0
   -0.2578   -4.8667   26.9552 C   0  0  0  0  0  0  0  0  0  0  0  0
    3.0389   -6.9004   26.2997 N   0  0  0  0  0  0  0  0  0  0  0  0
  1  4  4  0
  1 22  4  0
  2 20  4  0
  2 27  4  0
  3  9  4  0
  3 12  4  0
  3 23  4  0
  4 25  4  0
  4 28  1  0
  5  8  4  0
  5 17  4  0
  6  7  4  0
  6 16  4  0
  7 18  4  0
  8 27  4  0
  9 13  4  0
 10 11  1  0
 11 14  2  0
 11 27  1  0
 12 19  1  0
 12 24  4  0
 13 24  4  0
 15 18  1  0
 16 25  4  0
 16 26  4  0
 17 20  4  0
 17 28  1  0
 18 21  4  0
 21 26  4  0
 22 26  4  0
M  END
$$$$

 Created by Python create_sdf_string function

 28 56  0  0  0  0  0  0  0  0999 V2000
    4.5941   -8.2495   26.5235 N   0  0  0  0  0  0  0  0  0  0  0  0
    0.0843   -6.4969   26.9557 O   0  0  0  0  0  0  0  0  0  0  0  0
    2.6502   -7.6771   15.7108 N   0  0  0  0  0  0  0  0  0  0  0  0
    4.4852   -6.3979   26.4857 C   0  0  0  0  0  0  0  0  0  0  0  0
    2.2272   -5.0055   26.7888 C   0  0  0  0  0  0  0  0  0  0  0  0
    6.1921   -4.5699   28.4836 Cl  0  0  0  0  0  0  0  0  0  0  0  0
    8.5534   -5.2703   27.4960 C   0  0  0  0  0  0  0  0  0  0  0  0
    0.9025   -4.2330   26.4456 C   0  0  0  0  0  0  0  0  0  0  0  0
    4.9347   -6.7851   15.8300 C   0  0  0  0  0  0  0  0  0  0  0  0
   -1.8397   -3.3308   26.2939 O   0  0  0  0  0  0  0  0  0  0  0  0
   -1.6400   -3.9386   27.1135 C   0  0  0  0  0  0  0  0  0  0  0  0
    4.7844   -8.1841   16.4736 C   0  0  0  0  0  0  0  0  0  0  0  0
   -2.9256   -5.1849   27.4444 O   0  0  0  0  0  0  0  0  0  0  0  0
   10.2912   -6.3849   28.1209 C   0  0  0  0  0  0  0  0  0  0  0  0
    6.1462   -6.3094   27.5044 C   0  0  0  0  0  0  0  0  0  0  0  0
    1.9984   -6.1086   26.7135 C   0  0  0  0  0  0  0  0  0  0  0  0
    9.0645   -5.9678   27.8490 C   0  0  0  0  0  0  0  0  0  0  0  0
    1.2643   -8.4409   16.6690 C   0  0  0  0  0  0  0  0  0  0  0  0
    1.2542   -5.8221   27.2271 F   0  0  0  0  0  0  0  0  0  0  0  0
    8.6825   -7.2937   27.5826 C   0  0  0  0  0  0  0  0  0  0  0  0
    6.3138   -8.3629   26.8641 C   0  0  0  0  0  0  0  0  0  0  0  0
    3.1170  -10.0418   17.2629 C   0  0  0  0  0  0  0  0  0  0  0  0
    6.9118   -7.4579   27.7048 C   0  0  0  0  0  0  0  0  0  0  0  0
   -0.0484   -4.8191   27.1023 C   0  0  0  0  0  0  0  0  0  0  0  0
    3.1139   -6.7978   26.5276 N   0  0  0  0  0  0  0  0  0  0  0  0
    1.7590   -8.2065   16.7362 He  0  0  0  0  0  0  0  0  0  0  0  0
    3.0287   -6.5078   15.0937 He  0  0  0  0  0  0  0  0  0  0  0  0
    4.7814   -5.6010   26.9207 He  0  0  0  0  0  0  0  0  0  0  0  0
  1  3  3  0
  1  4  4  0
  1 13  1  0
  1 15  2  0
  1 19  2  0
  1 21  4  0
  1 22  2  0
  2  8  1  0
  2 16  3  0
  2 24  4  0
  3  8  3  0
  3  9  1  0
  3 11  1  0
  3 15  4  0
  3 25  2  0
  4  6  1  0
  4 15  2  0
  4 25  1  0
  5  8  4  0
  5 12  2  0
  5 16  4  0
  6  7  4  0
  6 13  4  0
  7 17  4  0
  9 12  4  0
  9 16  2  0
  9 20  1  0
  9 25  1  0
 10 11  1  0
 10 19  4  0
 10 22  3  0
 11 13  2  0
 11 16  3  0
 11 18  3  0
 11 20  1  0
 11 21  4  0
 11 22  4  0
 11 24  1  0
 12 13  4  0
 12 22  4  0
 12 23  2  0
 13 18  2  0
 14 17  1  0
 14 22  4  0
 14 24  1  0
 15 20  2  0
 15 23  1  0
 16 19  4  0
 16 23  3  0
 16 25  1  0
 17 20  2  0
 17 21  4  0
 20 22  1  0
 20 23  4  0
 21 23  4  0
 23 24  2  0
M  END
$$$$

 Created by Python create_sdf_string function

 28 30  0  0  0  0  0  0  0  0999 V2000
    4.8877   -8.1391   26.5105 N   0  0  0  0  0  0  0  0  0  0  0  0
   -0.0893   -6.1962   27.4069 C   0  0  0  0  0  0  0  0  0  0  0  0
    2.3624   -7.3520   15.7150 C   0  0  0  0  0  0  0  0  0  0  0  0
    4.2952   -6.9459   26.7263 C   0  0  0  0  0  0  0  0  0  0  0  0
    2.0592   -4.7154   26.5844 C   0  0  0  0  0  0  0  0  0  0  0  0
    7.1017   -4.8794   27.7598 C   0  0  0  0  0  0  0  0  0  0  0  0
    8.4050   -5.0092   27.9801 C   0  0  0  0  0  0  0  0  0  0  0  0
    0.8127   -4.0699   26.6216 C   0  0  0  0  0  0  0  0  0  0  0  0
    4.5089   -7.3889   15.8371 C   0  0  0  0  0  0  0  0  0  0  0  0
   -1.8491   -3.2436   26.3943 O   0  0  0  0  0  0  0  0  0  0  0  0
   -1.6516   -4.3926   26.9293 C   0  0  0  0  0  0  0  0  0  0  0  0
    2.0417   -8.3734   16.4196 C   0  0  0  0  0  0  0  0  0  0  0  0
    4.4096   -8.4281   16.6643 C   0  0  0  0  0  0  0  0  0  0  0  0
   -2.5645   -5.0811   27.4011 O   0  0  0  0  0  0  0  0  0  0  0  0
   10.4822   -6.2907   28.0215 C   0  0  0  0  0  0  0  0  0  0  0  0
    6.3200   -5.9992   27.3953 C   0  0  0  0  0  0  0  0  0  0  0  0
    2.0845   -6.0942   26.7500 C   0  0  0  0  0  0  0  0  0  0  0  0
    9.0108   -6.2300   27.8562 C   0  0  0  0  0  0  0  0  0  0  0  0
    1.0514   -8.7127   16.4985 C   0  0  0  0  0  0  0  0  0  0  0  0
    1.0130   -6.7833   27.1145 C   0  0  0  0  0  0  0  0  0  0  0  0
    8.2801   -7.3895   27.5723 C   0  0  0  0  0  0  0  0  0  0  0  0
    6.1807   -8.3893   26.8889 C   0  0  0  0  0  0  0  0  0  0  0  0
    3.0701   -6.7724   15.2701 C   0  0  0  0  0  0  0  0  0  0  0  0
    3.2332   -9.1268   16.9789 C   0  0  0  0  0  0  0  0  0  0  0  0
    4.9492   -5.9073   27.1707 N   0  0  0  0  0  0  0  0  0  0  0  0
    6.9230   -7.2621   27.2982 C   0  0  0  0  0  0  0  0  0  0  0  0
   -0.2670   -4.9046   27.0209 C   0  0  0  0  0  0  0  0  0  0  0  0
    3.0094   -6.8453   26.3996 N   0  0  0  0  0  0  0  0  0  0  0  0
  1  4  4  0
  1 22  4  0
  2 20  4  0
  2 27  4  0
  3 12  4  0
  3 23  4  0
  4 25  4  0
  4 28  1  0
  5  8  4  0
  5 17  4  0
  6  7  4  0
  6 16  4  0
  7 18  4  0
  8 27  4  0
  9 13  4  0
  9 23  4  0
 10 11  1  0
 11 14  2  0
 11 27  1  0
 12 19  1  0
 12 24  4  0
 13 24  4  0
 15 18  1  0
 16 25  4  0
 16 26  4  0
 17 20  4  0
 17 28  1  0
 18 21  4  0
 21 26  4  0
 22 26  4  0
M  END
$$$$

 Created by Python create_sdf_string function

 28 67  0  0  0  0  0  0  0  0999 V2000
    4.9489   -8.4417   26.6003 N   0  0  0  0  0  0  0  0  0  0  0  0
    0.2004   -6.0846   27.6961 C   0  0  0  0  0  0  0  0  0  0  0  0
    4.3068   -6.9241   27.0163 C   0  0  0  0  0  0  0  0  0  0  0  0
    1.6781   -4.5540   26.5382 C   0  0  0  0  0  0  0  0  0  0  0  0
    7.9723   -5.4941   27.1191 C   0  0  0  0  0  0  0  0  0  0  0  0
    8.4332   -5.1074   28.1312 C   0  0  0  0  0  0  0  0  0  0  0  0
    0.6959   -4.2746   26.3714 C   0  0  0  0  0  0  0  0  0  0  0  0
    3.8700   -8.1816   16.6923 N   0  0  0  0  0  0  0  0  0  0  0  0
   -1.8793   -3.5570   26.4499 O   0  0  0  0  0  0  0  0  0  0  0  0
   -1.8339   -4.3292   26.6873 C   0  0  0  0  0  0  0  0  0  0  0  0
    4.8627   -8.9301   15.9778 C   0  0  0  0  0  0  0  0  0  0  0  0
   -2.9420   -5.2784   27.2671 O   0  0  0  0  0  0  0  0  0  0  0  0
   10.5881   -6.3898   27.9486 C   0  0  0  0  0  0  0  0  0  0  0  0
    6.2767   -5.8068   27.4652 C   0  0  0  0  0  0  0  0  0  0  0  0
    2.1997   -5.8939   26.9649 C   0  0  0  0  0  0  0  0  0  0  0  0
    9.3194   -6.0554   27.7049 C   0  0  0  0  0  0  0  0  0  0  0  0
    1.6188   -9.0664   17.5214 C   0  0  0  0  0  0  0  0  0  0  0  0
    8.6113   -7.3511   27.6791 N   0  0  0  0  0  0  0  0  0  0  0  0
    6.4751   -8.2750   27.1805 C   0  0  0  0  0  0  0  0  0  0  0  0
    2.6407   -6.4673   15.1102 B   0  0  0  0  0  0  0  0  0  0  0  0
    3.2477   -9.3031   16.4368 C   0  0  0  0  0  0  0  0  0  0  0  0
    5.1222   -5.5007   27.1358 C   0  0  0  0  0  0  0  0  0  0  0  0
    7.0396   -7.2501   27.4571 C   0  0  0  0  0  0  0  0  0  0  0  0
   -0.0146   -4.6313   27.0474 C   0  0  0  0  0  0  0  0  0  0  0  0
    3.0885   -6.9794   26.5357 N   0  0  0  0  0  0  0  0  0  0  0  0
    2.1954   -7.4214   15.6452 He  0  0  0  0  0  0  0  0  0  0  0  0
    2.2470   -8.6122   16.4831 He  0  0  0  0  0  0  0  0  0  0  0  0
    0.3224   -7.0156   26.3215 He  0  0  0  0  0  0  0  0  0  0  0  0
  1  3  4  0
  1 16  1  0
  1 19  4  0
  1 24  3  0
  2 10  3  0
  2 13  4  0
  2 21  2  0
  2 23  3  0
  2 24  1  0
  3 22  4  0
  3 24  2  0
  3 25  1  0
  4  8  1  0
  4 15  4  0
  4 21  3  0
  4 25  1  0
  5  6  4  0
  5  8  3  0
  5 11  1  0
  5 12  3  0
  5 13  4  0
  5 14  4  0
  5 19  3  0
  5 20  2  0
  5 21  4  0
  6 16  4  0
  6 20  4  0
  7  8  1  0
  7 10  3  0
  7 16  4  0
  7 20  1  0
  7 24  4  0
  8 10  1  0
  8 11  2  0
  8 23  3  0
  8 25  4  0
  9 10  1  0
  9 15  4  0
  9 18  2  0
  9 20  4  0
  9 21  2  0
 10 12  2  0
 10 20  3  0
 10 24  1  0
 10 25  1  0
 11 17  4  0
 11 19  2  0
 11 21  4  0
 11 24  2  0
 12 17  2  0
 13 16  1  0
 13 25  3  0
 14 23  4  0
 15 17  2  0
 15 25  1  0
 16 18  4  0
 16 19  1  0
 16 20  1  0
 16 21  1  0
 17 19  2  0
 17 21  3  0
 17 23  1  0
 17 24  3  0
 18 23  4  0
 19 23  4  0
 20 22  4  0
 23 25  2  0
M  END
$$$$

 Created by Python create_sdf_string function

 28 30  0  0  0  0  0  0  0  0999 V2000
    4.9854   -8.1394   26.8184 N   0  0  0  0  0  0  0  0  0  0  0  0
   -0.1212   -6.2447   27.3915 C   0  0  0  0  0  0  0  0  0  0  0  0
    1.9924   -7.5297   15.9595 C   0  0  0  0  0  0  0  0  0  0  0  0
    4.3783   -6.9200   26.8195 C   0  0  0  0  0  0  0  0  0  0  0  0
    2.0191   -4.7483   26.4966 C   0  0  0  0  0  0  0  0  0  0  0  0
    7.3441   -4.8533   27.6241 C   0  0  0  0  0  0  0  0  0  0  0  0
    8.6537   -5.0004   27.7979 C   0  0  0  0  0  0  0  0  0  0  0  0
    0.7146   -4.0958   26.5625 C   0  0  0  0  0  0  0  0  0  0  0  0
    4.2960   -7.5363   15.9005 C   0  0  0  0  0  0  0  0  0  0  0  0
   -1.9637   -3.3529   26.3736 O   0  0  0  0  0  0  0  0  0  0  0  0
   -1.7490   -4.4751   26.8850 C   0  0  0  0  0  0  0  0  0  0  0  0
    2.0789   -8.7923   16.4508 C   0  0  0  0  0  0  0  0  0  0  0  0
    4.4026   -8.6993   16.3376 C   0  0  0  0  0  0  0  0  0  0  0  0
   -2.6850   -5.2011   27.2522 O   0  0  0  0  0  0  0  0  0  0  0  0
   10.6448   -6.3962   28.0182 C   0  0  0  0  0  0  0  0  0  0  0  0
    6.5302   -5.9423   27.3280 C   0  0  0  0  0  0  0  0  0  0  0  0
    2.1107   -6.0633   26.7339 C   0  0  0  0  0  0  0  0  0  0  0  0
    9.2236   -6.2618   27.8184 C   0  0  0  0  0  0  0  0  0  0  0  0
    0.9419   -9.4123   16.8516 C   0  0  0  0  0  0  0  0  0  0  0  0
    0.9843   -6.8534   27.1252 C   0  0  0  0  0  0  0  0  0  0  0  0
    8.4589   -7.3341   27.6042 N   0  0  0  0  0  0  0  0  0  0  0  0
    6.3287   -8.3452   27.0927 C   0  0  0  0  0  0  0  0  0  0  0  0
    3.1350   -6.9186   15.6493 C   0  0  0  0  0  0  0  0  0  0  0  0
    3.2452   -9.4201   16.6051 C   0  0  0  0  0  0  0  0  0  0  0  0
    5.1364   -5.8469   27.0587 C   0  0  0  0  0  0  0  0  0  0  0  0
    7.1182   -7.2085   27.3264 C   0  0  0  0  0  0  0  0  0  0  0  0
   -0.3507   -4.9323   26.9719 C   0  0  0  0  0  0  0  0  0  0  0  0
    3.1057   -6.8912   26.5067 N   0  0  0  0  0  0  0  0  0  0  0  0
  1  4  4  0
  1 22  4  0
  2 20  4  0
  2 27  4  0
  3 12  4  0
  3 23  4  0
  4 25  4  0
  4 28  1  0
  5  8  4  0
  5 17  4  0
  6  7  4  0
  6 16  4  0
  7 18  4  0
  8 27  4  0
  9 13  4  0
  9 23  4  0
 10 11  1  0
 11 14  2  0
 11 27  1  0
 12 19  1  0
 12 24  4  0
 13 24  4  0
 15 18  1  0
 16 25  4  0
 16 26  4  0
 17 20  4  0
 17 28  1  0
 18 21  4  0
 21 26  4  0
 22 26  4  0
M  END
$$$$

 Created by Python create_sdf_string function

 28 46  0  0  0  0  0  0  0  0999 V2000
    4.8796   -8.4352   26.7816 N   0  0  0  0  0  0  0  0  0  0  0  0
    0.1205   -6.2278   27.2093 C   0  0  0  0  0  0  0  0  0  0  0  0
    2.4684   -8.0529   16.1336 C   0  0  0  0  0  0  0  0  0  0  0  0
    1.8921   -4.9101   26.8381 C   0  0  0  0  0  0  0  0  0  0  0  0
    7.3585   -4.8328   28.5164 F   0  0  0  0  0  0  0  0  0  0  0  0
    0.2027   -4.1570   26.4884 C   0  0  0  0  0  0  0  0  0  0  0  0
   -1.6740   -4.3642   26.7792 C   0  0  0  0  0  0  0  0  0  0  0  0
    2.1618   -8.8986   16.7381 N   0  0  0  0  0  0  0  0  0  0  0  0
    4.2210   -8.9951   16.1407 C   0  0  0  0  0  0  0  0  0  0  0  0
   -2.5773   -5.3313   27.5318 O   0  0  0  0  0  0  0  0  0  0  0  0
   10.6146   -6.4241   28.0328 C   0  0  0  0  0  0  0  0  0  0  0  0
    6.5938   -5.7386   27.2218 C   0  0  0  0  0  0  0  0  0  0  0  0
    1.7424   -5.9299   26.4863 C   0  0  0  0  0  0  0  0  0  0  0  0
    0.6152   -9.1547   17.2572 C   0  0  0  0  0  0  0  0  0  0  0  0
    1.7077   -7.2895   27.4045 C   0  0  0  0  0  0  0  0  0  0  0  0
    8.4219   -7.1234   27.8000 N   0  0  0  0  0  0  0  0  0  0  0  0
    6.5294   -8.2669   27.3735 C   0  0  0  0  0  0  0  0  0  0  0  0
    2.7825   -7.0478   15.8937 C   0  0  0  0  0  0  0  0  0  0  0  0
    3.6727   -9.5736   16.9698 C   0  0  0  0  0  0  0  0  0  0  0  0
    5.1249   -5.8321   27.1027 C   0  0  0  0  0  0  0  0  0  0  0  0
    7.1654   -6.9658   27.5660 C   0  0  0  0  0  0  0  0  0  0  0  0
   -0.2089   -4.6502   27.1241 C   0  0  0  0  0  0  0  0  0  0  0  0
    3.1857   -6.7944   26.2403 N   0  0  0  0  0  0  0  0  0  0  0  0
    4.2512   -6.8111   26.7701 He  0  0  0  0  0  0  0  0  0  0  0  0
    8.7287   -5.0510   28.1854 He  0  0  0  0  0  0  0  0  0  0  0  0
    4.4600   -8.2877   14.9674 He  0  0  0  0  0  0  0  0  0  0  0  0
   -2.1122   -3.4123   26.4700 He  0  0  0  0  0  0  0  0  0  0  0  0
    9.0901   -6.3447   27.6610 He  0  0  0  0  0  0  0  0  0  0  0  0
  1 14  3  0
  1 17  4  0
  2 15  4  0
  2 22  4  0
  3  8  4  0
  3 19  3  0
  3 21  1  0
  4  6  4  0
  4  8  1  0
  4  9  3  0
  4 13  4  0
  4 14  2  0
  5  7  1  0
  5  8  2  0
  5 11  2  0
  5 15  1  0
  5 16  1  0
  5 17  2  0
  6  8  4  0
  6 10  1  0
  6 12  2  0
  6 19  1  0
  7 10  4  0
  7 12  1  0
  7 15  2  0
  7 18  4  0
  7 22  1  0
  8  9  2  0
  8 14  1  0
  8 15  1  0
  8 19  4  0
  9 10  2  0
  9 17  1  0
  9 19  4  0
 10 15  3  0
 11 15  4  0
 12 15  2  0
 12 20  4  0
 12 21  2  0
 13 15  1  0
 13 23  1  0
 14 16  4  0
 14 19  2  0
 17 21  4  0
 19 21  3  0
 21 23  4  0
M  END
$$$$

 Created by Python create_sdf_string function

 28 30  0  0  0  0  0  0  0  0999 V2000
    4.9927   -8.1118   26.7486 N   0  0  0  0  0  0  0  0  0  0  0  0
   -0.0707   -6.2958   27.4629 C   0  0  0  0  0  0  0  0  0  0  0  0
    2.0233   -7.7539   16.1634 C   0  0  0  0  0  0  0  0  0  0  0  0
    4.4261   -6.8834   26.7033 C   0  0  0  0  0  0  0  0  0  0  0  0
    2.0243   -4.8227   26.4833 C   0  0  0  0  0  0  0  0  0  0  0  0
    7.2734   -4.8340   27.9299 C   0  0  0  0  0  0  0  0  0  0  0  0
    8.5590   -5.0057   28.1698 C   0  0  0  0  0  0  0  0  0  0  0  0
    0.7475   -4.1933   26.5726 C   0  0  0  0  0  0  0  0  0  0  0  0
    4.3037   -8.0184   15.4793 C   0  0  0  0  0  0  0  0  0  0  0  0
   -1.9452   -3.3769   26.4476 N   0  0  0  0  0  0  0  0  0  0  0  0
   -1.6690   -4.5444   27.0035 C   0  0  0  0  0  0  0  0  0  0  0  0
    2.0852   -8.9716   16.8208 C   0  0  0  0  0  0  0  0  0  0  0  0
    4.3660   -9.1608   16.1908 C   0  0  0  0  0  0  0  0  0  0  0  0
   -2.6155   -5.2626   27.4776 O   0  0  0  0  0  0  0  0  0  0  0  0
   10.5819   -6.4208   28.0265 C   0  0  0  0  0  0  0  0  0  0  0  0
    6.5256   -5.9067   27.5441 C   0  0  0  0  0  0  0  0  0  0  0  0
    2.1678   -6.1022   26.6903 C   0  0  0  0  0  0  0  0  0  0  0  0
    9.1335   -6.2749   27.9430 C   0  0  0  0  0  0  0  0  0  0  0  0
    0.9000   -9.5488   17.2764 C   0  0  0  0  0  0  0  0  0  0  0  0
    1.1814   -6.8794   27.2466 C   0  0  0  0  0  0  0  0  0  0  0  0
    8.4347   -7.3408   27.6166 N   0  0  0  0  0  0  0  0  0  0  0  0
    6.3326   -8.3357   27.1236 C   0  0  0  0  0  0  0  0  0  0  0  0
    3.0948   -7.2990   15.4381 C   0  0  0  0  0  0  0  0  0  0  0  0
    3.3110   -9.6442   16.8776 C   0  0  0  0  0  0  0  0  0  0  0  0
    5.1285   -5.8416   27.1731 C   0  0  0  0  0  0  0  0  0  0  0  0
    7.0907   -7.1960   27.4455 C   0  0  0  0  0  0  0  0  0  0  0  0
   -0.3174   -5.0276   27.0430 C   0  0  0  0  0  0  0  0  0  0  0  0
    3.2127   -6.7411   26.1385 N   0  0  0  0  0  0  0  0  0  0  0  0
  1  4  4  0
  1 22  4  0
  2 20  4  0
  2 27  4  0
  3 12  4  0
  3 23  4  0
  4 25  4  0
  4 28  1  0
  5  8  4  0
  5 17  4  0
  6  7  4  0
  6 16  4  0
  7 18  4  0
  8 27  4  0
  9 13  4  0
  9 23  4  0
 10 11  1  0
 11 14  2  0
 11 27  1  0
 12 19  1  0
 12 24  4  0
 13 24  4  0
 15 18  1  0
 16 25  4  0
 16 26  4  0
 17 20  4  0
 17 28  1  0
 18 21  4  0
 21 26  4  0
 22 26  4  0
M  END
$$$$

 Created by Python create_sdf_string function

 28 54  0  0  0  0  0  0  0  0999 V2000
    4.9915   -8.2073   26.9075 N   0  0  0  0  0  0  0  0  0  0  0  0
   -0.0171   -6.2925   27.4376 C   0  0  0  0  0  0  0  0  0  0  0  0
    4.7338   -7.0332   26.9535 C   0  0  0  0  0  0  0  0  0  0  0  0
    1.9973   -4.9409   26.5821 C   0  0  0  0  0  0  0  0  0  0  0  0
    8.7481   -4.9237   27.9690 C   0  0  0  0  0  0  0  0  0  0  0  0
    0.9414   -3.9275   26.9542 C   0  0  0  0  0  0  0  0  0  0  0  0
    3.8359   -8.7039   15.9744 N   0  0  0  0  0  0  0  0  0  0  0  0
   -2.1328   -3.2573   26.4077 N   0  0  0  0  0  0  0  0  0  0  0  0
    2.7597   -8.9308   16.8111 C   0  0  0  0  0  0  0  0  0  0  0  0
    3.4044   -9.2840   15.7608 C   0  0  0  0  0  0  0  0  0  0  0  0
   -2.8130   -5.1081   27.7381 O   0  0  0  0  0  0  0  0  0  0  0  0
    6.7126   -5.7338   27.5302 C   0  0  0  0  0  0  0  0  0  0  0  0
    2.4595   -6.1272   26.6655 C   0  0  0  0  0  0  0  0  0  0  0  0
    9.0080   -6.1907   28.3263 C   0  0  0  0  0  0  0  0  0  0  0  0
    1.2539   -9.1005   16.8216 C   0  0  0  0  0  0  0  0  0  0  0  0
    1.4588   -6.7280   27.7962 C   0  0  0  0  0  0  0  0  0  0  0  0
    6.1880   -8.4960   27.2555 C   0  0  0  0  0  0  0  0  0  0  0  0
    2.8484   -6.7313   15.6379 C   0  0  0  0  0  0  0  0  0  0  0  0
    5.0638   -5.7594   27.2439 C   0  0  0  0  0  0  0  0  0  0  0  0
    6.9695   -6.8974   27.4641 C   0  0  0  0  0  0  0  0  0  0  0  0
   -0.3953   -5.0570   27.1698 C   0  0  0  0  0  0  0  0  0  0  0  0
    3.0565   -6.9612   26.2771 N   0  0  0  0  0  0  0  0  0  0  0  0
    2.3467   -7.4648   15.4610 He  0  0  0  0  0  0  0  0  0  0  0  0
    6.3791   -5.2580   27.2317 He  0  0  0  0  0  0  0  0  0  0  0  0
   -1.5511   -4.7554   26.8587 He  0  0  0  0  0  0  0  0  0  0  0  0
   10.5781   -6.1904   27.7210 He  0  0  0  0  0  0  0  0  0  0  0  0
    8.4632   -7.3637   27.6253 He  0  0  0  0  0  0  0  0  0  0  0  0
    3.4490  -10.1458   17.1839 He  0  0  0  0  0  0  0  0  0  0  0  0
  1  3  4  0
  1 12  4  0
  1 17  4  0
  2  7  1  0
  2 13  2  0
  2 15  4  0
  2 21  4  0
  3  7  4  0
  3  9  3  0
  3 22  4  0
  4  5  2  0
  4 13  4  0
  4 19  3  0
  5 10  4  0
  5 11  2  0
  5 14  4  0
  6 14  1  0
  6 16  3  0
  6 18  4  0
  6 19  1  0
  6 21  4  0
  7 10  3  0
  7 18  4  0
  7 20  2  0
  8  9  4  0
  8 12  1  0
  9 11  3  0
  9 12  4  0
  9 14  3  0
  9 15  1  0
  9 21  4  0
 10 11  2  0
 10 16  1  0
 10 17  2  0
 10 20  4  0
 10 21  4  0
 11 15  2  0
 11 16  1  0
 11 21  3  0
 12 19  4  0
 12 20  4  0
 13 14  2  0
 13 16  2  0
 13 20  1  0
 13 21  4  0
 13 22  1  0
 14 16  4  0
 14 22  4  0
 15 16  2  0
 16 17  4  0
 16 18  3  0
 17 18  3  0
 17 20  4  0
 18 20  1  0
M  END
$$$$

 Created by Python create_sdf_string function

 28 30  0  0  0  0  0  0  0  0999 V2000
    4.9843   -8.1870   26.8490 N   0  0  0  0  0  0  0  0  0  0  0  0
   -0.0257   -6.3111   27.6421 C   0  0  0  0  0  0  0  0  0  0  0  0
    2.0671   -7.6433   16.0819 C   0  0  0  0  0  0  0  0  0  0  0  0
    4.4187   -6.9653   26.7979 C   0  0  0  0  0  0  0  0  0  0  0  0
    2.0619   -4.8275   26.5927 C   0  0  0  0  0  0  0  0  0  0  0  0
    7.2039   -4.8258   27.6290 C   0  0  0  0  0  0  0  0  0  0  0  0
    8.5395   -4.9222   27.8087 C   0  0  0  0  0  0  0  0  0  0  0  0
    0.7993   -4.2453   26.6122 C   0  0  0  0  0  0  0  0  0  0  0  0
    4.1632   -8.1768   15.4893 C   0  0  0  0  0  0  0  0  0  0  0  0
   -1.8950   -3.3880   26.4076 N   0  0  0  0  0  0  0  0  0  0  0  0
   -1.6269   -4.5628   27.0714 C   0  0  0  0  0  0  0  0  0  0  0  0
    2.0151   -8.9134   16.6587 C   0  0  0  0  0  0  0  0  0  0  0  0
    4.1657   -9.3195   16.0630 C   0  0  0  0  0  0  0  0  0  0  0  0
   -2.5976   -5.2433   27.5825 O   0  0  0  0  0  0  0  0  0  0  0  0
   10.6143   -6.2039   28.0223 C   0  0  0  0  0  0  0  0  0  0  0  0
    6.4715   -5.9622   27.3832 C   0  0  0  0  0  0  0  0  0  0  0  0
    2.1870   -6.1687   26.8313 C   0  0  0  0  0  0  0  0  0  0  0  0
    9.1633   -6.1610   27.8309 C   0  0  0  0  0  0  0  0  0  0  0  0
    0.7884   -9.3363   17.1249 C   0  0  0  0  0  0  0  0  0  0  0  0
    1.1632   -6.9182   27.4217 C   0  0  0  0  0  0  0  0  0  0  0  0
    8.4220   -7.3235   27.7006 C   0  0  0  0  0  0  0  0  0  0  0  0
    6.3290   -8.3901   27.2360 C   0  0  0  0  0  0  0  0  0  0  0  0
    3.1367   -7.2976   15.4754 C   0  0  0  0  0  0  0  0  0  0  0  0
    3.1222   -9.7967   16.7660 C   0  0  0  0  0  0  0  0  0  0  0  0
    5.1198   -5.8856   27.0820 C   0  0  0  0  0  0  0  0  0  0  0  0
    7.0697   -7.2272   27.4440 C   0  0  0  0  0  0  0  0  0  0  0  0
   -0.2564   -5.0437   27.1295 C   0  0  0  0  0  0  0  0  0  0  0  0
    3.1877   -6.8786   26.3101 N   0  0  0  0  0  0  0  0  0  0  0  0
  1  4  4  0
  1 22  4  0
  2 20  4  0
  2 27  4  0
  3 12  4  0
  3 23  4  0
  4 25  4  0
  4 28  1  0
  5  8  4  0
  5 17  4  0
  6  7  4  0
  6 16  4  0
  7 18  4  0
  8 27  4  0
  9 13  4  0
  9 23  4  0
 10 11  1  0
 11 14  2  0
 11 27  1  0
 12 19  1  0
 12 24  4  0
 13 24  4  0
 15 18  1  0
 16 25  4  0
 16 26  4  0
 17 20  4  0
 17 28  1  0
 18 21  4  0
 21 26  4  0
 22 26  4  0
M  END
$$$$

 Created by Python create_sdf_string function

 28 51  0  0  0  0  0  0  0  0999 V2000
    5.0727   -8.0434   27.1671 N   0  0  0  0  0  0  0  0  0  0  0  0
   -0.0180   -6.4534   27.7691 C   0  0  0  0  0  0  0  0  0  0  0  0
    1.8882   -7.4659   17.0625 C   0  0  0  0  0  0  0  0  0  0  0  0
    4.4570   -7.2142   26.8697 C   0  0  0  0  0  0  0  0  0  0  0  0
    1.9476   -4.8633   26.5634 C   0  0  0  0  0  0  0  0  0  0  0  0
    6.5943   -4.6038   27.5029 C   0  0  0  0  0  0  0  0  0  0  0  0
    8.5828   -4.7414   27.8970 C   0  0  0  0  0  0  0  0  0  0  0  0
    0.8298   -4.0991   26.5306 C   0  0  0  0  0  0  0  0  0  0  0  0
    4.0930   -8.2396   15.6988 C   0  0  0  0  0  0  0  0  0  0  0  0
   -1.7065   -3.3263   26.2366 N   0  0  0  0  0  0  0  0  0  0  0  0
   -1.2945   -4.7273   26.9551 C   0  0  0  0  0  0  0  0  0  0  0  0
    1.9844   -9.7026   16.6142 C   0  0  0  0  0  0  0  0  0  0  0  0
   -2.7862   -5.3629   27.5730 O   0  0  0  0  0  0  0  0  0  0  0  0
   10.8110   -6.3243   27.8618 C   0  0  0  0  0  0  0  0  0  0  0  0
    6.6230   -5.8916   27.3315 C   0  0  0  0  0  0  0  0  0  0  0  0
    9.2779   -6.0976   27.4886 C   0  0  0  0  0  0  0  0  0  0  0  0
    0.4933   -9.8640   16.7412 O   0  0  0  0  0  0  0  0  0  0  0  0
    1.3372   -6.4665   28.3146 C   0  0  0  0  0  0  0  0  0  0  0  0
    8.4530   -7.4236   27.8383 C   0  0  0  0  0  0  0  0  0  0  0  0
    6.3665   -8.5342   27.2813 S   0  0  0  0  0  0  0  0  0  0  0  0
    2.6750   -6.4741   15.2383 C   0  0  0  0  0  0  0  0  0  0  0  0
    2.4695   -9.8141   16.4171 C   0  0  0  0  0  0  0  0  0  0  0  0
   -0.2568   -5.1665   27.1578 C   0  0  0  0  0  0  0  0  0  0  0  0
    3.0590   -6.6268   26.6490 N   0  0  0  0  0  0  0  0  0  0  0  0
    3.7553   -9.5215   15.2846 He  0  0  0  0  0  0  0  0  0  0  0  0
    2.1669   -5.8613   26.8201 He  0  0  0  0  0  0  0  0  0  0  0  0
    5.0983   -5.9118   26.6646 He  0  0  0  0  0  0  0  0  0  0  0  0
    7.2582   -7.2699   27.1954 He  0  0  0  0  0  0  0  0  0  0  0  0
  1  4  4  0
  1 24  4  0
  2 12  3  0
  2 18  4  0
  2 23  4  0
  3 17  1  0
  3 19  1  0
  3 21  4  0
  3 22  4  0
  3 24  4  0
  4 18  3  0
  4 22  1  0
  4 24  1  0
  5  8  4  0
  5 18  2  0
  5 19  2  0
  6  7  4  0
  6  8  1  0
  6 23  1  0
  7 11  2  0
  7 12  2  0
  7 16  4  0
  7 21  4  0
  8 13  1  0
  8 18  1  0
  8 23  4  0
  9 10  1  0
  9 21  4  0
 10 11  3  0
 11 13  2  0
 11 19  1  0
 11 23  1  0
 12 15  2  0
 12 17  4  0
 12 18  3  0
 12 21  3  0
 12 22  4  0
 12 24  3  0
 13 14  3  0
 14 15  1  0
 14 16  1  0
 15 17  2  0
 16 19  4  0
 17 21  4  0
 17 22  1  0
 18 21  3  0
 18 24  3  0
 19 22  4  0
 20 22  1  0
 21 22  1  0
 22 24  2  0
M  END
$$$$

 Created by Python create_sdf_string function

 28 30  0  0  0  0  0  0  0  0999 V2000
    4.9843   -8.2001   26.9716 N   0  0  0  0  0  0  0  0  0  0  0  0
    0.0317   -6.2526   27.8733 C   0  0  0  0  0  0  0  0  0  0  0  0
    1.7057   -7.7093   16.4462 C   0  0  0  0  0  0  0  0  0  0  0  0
    4.4206   -6.9646   26.8776 C   0  0  0  0  0  0  0  0  0  0  0  0
    2.0762   -4.9196   26.5211 C   0  0  0  0  0  0  0  0  0  0  0  0
    7.2669   -4.8025   27.4306 C   0  0  0  0  0  0  0  0  0  0  0  0
    8.5950   -4.9025   27.6986 C   0  0  0  0  0  0  0  0  0  0  0  0
    0.8091   -4.3250   26.5239 C   0  0  0  0  0  0  0  0  0  0  0  0
    3.7897   -7.9437   15.4199 C   0  0  0  0  0  0  0  0  0  0  0  0
   -1.8376   -3.5211   26.3190 N   0  0  0  0  0  0  0  0  0  0  0  0
   -1.5771   -4.6579   27.0100 C   0  0  0  0  0  0  0  0  0  0  0  0
    1.6887   -9.0289   16.5584 C   0  0  0  0  0  0  0  0  0  0  0  0
    3.7315   -9.2559   15.5567 C   0  0  0  0  0  0  0  0  0  0  0  0
   -2.5485   -5.3197   27.4799 O   0  0  0  0  0  0  0  0  0  0  0  0
   10.6864   -6.1627   27.9318 C   0  0  0  0  0  0  0  0  0  0  0  0
    6.4928   -5.9677   27.2547 C   0  0  0  0  0  0  0  0  0  0  0  0
    2.1717   -6.2023   26.9841 C   0  0  0  0  0  0  0  0  0  0  0  0
    9.2233   -6.1178   27.7558 C   0  0  0  0  0  0  0  0  0  0  0  0
    0.6065   -9.7330   17.1491 O   0  0  0  0  0  0  0  0  0  0  0  0
    1.2277   -6.8341   27.7662 C   0  0  0  0  0  0  0  0  0  0  0  0
    8.4599   -7.3021   27.5883 C   0  0  0  0  0  0  0  0  0  0  0  0
    6.3276   -8.3946   27.2898 N   0  0  0  0  0  0  0  0  0  0  0  0
    2.8051   -7.1631   15.9124 C   0  0  0  0  0  0  0  0  0  0  0  0
    2.6633   -9.7969   16.1542 C   0  0  0  0  0  0  0  0  0  0  0  0
    5.1429   -5.9016   27.0105 N   0  0  0  0  0  0  0  0  0  0  0  0
    7.0883   -7.2371   27.3816 C   0  0  0  0  0  0  0  0  0  0  0  0
   -0.1823   -5.0933   27.1639 C   0  0  0  0  0  0  0  0  0  0  0  0
    3.1597   -6.9404   26.5128 N   0  0  0  0  0  0  0  0  0  0  0  0
  1  4  4  0
  1 22  4  0
  2 20  4  0
  2 27  4  0
  3 12  4  0
  3 23  4  0
  4 25  4  0
  4 28  1  0
  5  8  4  0
  5 17  4  0
  6  7  4  0
  6 16  4  0
  7 18  4  0
  8 27  4  0
  9 13  4  0
  9 23  4  0
 10 11  1  0
 11 14  2  0
 11 27  1  0
 12 19  1  0
 12 24  4  0
 13 24  4  0
 15 18  1  0
 16 25  4  0
 16 26  4  0
 17 20  4  0
 17 28  1  0
 18 21  4  0
 21 26  4  0
 22 26  4  0
M  END
$$$$

 Created by Python create_sdf_string function

 28 46  0  0  0  0  0  0  0  0999 V2000
    4.9944   -8.3288   26.9891 N   0  0  0  0  0  0  0  0  0  0  0  0
    0.2461   -6.1238   27.5315 C   0  0  0  0  0  0  0  0  0  0  0  0
    2.3455   -8.1152   15.6206 I   0  0  0  0  0  0  0  0  0  0  0  0
    4.4900   -6.8674   26.8782 C   0  0  0  0  0  0  0  0  0  0  0  0
    1.8366   -5.1855   26.3774 C   0  0  0  0  0  0  0  0  0  0  0  0
    7.5787   -5.0080   27.2040 C   0  0  0  0  0  0  0  0  0  0  0  0
    8.6537   -5.0760   27.7293 C   0  0  0  0  0  0  0  0  0  0  0  0
    3.8794   -8.2319   15.9380 C   0  0  0  0  0  0  0  0  0  0  0  0
   -1.8671   -3.2750   26.5310 N   0  0  0  0  0  0  0  0  0  0  0  0
    2.3751   -8.8866   16.2623 C   0  0  0  0  0  0  0  0  0  0  0  0
    4.1687   -9.6273   15.5639 C   0  0  0  0  0  0  0  0  0  0  0  0
   10.3635   -5.9910   27.9039 C   0  0  0  0  0  0  0  0  0  0  0  0
    6.3228   -6.1602   27.4098 C   0  0  0  0  0  0  0  0  0  0  0  0
    2.2936   -6.4483   27.2344 C   0  0  0  0  0  0  0  0  0  0  0  0
    9.7085   -5.9793   27.7086 C   0  0  0  0  0  0  0  0  0  0  0  0
    0.7250   -9.6487   16.5190 O   0  0  0  0  0  0  0  0  0  0  0  0
    1.6446   -6.8999   27.8927 C   0  0  0  0  0  0  0  0  0  0  0  0
    6.1718   -8.3947   27.3990 N   0  0  0  0  0  0  0  0  0  0  0  0
    2.7469   -6.9414   16.2692 C   0  0  0  0  0  0  0  0  0  0  0  0
    5.5156   -5.8533   26.9509 N   0  0  0  0  0  0  0  0  0  0  0  0
    6.9874   -7.2201   27.4181 C   0  0  0  0  0  0  0  0  0  0  0  0
    0.0206   -5.2440   26.8845 C   0  0  0  0  0  0  0  0  0  0  0  0
    3.4910   -7.0618   26.7035 N   0  0  0  0  0  0  0  0  0  0  0  0
    0.6915   -4.5243   26.6740 He  0  0  0  0  0  0  0  0  0  0  0  0
   -1.5915   -4.4664   27.0909 He  0  0  0  0  0  0  0  0  0  0  0  0
   -2.6227   -5.5226   27.1557 He  0  0  0  0  0  0  0  0  0  0  0  0
    8.0764   -7.6511   27.7285 He  0  0  0  0  0  0  0  0  0  0  0  0
    2.4658  -10.6162   16.5071 He  0  0  0  0  0  0  0  0  0  0  0  0
  1  4  4  0
  1  6  2  0
  1 10  3  0
  1 15  1  0
  1 16  4  0
  1 18  4  0
  1 22  1  0
  2  7  3  0
  2 10  3  0
  2 14  1  0
  2 17  4  0
  2 22  4  0
  3  8  1  0
  3 10  1  0
  3 13  1  0
  3 19  4  0
  3 22  2  0
  3 23  2  0
  4 20  4  0
  4 21  2  0
  4 23  1  0
  5 14  4  0
  5 16  1  0
  6  8  1  0
  6 13  4  0
  7 15  4  0
  8 11  4  0
  8 14  1  0
  8 19  4  0
  9 18  2  0
  9 22  2  0
 10 11  4  0
 10 21  1  0
 11 13  3  0
 12 15  1  0
 12 18  1  0
 12 22  3  0
 13 19  2  0
 13 20  4  0
 13 21  4  0
 14 17  4  0
 14 23  1  0
 16 19  3  0
 16 20  2  0
 16 21  2  0
 18 21  4  0
M  END
$$$$

 Created by Python create_sdf_string function

 28 30  0  0  0  0  0  0  0  0999 V2000
    5.0994   -8.2936   27.0181 N   0  0  0  0  0  0  0  0  0  0  0  0
    0.0167   -6.3774   27.8004 C   0  0  0  0  0  0  0  0  0  0  0  0
    1.8700   -7.9479   16.1532 C   0  0  0  0  0  0  0  0  0  0  0  0
    4.4777   -7.0624   26.8436 C   0  0  0  0  0  0  0  0  0  0  0  0
    2.0844   -5.0924   26.4766 C   0  0  0  0  0  0  0  0  0  0  0  0
    7.3185   -4.8905   27.3325 C   0  0  0  0  0  0  0  0  0  0  0  0
    8.6758   -5.0351   27.5692 C   0  0  0  0  0  0  0  0  0  0  0  0
    0.8558   -4.4701   26.4585 C   0  0  0  0  0  0  0  0  0  0  0  0
    4.1100   -8.0928   15.8325 C   0  0  0  0  0  0  0  0  0  0  0  0
   -1.6749   -3.3856   26.4999 N   0  0  0  0  0  0  0  0  0  0  0  0
   -1.5372   -4.6595   26.9687 C   0  0  0  0  0  0  0  0  0  0  0  0
    1.8862   -9.2582   16.3179 C   0  0  0  0  0  0  0  0  0  0  0  0
    4.0855   -9.5028   15.9082 C   0  0  0  0  0  0  0  0  0  0  0  0
   -2.5682   -5.3637   27.3000 O   0  0  0  0  0  0  0  0  0  0  0  0
   10.6533   -6.3478   28.0237 C   0  0  0  0  0  0  0  0  0  0  0  0
    6.5724   -6.0307   27.2275 C   0  0  0  0  0  0  0  0  0  0  0  0
    2.1971   -6.3900   26.9153 C   0  0  0  0  0  0  0  0  0  0  0  0
    9.2607   -6.2640   27.7835 C   0  0  0  0  0  0  0  0  0  0  0  0
    0.6248   -9.7112   16.6388 O   0  0  0  0  0  0  0  0  0  0  0  0
    1.2227   -7.0024   27.6595 C   0  0  0  0  0  0  0  0  0  0  0  0
    8.4723   -7.4257   27.7118 C   0  0  0  0  0  0  0  0  0  0  0  0
    6.3947   -8.4112   27.3655 N   0  0  0  0  0  0  0  0  0  0  0  0
    2.9906   -7.3181   15.9182 C   0  0  0  0  0  0  0  0  0  0  0  0
    2.9913  -10.1221   16.2025 C   0  0  0  0  0  0  0  0  0  0  0  0
    5.1885   -5.9756   26.9671 N   0  0  0  0  0  0  0  0  0  0  0  0
    7.1176   -7.3022   27.4240 C   0  0  0  0  0  0  0  0  0  0  0  0
   -0.1623   -5.1979   27.0922 C   0  0  0  0  0  0  0  0  0  0  0  0
    3.2286   -7.0741   26.4893 N   0  0  0  0  0  0  0  0  0  0  0  0
  1  4  4  0
  1 22  4  0
  2 20  4  0
  2 27  4  0
  3 12  4  0
  3 23  4  0
  4 25  4  0
  4 28  1  0
  5  8  4  0
  5 17  4  0
  6  7  4  0
  6 16  4  0
  7 18  4  0
  8 27  4  0
  9 13  4  0
  9 23  4  0
 10 11  1  0
 11 14  2  0
 11 27  1  0
 12 19  1  0
 12 24  4  0
 13 24  4  0
 15 18  1  0
 16 25  4  0
 16 26  4  0
 17 20  4  0
 17 28  1  0
 18 21  4  0
 21 26  4  0
 22 26  4  0
M  END
$$$$

 Created by Python create_sdf_string function

 28 60  0  0  0  0  0  0  0  0999 V2000
    5.3576   -8.3275   27.5719 N   0  0  0  0  0  0  0  0  0  0  0  0
    0.1658   -6.4658   27.6898 C   0  0  0  0  0  0  0  0  0  0  0  0
    2.5764   -8.0532   16.9358 C   0  0  0  0  0  0  0  0  0  0  0  0
    4.7080   -7.1341   26.7982 C   0  0  0  0  0  0  0  0  0  0  0  0
    2.2515   -4.6411   26.2077 C   0  0  0  0  0  0  0  0  0  0  0  0
    7.5352   -4.8568   27.2639 C   0  0  0  0  0  0  0  0  0  0  0  0
    8.6402   -4.6284   27.6563 C   0  0  0  0  0  0  0  0  0  0  0  0
    0.7430   -4.4456   26.5542 C   0  0  0  0  0  0  0  0  0  0  0  0
   -1.7675   -3.0750   26.6381 N   0  0  0  0  0  0  0  0  0  0  0  0
   -1.4882   -4.6834   26.9395 C   0  0  0  0  0  0  0  0  0  0  0  0
    1.4147   -9.5439   15.5657 C   0  0  0  0  0  0  0  0  0  0  0  0
    4.5429   -9.8631   16.1714 C   0  0  0  0  0  0  0  0  0  0  0  0
   -2.7354   -5.6214   27.3071 O   0  0  0  0  0  0  0  0  0  0  0  0
   10.5618   -6.2725   28.0284 C   0  0  0  0  0  0  0  0  0  0  0  0
    6.6155   -6.1830   27.0506 C   0  0  0  0  0  0  0  0  0  0  0  0
    1.9743   -6.4722   26.8694 C   0  0  0  0  0  0  0  0  0  0  0  0
    9.0027   -6.2838   27.4896 C   0  0  0  0  0  0  0  0  0  0  0  0
    0.3364   -9.9683   16.7660 I   0  0  0  0  0  0  0  0  0  0  0  0
    0.9874   -6.5548   27.2413 C   0  0  0  0  0  0  0  0  0  0  0  0
    8.4846   -7.5731   27.8651 C   0  0  0  0  0  0  0  0  0  0  0  0
    6.4806   -8.2254   27.5665 N   0  0  0  0  0  0  0  0  0  0  0  0
    5.3110   -6.0316   26.7819 N   0  0  0  0  0  0  0  0  0  0  0  0
    6.8719   -7.1074   27.4911 C   0  0  0  0  0  0  0  0  0  0  0  0
   -0.3958   -5.2239   27.0964 C   0  0  0  0  0  0  0  0  0  0  0  0
    3.3416   -7.3310   26.5160 N   0  0  0  0  0  0  0  0  0  0  0  0
    4.6836   -8.1926   15.7890 He  0  0  0  0  0  0  0  0  0  0  0  0
    3.3270   -7.8844   16.2437 He  0  0  0  0  0  0  0  0  0  0  0  0
    3.5756   -9.9482   16.2265 He  0  0  0  0  0  0  0  0  0  0  0  0
  1  3  3  0
  1  4  4  0
  1 19  4  0
  1 21  4  0
  1 24  3  0
  1 25  1  0
  2 15  3  0
  2 18  3  0
  2 19  4  0
  2 24  4  0
  3  5  4  0
  3  8  3  0
  3 12  2  0
  3 13  4  0
  3 17  2  0
  4 15  3  0
  4 21  1  0
  4 22  4  0
  4 25  1  0
  5 11  1  0
  5 16  4  0
  5 19  4  0
  6  7  4  0
  6  8  3  0
  6 12  1  0
  6 18  2  0
  6 19  1  0
  6 23  1  0
  7 17  4  0
  7 25  3  0
  8 18  1  0
  8 24  4  0
  9 24  2  0
 10 11  3  0
 10 13  2  0
 10 18  4  0
 10 24  1  0
 11 12  1  0
 11 18  1  0
 11 22  1  0
 12 16  4  0
 12 20  3  0
 12 24  2  0
 13 23  2  0
 14 17  1  0
 14 21  2  0
 14 24  2  0
 15 16  1  0
 15 22  4  0
 15 23  4  0
 15 24  2  0
 16 25  1  0
 17 19  4  0
 17 20  4  0
 18 22  2  0
 19 23  3  0
 19 24  3  0
 20 23  4  0
 21 23  2  0
 22 23  2  0
M  END
$$$$

 Created by Python create_sdf_string function

 28 30  0  0  0  0  0  0  0  0999 V2000
    5.0624   -8.2857   27.2452 N   0  0  0  0  0  0  0  0  0  0  0  0
    0.0017   -6.4853   27.5353 C   0  0  0  0  0  0  0  0  0  0  0  0
    2.1348   -8.0237   16.4273 C   0  0  0  0  0  0  0  0  0  0  0  0
    4.4999   -7.1059   26.8305 C   0  0  0  0  0  0  0  0  0  0  0  0
    2.1074   -5.1038   26.4188 C   0  0  0  0  0  0  0  0  0  0  0  0
    7.3062   -4.8902   27.1583 C   0  0  0  0  0  0  0  0  0  0  0  0
    8.6494   -4.9502   27.4877 C   0  0  0  0  0  0  0  0  0  0  0  0
    0.8844   -4.4485   26.5198 C   0  0  0  0  0  0  0  0  0  0  0  0
    4.4774   -8.3150   16.0843 C   0  0  0  0  0  0  0  0  0  0  0  0
   -1.7492   -3.3707   26.6247 N   0  0  0  0  0  0  0  0  0  0  0  0
   -1.5580   -4.6552   27.0216 C   0  0  0  0  0  0  0  0  0  0  0  0
    1.9778   -9.4252   16.3452 C   0  0  0  0  0  0  0  0  0  0  0  0
    4.3125   -9.6959   15.9860 C   0  0  0  0  0  0  0  0  0  0  0  0
   -2.5544   -5.3766   27.3391 O   0  0  0  0  0  0  0  0  0  0  0  0
   10.6738   -6.2380   28.0273 C   0  0  0  0  0  0  0  0  0  0  0  0
    6.5849   -6.0476   27.1662 C   0  0  0  0  0  0  0  0  0  0  0  0
    2.2286   -6.4207   26.7729 C   0  0  0  0  0  0  0  0  0  0  0  0
    9.2487   -6.1539   27.7718 C   0  0  0  0  0  0  0  0  0  0  0  0
    0.5873  -10.0165   16.4975 I   0  0  0  0  0  0  0  0  0  0  0  0
    1.2079   -7.0644   27.4134 C   0  0  0  0  0  0  0  0  0  0  0  0
    8.5103   -7.3346   27.7690 C   0  0  0  0  0  0  0  0  0  0  0  0
    6.3764   -8.4148   27.6472 N   0  0  0  0  0  0  0  0  0  0  0  0
    3.3592   -7.5560   16.2979 C   0  0  0  0  0  0  0  0  0  0  0  0
    3.0978  -10.2454   16.1030 C   0  0  0  0  0  0  0  0  0  0  0  0
    5.2432   -6.0343   26.8524 N   0  0  0  0  0  0  0  0  0  0  0  0
    7.1411   -7.2719   27.5196 C   0  0  0  0  0  0  0  0  0  0  0  0
   -0.1941   -5.2337   27.0510 C   0  0  0  0  0  0  0  0  0  0  0  0
    3.3153   -7.1650   26.3702 N   0  0  0  0  0  0  0  0  0  0  0  0
  1  4  4  0
  1 22  4  0
  2 20  4  0
  2 27  4  0
  3 12  4  0
  3 23  4  0
  4 25  4  0
  4 28  1  0
  5  8  4  0
  5 17  4  0
  6  7  4  0
  6 16  4  0
  7 18  4  0
  8 27  4  0
  9 13  4  0
  9 23  4  0
 10 11  1  0
 11 14  2  0
 11 27  1  0
 12 19  1  0
 12 24  4  0
 13 24  4  0
 15 18  1  0
 16 25  4  0
 16 26  4  0
 17 20  4  0
 17 28  1  0
 18 21  4  0
 21 26  4  0
 22 26  4  0
M  END
$$$$

 Created by Python create_sdf_string function

 28 57  0  0  0  0  0  0  0  0999 V2000
    4.9267   -8.6388   27.6250 N   0  0  0  0  0  0  0  0  0  0  0  0
    0.1316   -6.3550   27.4463 C   0  0  0  0  0  0  0  0  0  0  0  0
    2.8812   -8.3540   16.1404 C   0  0  0  0  0  0  0  0  0  0  0  0
    4.8456   -6.9512   26.7021 P   0  0  0  0  0  0  0  0  0  0  0  0
    2.0282   -4.6754   26.3784 C   0  0  0  0  0  0  0  0  0  0  0  0
    7.1937   -4.9629   27.9190 C   0  0  0  0  0  0  0  0  0  0  0  0
    8.5670   -5.0383   27.4460 C   0  0  0  0  0  0  0  0  0  0  0  0
    0.7628   -4.4236   26.7985 C   0  0  0  0  0  0  0  0  0  0  0  0
    4.9061   -7.9370   16.2029 C   0  0  0  0  0  0  0  0  0  0  0  0
   -1.7769   -3.5313   26.3316 N   0  0  0  0  0  0  0  0  0  0  0  0
   -1.4663   -4.5644   26.9470 C   0  0  0  0  0  0  0  0  0  0  0  0
    1.7283   -9.5846   15.9302 F   0  0  0  0  0  0  0  0  0  0  0  0
   -2.2680   -5.2549   27.2323 O   0  0  0  0  0  0  0  0  0  0  0  0
    6.5878   -5.6136   27.2189 C   0  0  0  0  0  0  0  0  0  0  0  0
    1.9068   -6.5442   26.9412 C   0  0  0  0  0  0  0  0  0  0  0  0
    9.1633   -6.0939   27.7628 C   0  0  0  0  0  0  0  0  0  0  0  0
   -0.1598  -10.1808   16.9056 O   0  0  0  0  0  0  0  0  0  0  0  0
    1.2520   -7.1115   27.2542 C   0  0  0  0  0  0  0  0  0  0  0  0
    8.3370   -7.3649   27.7339 O   0  0  0  0  0  0  0  0  0  0  0  0
    6.2529   -8.1154   27.7943 N   0  0  0  0  0  0  0  0  0  0  0  0
    3.0329   -6.8242   16.5066 C   0  0  0  0  0  0  0  0  0  0  0  0
    3.5013  -10.7325   16.2251 C   0  0  0  0  0  0  0  0  0  0  0  0
    5.2541   -6.0094   26.8937 N   0  0  0  0  0  0  0  0  0  0  0  0
    7.1463   -7.1680   27.5050 C   0  0  0  0  0  0  0  0  0  0  0  0
   -0.5900   -5.5834   26.9874 C   0  0  0  0  0  0  0  0  0  0  0  0
    3.5984   -7.2315   26.1837 Br  0  0  0  0  0  0  0  0  0  0  0  0
    3.8204  -10.0930   15.8635 He  0  0  0  0  0  0  0  0  0  0  0  0
   10.5075   -6.5140   28.0263 He  0  0  0  0  0  0  0  0  0  0  0  0
  1  4  4  0
  1 20  4  0
  1 21  1  0
  2  7  3  0
  2 13  1  0
  2 18  4  0
  2 25  4  0
  3  6  3  0
  3  7  2  0
  3 22  1  0
  3 24  3  0
  4  5  2  0
  4 16  3  0
  4 23  4  0
  4 25  1  0
  4 26  1  0
  5  8  4  0
  5  9  4  0
  5 15  4  0
  5 22  4  0
  6 13  2  0
  6 15  3  0
  6 25  1  0
  7 15  2  0
  7 16  4  0
  8 25  4  0
  9 21  4  0
  9 25  4  0
 10 11  1  0
 10 24  1  0
 11 13  2  0
 11 17  1  0
 12 13  4  0
 12 17  1  0
 12 18  3  0
 12 21  1  0
 12 22  2  0
 12 24  2  0
 13 26  3  0
 14 15  4  0
 14 19  4  0
 14 22  4  0
 14 23  4  0
 14 24  4  0
 15 18  3  0
 15 26  1  0
 16 19  4  0
 17 20  4  0
 17 22  2  0
 17 23  1  0
 18 19  3  0
 18 25  4  0
 19 24  4  0
 20 21  3  0
 20 24  4  0
 21 22  1  0
 22 26  1  0
M  END
$$$$

 Created by Python create_sdf_string function

 28 30  0  0  0  0  0  0  0  0999 V2000
    5.0312   -8.2690   27.2991 N   0  0  0  0  0  0  0  0  0  0  0  0
   -0.0059   -6.5392   27.4482 C   0  0  0  0  0  0  0  0  0  0  0  0
    2.0887   -8.0620   16.3868 C   0  0  0  0  0  0  0  0  0  0  0  0
    4.5240   -7.0816   26.8374 C   0  0  0  0  0  0  0  0  0  0  0  0
    2.1404   -5.0720   26.4655 C   0  0  0  0  0  0  0  0  0  0  0  0
    7.2929   -4.8464   27.4645 C   0  0  0  0  0  0  0  0  0  0  0  0
    8.6314   -4.9360   27.7321 C   0  0  0  0  0  0  0  0  0  0  0  0
    0.9113   -4.4400   26.5574 C   0  0  0  0  0  0  0  0  0  0  0  0
    4.3847   -8.3125   16.2390 C   0  0  0  0  0  0  0  0  0  0  0  0
   -1.6908   -3.5078   26.3570 N   0  0  0  0  0  0  0  0  0  0  0  0
   -1.5166   -4.6983   26.9404 C   0  0  0  0  0  0  0  0  0  0  0  0
    1.9443   -9.4364   16.4154 C   0  0  0  0  0  0  0  0  0  0  0  0
    4.2819   -9.7249   16.1618 C   0  0  0  0  0  0  0  0  0  0  0  0
   -2.5164   -5.3547   27.4103 O   0  0  0  0  0  0  0  0  0  0  0  0
   10.6467   -6.2990   27.8957 C   0  0  0  0  0  0  0  0  0  0  0  0
    6.5535   -5.9885   27.3549 C   0  0  0  0  0  0  0  0  0  0  0  0
    2.2062   -6.4230   26.6913 C   0  0  0  0  0  0  0  0  0  0  0  0
    9.1947   -6.2014   27.7972 C   0  0  0  0  0  0  0  0  0  0  0  0
    0.7122   -9.9468   16.6112 O   0  0  0  0  0  0  0  0  0  0  0  0
    1.1798   -7.1564   27.2714 C   0  0  0  0  0  0  0  0  0  0  0  0
    8.4388   -7.3292   27.7829 C   0  0  0  0  0  0  0  0  0  0  0  0
    6.3333   -8.3878   27.6801 N   0  0  0  0  0  0  0  0  0  0  0  0
    3.2477   -7.5212   16.3085 C   0  0  0  0  0  0  0  0  0  0  0  0
    3.1059  -10.2723   16.2245 C   0  0  0  0  0  0  0  0  0  0  0  0
    5.2396   -5.9815   26.9695 N   0  0  0  0  0  0  0  0  0  0  0  0
    7.0853   -7.2397   27.6267 C   0  0  0  0  0  0  0  0  0  0  0  0
   -0.1683   -5.2606   27.0108 C   0  0  0  0  0  0  0  0  0  0  0  0
    3.3170   -7.1392   26.1726 C   0  0  0  0  0  0  0  0  0  0  0  0
  1  4  4  0
  1 22  4  0
  2 20  4  0
  2 27  4  0
  3 12  4  0
  3 23  4  0
  4 25  4  0
  4 28  1  0
  5  8  4  0
  5 17  4  0
  6  7  4  0
  6 16  4  0
  7 18  4  0
  8 27  4  0
  9 13  4  0
  9 23  4  0
 10 11  1  0
 11 14  2  0
 11 27  1  0
 12 19  1  0
 12 24  4  0
 13 24  4  0
 15 18  1  0
 16 25  4  0
 16 26  4  0
 17 20  4  0
 17 28  1  0
 18 21  4  0
 21 26  4  0
 22 26  4  0
M  END
$$$$

 Created by Python create_sdf_string function

 28 61  0  0  0  0  0  0  0  0999 V2000
    4.8878   -8.1687   27.1039 N   0  0  0  0  0  0  0  0  0  0  0  0
    2.5781   -7.8420   16.7879 F   0  0  0  0  0  0  0  0  0  0  0  0
    4.4158   -7.1592   27.1105 C   0  0  0  0  0  0  0  0  0  0  0  0
    2.3820   -5.3939   26.5989 C   0  0  0  0  0  0  0  0  0  0  0  0
    6.9866   -5.1844   27.8532 O   0  0  0  0  0  0  0  0  0  0  0  0
    8.4417   -4.9426   27.5819 C   0  0  0  0  0  0  0  0  0  0  0  0
    0.9740   -4.5722   26.3306 C   0  0  0  0  0  0  0  0  0  0  0  0
    4.1133   -8.6892   16.4825 O   0  0  0  0  0  0  0  0  0  0  0  0
   -1.5088   -3.5642   26.1975 N   0  0  0  0  0  0  0  0  0  0  0  0
   -1.4194   -4.5852   26.7832 C   0  0  0  0  0  0  0  0  0  0  0  0
    1.6679   -9.9246   16.6561 C   0  0  0  0  0  0  0  0  0  0  0  0
   -2.3908   -5.4602   27.6178 O   0  0  0  0  0  0  0  0  0  0  0  0
   10.3985   -6.4247   27.7910 C   0  0  0  0  0  0  0  0  0  0  0  0
    6.4953   -6.0436   27.3318 C   0  0  0  0  0  0  0  0  0  0  0  0
    2.1383   -6.4966   26.6573 C   0  0  0  0  0  0  0  0  0  0  0  0
    9.3219   -6.4495   27.8269 C   0  0  0  0  0  0  0  0  0  0  0  0
    0.4749  -10.0646   15.9978 O   0  0  0  0  0  0  0  0  0  0  0  0
    1.1581   -7.1539   27.9483 C   0  0  0  0  0  0  0  0  0  0  0  0
    8.4627   -7.2055   27.7907 C   0  0  0  0  0  0  0  0  0  0  0  0
    6.1575   -8.5088   27.8572 N   0  0  0  0  0  0  0  0  0  0  0  0
    3.1598  -10.0254   17.1955 O   0  0  0  0  0  0  0  0  0  0  0  0
    5.3612   -5.9282   26.8466 N   0  0  0  0  0  0  0  0  0  0  0  0
    6.9435   -6.9282   27.2183 C   0  0  0  0  0  0  0  0  0  0  0  0
   -0.0987   -5.1365   26.9261 C   0  0  0  0  0  0  0  0  0  0  0  0
    3.1565   -6.8760   26.2362 C   0  0  0  0  0  0  0  0  0  0  0  0
   -0.0240   -6.1493   27.6766 He  0  0  0  0  0  0  0  0  0  0  0  0
    3.9448  -10.6237   16.7261 He  0  0  0  0  0  0  0  0  0  0  0  0
    2.3341   -7.4238   15.9896 He  0  0  0  0  0  0  0  0  0  0  0  0
  1  3  4  0
  1 16  2  0
  1 18  4  0
  1 20  4  0
  2  4  1  0
  2 11  4  0
  2 16  3  0
  2 21  1  0
  3 18  1  0
  3 22  4  0
  3 24  3  0
  3 25  1  0
  4  7  4  0
  4 11  4  0
  4 15  4  0
  5  6  4  0
  5  7  3  0
  5 10  3  0
  5 11  4  0
  5 14  4  0
  5 20  4  0
  6 16  4  0
  6 21  3  0
  7  8  2  0
  7 10  2  0
  7 18  3  0
  7 21  2  0
  7 24  4  0
  8 10  1  0
  8 18  2  0
  8 19  1  0
  8 24  4  0
  9 10  1  0
 10 12  2  0
 10 20  4  0
 10 24  1  0
 11 15  2  0
 11 17  1  0
 11 19  3  0
 11 21  1  0
 11 25  2  0
 12 13  3  0
 12 24  1  0
 13 16  1  0
 14 22  4  0
 14 23  4  0
 15 18  4  0
 15 19  2  0
 15 25  1  0
 16 19  4  0
 17 19  2  0
 17 20  4  0
 17 21  4  0
 17 24  2  0
 17 25  4  0
 18 24  2  0
 19 21  2  0
 19 23  4  0
 20 21  2  0
 20 23  4  0
 20 25  1  0
M  END
$$$$

 Created by Python create_sdf_string function

 28 30  0  0  0  0  0  0  0  0999 V2000
    4.9883   -8.3207   27.2101 N   0  0  0  0  0  0  0  0  0  0  0  0
    0.0414   -6.4511   27.7044 C   0  0  0  0  0  0  0  0  0  0  0  0
    1.9021   -8.2921   16.3837 C   0  0  0  0  0  0  0  0  0  0  0  0
    4.4401   -7.1584   26.8324 C   0  0  0  0  0  0  0  0  0  0  0  0
    2.0974   -5.1657   26.3426 C   0  0  0  0  0  0  0  0  0  0  0  0
    7.2106   -4.8948   27.4276 C   0  0  0  0  0  0  0  0  0  0  0  0
    8.5516   -5.0346   27.7180 C   0  0  0  0  0  0  0  0  0  0  0  0
    0.9000   -4.4902   26.4110 C   0  0  0  0  0  0  0  0  0  0  0  0
    4.0921   -8.6620   16.5278 C   0  0  0  0  0  0  0  0  0  0  0  0
   -1.6135   -3.5606   26.1822 N   0  0  0  0  0  0  0  0  0  0  0  0
   -1.4461   -4.6854   26.9352 C   0  0  0  0  0  0  0  0  0  0  0  0
    1.6977   -9.6010   16.6065 C   0  0  0  0  0  0  0  0  0  0  0  0
    3.9740   -9.9866   16.8836 C   0  0  0  0  0  0  0  0  0  0  0  0
   -2.3981   -5.2528   27.4764 O   0  0  0  0  0  0  0  0  0  0  0  0
   10.5896   -6.3713   27.8526 C   0  0  0  0  0  0  0  0  0  0  0  0
    6.4502   -6.0405   27.3447 C   0  0  0  0  0  0  0  0  0  0  0  0
    2.1633   -6.4814   26.7787 C   0  0  0  0  0  0  0  0  0  0  0  0
    9.1705   -6.2639   27.7809 C   0  0  0  0  0  0  0  0  0  0  0  0
    0.4815  -10.0507   16.4138 O   0  0  0  0  0  0  0  0  0  0  0  0
    1.2311   -7.0762   27.5650 C   0  0  0  0  0  0  0  0  0  0  0  0
    8.4031   -7.4103   27.7370 C   0  0  0  0  0  0  0  0  0  0  0  0
    6.2671   -8.4304   27.5389 N   0  0  0  0  0  0  0  0  0  0  0  0
    3.0235   -7.8402   16.2696 C   0  0  0  0  0  0  0  0  0  0  0  0
    2.7682  -10.4075   16.9471 C   0  0  0  0  0  0  0  0  0  0  0  0
    5.1284   -6.0225   26.9973 N   0  0  0  0  0  0  0  0  0  0  0  0
    7.0322   -7.3033   27.5706 C   0  0  0  0  0  0  0  0  0  0  0  0
   -0.1238   -5.2336   27.0458 C   0  0  0  0  0  0  0  0  0  0  0  0
    3.1545   -7.2762   26.2522 C   0  0  0  0  0  0  0  0  0  0  0  0
  1  4  4  0
  1 22  4  0
  2 20  4  0
  2 27  4  0
  3 12  4  0
  3 23  4  0
  4 25  4  0
  4 28  1  0
  5  8  4  0
  5 17  4  0
  6  7  4  0
  6 16  4  0
  7 18  4  0
  8 27  4  0
  9 13  4  0
  9 23  4  0
 10 11  1  0
 11 14  2  0
 11 27  1  0
 12 19  1  0
 12 24  4  0
 13 24  4  0
 15 18  1  0
 16 25  4  0
 16 26  4  0
 17 20  4  0
 17 28  1  0
 18 21  4  0
 21 26  4  0
 22 26  4  0
M  END
$$$$

 Created by Python create_sdf_string function

 28 59  0  0  0  0  0  0  0  0999 V2000
    5.3626   -8.2430   27.3575 N   0  0  0  0  0  0  0  0  0  0  0  0
   -0.0312   -6.4682   27.8064 N   0  0  0  0  0  0  0  0  0  0  0  0
    1.8592   -8.7359   16.4562 C   0  0  0  0  0  0  0  0  0  0  0  0
    4.5081   -6.9694   26.8025 C   0  0  0  0  0  0  0  0  0  0  0  0
    2.0348   -4.8575   26.3294 B   0  0  0  0  0  0  0  0  0  0  0  0
    7.2165   -4.6444   27.7822 C   0  0  0  0  0  0  0  0  0  0  0  0
    8.5712   -5.0168   27.5984 C   0  0  0  0  0  0  0  0  0  0  0  0
    0.5622   -4.2387   26.0854 Cl  0  0  0  0  0  0  0  0  0  0  0  0
    4.1782   -8.8710   16.7143 C   0  0  0  0  0  0  0  0  0  0  0  0
   -1.6262   -3.4943   25.8442 N   0  0  0  0  0  0  0  0  0  0  0  0
   -1.3322   -4.2362   27.0576 C   0  0  0  0  0  0  0  0  0  0  0  0
    1.7682   -8.8034   16.1997 C   0  0  0  0  0  0  0  0  0  0  0  0
    3.6524   -9.7989   16.6772 C   0  0  0  0  0  0  0  0  0  0  0  0
   -2.4879   -5.4194   27.3957 O   0  0  0  0  0  0  0  0  0  0  0  0
   10.6414   -6.3383   28.0889 C   0  0  0  0  0  0  0  0  0  0  0  0
    6.2989   -5.9025   27.4602 C   0  0  0  0  0  0  0  0  0  0  0  0
    2.3647   -6.1736   26.8612 C   0  0  0  0  0  0  0  0  0  0  0  0
    9.4103   -6.2408   27.7528 C   0  0  0  0  0  0  0  0  0  0  0  0
    0.2845   -9.8730   16.6421 O   0  0  0  0  0  0  0  0  0  0  0  0
    0.9493   -7.5850   27.3274 C   0  0  0  0  0  0  0  0  0  0  0  0
    8.5063   -7.2615   27.7175 C   0  0  0  0  0  0  0  0  0  0  0  0
    6.1066   -8.4721   27.7437 N   0  0  0  0  0  0  0  0  0  0  0  0
    3.6550   -7.5633   16.2629 C   0  0  0  0  0  0  0  0  0  0  0  0
    3.0308  -10.3096   17.3602 C   0  0  0  0  0  0  0  0  0  0  0  0
    5.1638   -5.8148   27.0942 N   0  0  0  0  0  0  0  0  0  0  0  0
    7.1184   -7.0084   27.5186 C   0  0  0  0  0  0  0  0  0  0  0  0
   -0.4112   -5.1493   26.8833 C   0  0  0  0  0  0  0  0  0  0  0  0
    3.6886   -7.1410   26.0950 C   0  0  0  0  0  0  0  0  0  0  0  0
  1  4  4  0
  1 22  4  0
  2 12  1  0
  2 20  4  0
  2 27  4  0
  3  4  3  0
  3 12  3  0
  3 22  1  0
  3 23  4  0
  3 27  4  0
  3 28  3  0
  4 25  4  0
  4 28  1  0
  5  8  4  0
  5 12  4  0
  5 13  3  0
  5 17  4  0
  6 12  3  0
  6 19  2  0
  6 23  2  0
  6 25  3  0
  6 27  1  0
  7 11  2  0
  7 13  1  0
  7 18  4  0
  8 19  2  0
  9 11  3  0
  9 13  4  0
  9 15  4  0
  9 18  2  0
  9 23  4  0
  9 26  1  0
 10 11  1  0
 10 12  2  0
 10 24  3  0
 10 25  1  0
 11 13  1  0
 11 14  2  0
 11 27  1  0
 12 14  1  0
 12 15  3  0
 12 19  1  0
 12 24  4  0
 12 26  4  0
 13 17  3  0
 13 22  1  0
 13 24  4  0
 16 25  4  0
 16 26  4  0
 17 20  4  0
 17 28  1  0
 18 21  4  0
 18 24  4  0
 19 24  2  0
 21 22  1  0
 21 24  3  0
 22 26  4  0
 22 28  3  0
 24 28  4  0
M  END
$$$$

 Created by Python create_sdf_string function

 28 30  0  0  0  0  0  0  0  0999 V2000
    5.0569   -8.2292   27.1638 N   0  0  0  0  0  0  0  0  0  0  0  0
   -0.0205   -6.4348   27.4767 C   0  0  0  0  0  0  0  0  0  0  0  0
    2.0155   -8.0852   16.2707 C   0  0  0  0  0  0  0  0  0  0  0  0
    4.5050   -7.0434   26.8405 C   0  0  0  0  0  0  0  0  0  0  0  0
    2.0618   -5.0774   26.2614 C   0  0  0  0  0  0  0  0  0  0  0  0
    7.2778   -4.7962   27.5124 C   0  0  0  0  0  0  0  0  0  0  0  0
    8.6468   -4.9216   27.7252 C   0  0  0  0  0  0  0  0  0  0  0  0
    0.8535   -4.3934   26.3411 C   0  0  0  0  0  0  0  0  0  0  0  0
    4.2899   -8.6789   16.6061 C   0  0  0  0  0  0  0  0  0  0  0  0
   -1.6973   -3.5487   26.0902 N   0  0  0  0  0  0  0  0  0  0  0  0
   -1.5376   -4.6524   26.8412 C   0  0  0  0  0  0  0  0  0  0  0  0
    1.6537   -9.3526   16.6661 C   0  0  0  0  0  0  0  0  0  0  0  0
    3.9254   -9.9297   17.0256 C   0  0  0  0  0  0  0  0  0  0  0  0
   -2.4462   -5.2091   27.4422 O   0  0  0  0  0  0  0  0  0  0  0  0
   10.6867   -6.2859   27.9883 C   0  0  0  0  0  0  0  0  0  0  0  0
    6.5108   -5.9527   27.3948 C   0  0  0  0  0  0  0  0  0  0  0  0
    2.1681   -6.3841   26.6401 C   0  0  0  0  0  0  0  0  0  0  0  0
    9.2365   -6.1565   27.8262 C   0  0  0  0  0  0  0  0  0  0  0  0
    0.3632   -9.6633   16.6736 O   0  0  0  0  0  0  0  0  0  0  0  0
    1.1937   -7.0210   27.3265 C   0  0  0  0  0  0  0  0  0  0  0  0
    8.4632   -7.2973   27.7745 C   0  0  0  0  0  0  0  0  0  0  0  0
    6.3468   -8.3408   27.5611 N   0  0  0  0  0  0  0  0  0  0  0  0
    3.3523   -7.7641   16.2177 C   0  0  0  0  0  0  0  0  0  0  0  0
    2.6148  -10.2557   17.0511 C   0  0  0  0  0  0  0  0  0  0  0  0
    5.1904   -5.9215   27.0745 N   0  0  0  0  0  0  0  0  0  0  0  0
    7.1029   -7.2082   27.5910 C   0  0  0  0  0  0  0  0  0  0  0  0
   -0.1705   -5.1922   26.9055 C   0  0  0  0  0  0  0  0  0  0  0  0
    3.2749   -7.1244   26.1726 C   0  0  0  0  0  0  0  0  0  0  0  0
  1  4  4  0
  1 22  4  0
  2 20  4  0
  2 27  4  0
  3 12  4  0
  3 23  4  0
  4 25  4  0
  4 28  1  0
  5  8  4  0
  5 17  4  0
  6  7  4  0
  6 16  4  0
  7 18  4  0
  8 27  4  0
  9 13  4  0
  9 23  4  0
 10 11  1  0
 11 14  2  0
 11 27  1  0
 12 19  1  0
 12 24  4  0
 13 24  4  0
 15 18  1  0
 16 25  4  0
 16 26  4  0
 17 20  4  0
 17 28  1  0
 18 21  4  0
 21 26  4  0
 22 26  4  0
M  END
$$$$

 Created by Python create_sdf_string function

 28 45  0  0  0  0  0  0  0  0999 V2000
    0.2107   -6.3172   27.4580 C   0  0  0  0  0  0  0  0  0  0  0  0
    2.0810   -8.2257   16.2724 O   0  0  0  0  0  0  0  0  0  0  0  0
    1.7189   -5.2308   26.0666 C   0  0  0  0  0  0  0  0  0  0  0  0
    7.4459   -5.7292   27.4418 C   0  0  0  0  0  0  0  0  0  0  0  0
    8.9455   -4.9189   27.4725 C   0  0  0  0  0  0  0  0  0  0  0  0
    4.0776   -9.0098   16.0206 C   0  0  0  0  0  0  0  0  0  0  0  0
   -1.3722   -4.3513   26.7725 C   0  0  0  0  0  0  0  0  0  0  0  0
   -2.4483   -5.2351   27.4491 O   0  0  0  0  0  0  0  0  0  0  0  0
   10.8144   -6.2858   28.1469 C   0  0  0  0  0  0  0  0  0  0  0  0
    6.6513   -6.0856   27.1220 C   0  0  0  0  0  0  0  0  0  0  0  0
    2.3368   -6.6373   26.5372 C   0  0  0  0  0  0  0  0  0  0  0  0
    9.2998   -6.0486   27.7628 C   0  0  0  0  0  0  0  0  0  0  0  0
    0.3764   -9.7081   16.8418 O   0  0  0  0  0  0  0  0  0  0  0  0
    1.2608   -6.5419   27.3723 C   0  0  0  0  0  0  0  0  0  0  0  0
    8.5807   -7.2715   28.0777 C   0  0  0  0  0  0  0  0  0  0  0  0
    6.2457   -8.5425   27.5475 N   0  0  0  0  0  0  0  0  0  0  0  0
    3.6428   -7.8886   16.2299 C   0  0  0  0  0  0  0  0  0  0  0  0
    3.4137  -10.4327   16.9683 C   0  0  0  0  0  0  0  0  0  0  0  0
    5.1522   -5.9233   27.1395 N   0  0  0  0  0  0  0  0  0  0  0  0
    7.1438   -7.1858   27.4457 C   0  0  0  0  0  0  0  0  0  0  0  0
   -0.1511   -5.1583   26.8645 C   0  0  0  0  0  0  0  0  0  0  0  0
    3.4977   -7.0505   26.1778 C   0  0  0  0  0  0  0  0  0  0  0  0
    4.6522   -8.3417   27.3022 He  0  0  0  0  0  0  0  0  0  0  0  0
    4.6924   -7.2149   26.5204 He  0  0  0  0  0  0  0  0  0  0  0  0
    1.1251   -4.4202   26.2300 He  0  0  0  0  0  0  0  0  0  0  0  0
   -1.5792   -3.5149   26.0525 He  0  0  0  0  0  0  0  0  0  0  0  0
    0.9592   -9.1233   16.1713 He  0  0  0  0  0  0  0  0  0  0  0  0
    3.9913   -9.8589   17.8110 He  0  0  0  0  0  0  0  0  0  0  0  0
  1 14  4  0
  1 19  4  0
  1 21  4  0
  2  3  2  0
  2  4  1  0
  2  6  2  0
  2  7  1  0
  2 17  4  0
  2 22  3  0
  3  7  4  0
  3 10  1  0
  3 11  4  0
  3 12  1  0
  3 22  2  0
  4  5  4  0
  4 10  4  0
  4 12  1  0
  4 13  1  0
  6  8  3  0
  6 13  3  0
  6 14  1  0
  7  8  2  0
  7 18  3  0
  7 21  1  0
  8 14  3  0
  8 16  1  0
  9 12  1  0
 10 18  4  0
 10 19  4  0
 10 20  4  0
 11 14  4  0
 11 18  4  0
 11 19  4  0
 12 15  4  0
 13 15  2  0
 13 22  2  0
 14 15  3  0
 14 16  1  0
 14 17  2  0
 14 19  3  0
 15 20  4  0
 16 20  4  0
 17 21  3  0
 18 22  3  0
 20 22  2  0
M  END
$$$$

 Created by Python create_sdf_string function

 28 30  0  0  0  0  0  0  0  0999 V2000
    5.0981   -8.3701   27.1615 C   0  0  0  0  0  0  0  0  0  0  0  0
    0.0924   -6.3837   27.5867 C   0  0  0  0  0  0  0  0  0  0  0  0
    2.0514   -8.1755   16.1022 C   0  0  0  0  0  0  0  0  0  0  0  0
    4.5754   -7.1526   26.7396 C   0  0  0  0  0  0  0  0  0  0  0  0
    2.1310   -5.1530   26.1729 C   0  0  0  0  0  0  0  0  0  0  0  0
    7.4141   -4.9719   27.2147 C   0  0  0  0  0  0  0  0  0  0  0  0
    8.7612   -5.0878   27.5480 C   0  0  0  0  0  0  0  0  0  0  0  0
    0.9041   -4.4685   26.2168 C   0  0  0  0  0  0  0  0  0  0  0  0
    4.2961   -8.7767   16.5866 C   0  0  0  0  0  0  0  0  0  0  0  0
   -1.6101   -3.4762   26.1331 N   0  0  0  0  0  0  0  0  0  0  0  0
   -1.4367   -4.5977   26.8500 C   0  0  0  0  0  0  0  0  0  0  0  0
    1.6444   -9.3719   16.6809 C   0  0  0  0  0  0  0  0  0  0  0  0
    3.9162   -9.9955   17.1682 C   0  0  0  0  0  0  0  0  0  0  0  0
   -2.3776   -5.1453   27.4198 O   0  0  0  0  0  0  0  0  0  0  0  0
   10.7852   -6.4045   28.1899 C   0  0  0  0  0  0  0  0  0  0  0  0
    6.6443   -6.0970   27.2255 C   0  0  0  0  0  0  0  0  0  0  0  0
    2.2669   -6.4537   26.6087 C   0  0  0  0  0  0  0  0  0  0  0  0
    9.3424   -6.2950   27.8747 C   0  0  0  0  0  0  0  0  0  0  0  0
    0.3670   -9.6832   16.7033 O   0  0  0  0  0  0  0  0  0  0  0  0
    1.3244   -7.0374   27.3646 C   0  0  0  0  0  0  0  0  0  0  0  0
    8.5402   -7.4312   27.8946 C   0  0  0  0  0  0  0  0  0  0  0  0
    6.3861   -8.4590   27.6095 N   0  0  0  0  0  0  0  0  0  0  0  0
    3.4311   -7.9081   16.0314 C   0  0  0  0  0  0  0  0  0  0  0  0
    2.5698  -10.2615   17.2177 C   0  0  0  0  0  0  0  0  0  0  0  0
    5.2736   -6.0740   26.8256 N   0  0  0  0  0  0  0  0  0  0  0  0
    7.1760   -7.3435   27.5999 C   0  0  0  0  0  0  0  0  0  0  0  0
   -0.1092   -5.1629   26.8993 C   0  0  0  0  0  0  0  0  0  0  0  0
    3.3425   -7.2180   26.1275 C   0  0  0  0  0  0  0  0  0  0  0  0
  1  4  4  0
  1 22  4  0
  2 20  4  0
  2 27  4  0
  3 12  4  0
  3 23  4  0
  4 25  4  0
  4 28  1  0
  5  8  4  0
  5 17  4  0
  6  7  4  0
  6 16  4  0
  7 18  4  0
  8 27  4  0
  9 13  4  0
  9 23  4  0
 10 11  1  0
 11 14  2  0
 11 27  1  0
 12 19  1  0
 12 24  4  0
 13 24  4  0
 15 18  1  0
 16 25  4  0
 16 26  4  0
 17 20  4  0
 17 28  1  0
 18 21  4  0
 21 26  4  0
 22 26  4  0
M  END
$$$$

 Created by Python create_sdf_string function

 28 49  0  0  0  0  0  0  0  0999 V2000
    5.2438   -8.7287   26.9665 C   0  0  0  0  0  0  0  0  0  0  0  0
   -0.0124   -6.2858   27.6209 C   0  0  0  0  0  0  0  0  0  0  0  0
    2.1950   -7.8808   16.0883 C   0  0  0  0  0  0  0  0  0  0  0  0
    4.3633   -7.3250   26.7028 C   0  0  0  0  0  0  0  0  0  0  0  0
    1.8929   -5.3189   26.0060 C   0  0  0  0  0  0  0  0  0  0  0  0
    7.2086   -4.7451   27.6149 C   0  0  0  0  0  0  0  0  0  0  0  0
    8.9114   -4.8811   27.8823 C   0  0  0  0  0  0  0  0  0  0  0  0
    1.0423   -4.3896   26.2770 C   0  0  0  0  0  0  0  0  0  0  0  0
    4.3843   -8.1852   16.6067 C   0  0  0  0  0  0  0  0  0  0  0  0
   -1.3750   -3.5577   26.1163 N   0  0  0  0  0  0  0  0  0  0  0  0
    1.6914   -9.0986   16.4499 C   0  0  0  0  0  0  0  0  0  0  0  0
    3.9165   -9.3755   17.4085 C   0  0  0  0  0  0  0  0  0  0  0  0
   -2.6632   -4.9592   27.4463 O   0  0  0  0  0  0  0  0  0  0  0  0
    6.8223   -6.1848   27.1264 C   0  0  0  0  0  0  0  0  0  0  0  0
    2.3596   -6.3500   26.4874 C   0  0  0  0  0  0  0  0  0  0  0  0
    9.5711   -6.7778   27.7945 C   0  0  0  0  0  0  0  0  0  0  0  0
    0.8381   -9.2833   16.5346 O   0  0  0  0  0  0  0  0  0  0  0  0
    0.9677   -7.6479   27.6889 C   0  0  0  0  0  0  0  0  0  0  0  0
    8.6011   -7.4133   27.5786 C   0  0  0  0  0  0  0  0  0  0  0  0
    6.4466   -8.2458   27.3581 N   0  0  0  0  0  0  0  0  0  0  0  0
    3.8105   -8.0492   15.9064 C   0  0  0  0  0  0  0  0  0  0  0  0
    5.0816   -6.1086   26.7214 N   0  0  0  0  0  0  0  0  0  0  0  0
    7.3399   -7.3562   27.9544 C   0  0  0  0  0  0  0  0  0  0  0  0
   -0.2054   -4.9360   26.8117 C   0  0  0  0  0  0  0  0  0  0  0  0
    3.5472   -7.4265   25.8847 C   0  0  0  0  0  0  0  0  0  0  0  0
   -1.3505   -4.6213   26.9277 He  0  0  0  0  0  0  0  0  0  0  0  0
   10.7407   -6.0566   28.0892 He  0  0  0  0  0  0  0  0  0  0  0  0
    3.2060  -10.5412   17.8059 He  0  0  0  0  0  0  0  0  0  0  0  0
  1  3  3  0
  1  5  1  0
  1 20  4  0
  1 21  1  0
  1 22  2  0
  2  3  2  0
  2  9  1  0
  2 10  2  0
  2 15  1  0
  2 16  1  0
  2 18  4  0
  2 24  4  0
  3  6  3  0
  3 11  4  0
  3 21  4  0
  4 20  1  0
  4 22  4  0
  4 25  1  0
  5  8  4  0
  5  9  1  0
  5 15  4  0
  5 21  3  0
  6  7  4  0
  6 21  4  0
  7 11  4  0
  7 16  4  0
  7 18  2  0
  8 14  1  0
  8 24  4  0
  8 25  3  0
  9 12  4  0
  9 18  1  0
  9 21  4  0
  9 23  4  0
 10 15  1  0
 11 17  1  0
 12 13  4  0
 12 22  2  0
 13 16  2  0
 13 18  3  0
 14 20  4  0
 14 22  4  0
 14 23  4  0
 15 25  1  0
 16 17  2  0
 16 19  4  0
 17 20  3  0
 19 23  4  0
 20 23  4  0
M  END
$$$$

 Created by Python create_sdf_string function

 28 30  0  0  0  0  0  0  0  0999 V2000
    5.2492   -8.5038   26.9325 C   0  0  0  0  0  0  0  0  0  0  0  0
    0.0517   -6.4678   27.5517 C   0  0  0  0  0  0  0  0  0  0  0  0
    2.2937   -8.0786   15.9282 C   0  0  0  0  0  0  0  0  0  0  0  0
    4.5906   -7.3306   26.6421 C   0  0  0  0  0  0  0  0  0  0  0  0
    2.1889   -5.2881   26.1891 C   0  0  0  0  0  0  0  0  0  0  0  0
    7.2961   -4.9907   27.4534 C   0  0  0  0  0  0  0  0  0  0  0  0
    8.6769   -5.0451   27.7473 C   0  0  0  0  0  0  0  0  0  0  0  0
    0.9781   -4.5513   26.2859 C   0  0  0  0  0  0  0  0  0  0  0  0
    4.5676   -8.4295   16.7050 C   0  0  0  0  0  0  0  0  0  0  0  0
   -1.4925   -3.4454   26.1459 N   0  0  0  0  0  0  0  0  0  0  0  0
   -1.4101   -4.5905   26.8932 C   0  0  0  0  0  0  0  0  0  0  0  0
    1.9158   -9.1860   16.6726 C   0  0  0  0  0  0  0  0  0  0  0  0
    4.1694   -9.5395   17.3988 C   0  0  0  0  0  0  0  0  0  0  0  0
   -2.4287   -5.0658   27.4601 O   0  0  0  0  0  0  0  0  0  0  0  0
   10.7693   -6.2899   28.0720 C   0  0  0  0  0  0  0  0  0  0  0  0
    6.6208   -6.1892   27.2499 C   0  0  0  0  0  0  0  0  0  0  0  0
    2.2433   -6.5889   26.5915 C   0  0  0  0  0  0  0  0  0  0  0  0
    9.3487   -6.2533   27.8707 C   0  0  0  0  0  0  0  0  0  0  0  0
    0.6248   -9.5329   16.6777 O   0  0  0  0  0  0  0  0  0  0  0  0
    1.2330   -7.1649   27.3463 C   0  0  0  0  0  0  0  0  0  0  0  0
    8.6274   -7.4331   27.7506 C   0  0  0  0  0  0  0  0  0  0  0  0
    6.5571   -8.5450   27.3954 N   0  0  0  0  0  0  0  0  0  0  0  0
    3.6469   -7.6945   15.9699 C   0  0  0  0  0  0  0  0  0  0  0  0
    2.8098   -9.9352   17.4039 C   0  0  0  0  0  0  0  0  0  0  0  0
    5.2817   -6.2217   26.8679 N   0  0  0  0  0  0  0  0  0  0  0  0
    7.2747   -7.4163   27.4579 C   0  0  0  0  0  0  0  0  0  0  0  0
   -0.0897   -5.2348   26.9303 C   0  0  0  0  0  0  0  0  0  0  0  0
    3.2848   -7.3804   26.1343 C   0  0  0  0  0  0  0  0  0  0  0  0
  1  4  4  0
  1 22  4  0
  2 20  4  0
  2 27  4  0
  3 12  4  0
  3 23  4  0
  4 25  4  0
  4 28  1  0
  5  8  4  0
  5 17  4  0
  6  7  4  0
  6 16  4  0
  7 18  4  0
  8 27  4  0
  9 13  4  0
  9 23  4  0
 10 11  1  0
 11 14  2  0
 11 27  1  0
 12 19  1  0
 12 24  4  0
 13 24  4  0
 15 18  1  0
 16 25  4  0
 16 26  4  0
 17 20  4  0
 17 28  1  0
 18 21  4  0
 21 26  4  0
 22 26  4  0
M  END
$$$$

 Created by Python create_sdf_string function

 28 52  0  0  0  0  0  0  0  0999 V2000
    5.2000   -8.4978   27.0416 C   0  0  0  0  0  0  0  0  0  0  0  0
    0.0438   -6.5899   27.6258 C   0  0  0  0  0  0  0  0  0  0  0  0
    2.1487   -7.9150   16.5139 C   0  0  0  0  0  0  0  0  0  0  0  0
    4.7496   -7.4526   26.3819 C   0  0  0  0  0  0  0  0  0  0  0  0
    2.2951   -5.3837   26.4201 C   0  0  0  0  0  0  0  0  0  0  0  0
    8.6494   -5.3829   27.8941 C   0  0  0  0  0  0  0  0  0  0  0  0
    0.8513   -4.6287   26.3004 Br  0  0  0  0  0  0  0  0  0  0  0  0
    4.5012   -8.6726   16.4598 C   0  0  0  0  0  0  0  0  0  0  0  0
   -1.3907   -3.4298   26.1441 N   0  0  0  0  0  0  0  0  0  0  0  0
   -1.1936   -4.7065   27.1168 C   0  0  0  0  0  0  0  0  0  0  0  0
    1.6322   -9.0106   16.4540 C   0  0  0  0  0  0  0  0  0  0  0  0
    4.5885   -9.4047   16.9627 C   0  0  0  0  0  0  0  0  0  0  0  0
   10.6165   -6.3728   28.0384 C   0  0  0  0  0  0  0  0  0  0  0  0
    6.7077   -6.1876   27.1848 C   0  0  0  0  0  0  0  0  0  0  0  0
    2.2190   -6.6274   26.3492 C   0  0  0  0  0  0  0  0  0  0  0  0
    9.1315   -6.1974   27.8386 C   0  0  0  0  0  0  0  0  0  0  0  0
    0.5986   -9.5243   16.7567 F   0  0  0  0  0  0  0  0  0  0  0  0
    1.2265   -7.4099   27.2334 C   0  0  0  0  0  0  0  0  0  0  0  0
    8.8009   -7.1680   27.7161 C   0  0  0  0  0  0  0  0  0  0  0  0
    6.6960   -8.5353   27.6578 N   0  0  0  0  0  0  0  0  0  0  0  0
    3.4262   -8.1208   15.7895 N   0  0  0  0  0  0  0  0  0  0  0  0
    2.8185   -9.9653   17.4283 O   0  0  0  0  0  0  0  0  0  0  0  0
    5.2594   -6.0833   26.7433 N   0  0  0  0  0  0  0  0  0  0  0  0
    7.2921   -7.3683   27.5780 C   0  0  0  0  0  0  0  0  0  0  0  0
   -0.1697   -4.9614   26.7408 C   0  0  0  0  0  0  0  0  0  0  0  0
    3.6262   -7.4991   26.0015 C   0  0  0  0  0  0  0  0  0  0  0  0
    7.1629   -4.6795   27.3614 He  0  0  0  0  0  0  0  0  0  0  0  0
   -2.5185   -4.9530   27.3819 He  0  0  0  0  0  0  0  0  0  0  0  0
  1  4  4  0
  1 20  4  0
  2  4  4  0
  2 18  4  0
  2 25  4  0
  3 10  1  0
  3 11  4  0
  3 20  1  0
  3 21  4  0
  3 24  2  0
  4 20  3  0
  4 23  4  0
  4 26  1  0
  5  7  4  0
  5 15  4  0
  6 11  1  0
  6 16  4  0
  6 20  4  0
  6 21  2  0
  7 12  3  0
  7 22  1  0
  8 12  4  0
  8 15  3  0
  8 21  4  0
  9 10  1  0
 10 11  4  0
 10 20  4  0
 10 25  1  0
 11 16  2  0
 11 21  2  0
 11 22  4  0
 11 24  3  0
 12 20  1  0
 12 22  3  0
 13 14  4  0
 13 16  1  0
 14 19  1  0
 14 21  2  0
 14 23  4  0
 14 24  4  0
 15 16  3  0
 15 18  4  0
 15 22  4  0
 15 26  1  0
 16 18  1  0
 16 19  4  0
 17 22  2  0
 18 19  4  0
 18 23  1  0
 19 24  4  0
 20 24  4  0
 21 24  3  0
M  END
$$$$

 Created by Python create_sdf_string function

 28 30  0  0  0  0  0  0  0  0999 V2000
    5.2847   -8.5398   26.9736 C   0  0  0  0  0  0  0  0  0  0  0  0
    0.0997   -6.5999   27.4076 C   0  0  0  0  0  0  0  0  0  0  0  0
    2.1795   -8.0160   16.1007 C   0  0  0  0  0  0  0  0  0  0  0  0
    4.6550   -7.3829   26.6145 C   0  0  0  0  0  0  0  0  0  0  0  0
    2.2551   -5.3517   26.2638 C   0  0  0  0  0  0  0  0  0  0  0  0
    7.2601   -4.9723   27.3644 C   0  0  0  0  0  0  0  0  0  0  0  0
    8.6017   -5.0030   27.6950 C   0  0  0  0  0  0  0  0  0  0  0  0
    1.0919   -4.6024   26.4138 C   0  0  0  0  0  0  0  0  0  0  0  0
    4.4718   -8.5316   16.3540 C   0  0  0  0  0  0  0  0  0  0  0  0
   -1.3644   -3.4611   26.2326 N   0  0  0  0  0  0  0  0  0  0  0  0
   -1.3150   -4.6209   26.9076 C   0  0  0  0  0  0  0  0  0  0  0  0
    1.8639   -9.1642   16.8029 C   0  0  0  0  0  0  0  0  0  0  0  0
    4.1976   -9.6423   17.1081 C   0  0  0  0  0  0  0  0  0  0  0  0
   -2.3189   -5.1306   27.4657 O   0  0  0  0  0  0  0  0  0  0  0  0
   10.7173   -6.2200   28.1143 C   0  0  0  0  0  0  0  0  0  0  0  0
    6.6003   -6.1795   27.1769 C   0  0  0  0  0  0  0  0  0  0  0  0
    2.3138   -6.6755   26.5682 C   0  0  0  0  0  0  0  0  0  0  0  0
    9.2803   -6.2075   27.8687 C   0  0  0  0  0  0  0  0  0  0  0  0
    0.5482   -9.4609   16.9444 F   0  0  0  0  0  0  0  0  0  0  0  0
    1.2704   -7.2962   27.2127 C   0  0  0  0  0  0  0  0  0  0  0  0
    8.5981   -7.3861   27.7931 C   0  0  0  0  0  0  0  0  0  0  0  0
    6.5642   -8.5763   27.4499 N   0  0  0  0  0  0  0  0  0  0  0  0
    3.5002   -7.7236   15.9077 C   0  0  0  0  0  0  0  0  0  0  0  0
    2.8415   -9.9805   17.3507 C   0  0  0  0  0  0  0  0  0  0  0  0
    5.3208   -6.2408   26.7460 N   0  0  0  0  0  0  0  0  0  0  0  0
    7.2563   -7.4133   27.4819 C   0  0  0  0  0  0  0  0  0  0  0  0
   -0.0170   -5.3053   26.9390 C   0  0  0  0  0  0  0  0  0  0  0  0
    3.3629   -7.4676   26.0753 C   0  0  0  0  0  0  0  0  0  0  0  0
  1  4  4  0
  1 22  4  0
  2 20  4  0
  2 27  4  0
  3 12  4  0
  3 23  4  0
  4 25  4  0
  4 28  1  0
  5  8  4  0
  5 17  4  0
  6  7  4  0
  6 16  4  0
  7 18  4  0
  8 27  4  0
  9 13  4  0
  9 23  4  0
 10 11  1  0
 11 14  2  0
 11 27  1  0
 12 19  1  0
 12 24  4  0
 13 24  4  0
 15 18  1  0
 16 25  4  0
 16 26  4  0
 17 20  4  0
 17 28  1  0
 18 21  4  0
 21 26  4  0
 22 26  4  0
M  END
$$$$

 Created by Python create_sdf_string function

 28 55  0  0  0  0  0  0  0  0999 V2000
    5.3222   -8.3671   26.6381 C   0  0  0  0  0  0  0  0  0  0  0  0
   -0.1240   -6.8414   27.2048 C   0  0  0  0  0  0  0  0  0  0  0  0
    4.6434   -7.3391   26.2544 C   0  0  0  0  0  0  0  0  0  0  0  0
    2.3929   -5.5277   26.4063 C   0  0  0  0  0  0  0  0  0  0  0  0
    6.8847   -4.7815   27.2623 C   0  0  0  0  0  0  0  0  0  0  0  0
    8.6381   -5.0653   27.6087 C   0  0  0  0  0  0  0  0  0  0  0  0
    0.9089   -4.4176   26.4005 C   0  0  0  0  0  0  0  0  0  0  0  0
    4.7479   -8.4306   16.3260 S   0  0  0  0  0  0  0  0  0  0  0  0
   -1.7779   -3.3040   26.1083 N   0  0  0  0  0  0  0  0  0  0  0  0
   -1.1993   -4.5596   27.1845 C   0  0  0  0  0  0  0  0  0  0  0  0
    4.1113   -9.9065   17.1861 C   0  0  0  0  0  0  0  0  0  0  0  0
   -2.3172   -5.0766   27.6236 O   0  0  0  0  0  0  0  0  0  0  0  0
   10.6600   -6.4621   28.0583 C   0  0  0  0  0  0  0  0  0  0  0  0
    6.4805   -6.0433   27.3053 C   0  0  0  0  0  0  0  0  0  0  0  0
    2.1869   -6.5453   26.5176 C   0  0  0  0  0  0  0  0  0  0  0  0
    9.3006   -6.1989   28.1938 C   0  0  0  0  0  0  0  0  0  0  0  0
    0.2530   -8.9831   17.0593 F   0  0  0  0  0  0  0  0  0  0  0  0
    1.2113   -7.6355   27.8573 C   0  0  0  0  0  0  0  0  0  0  0  0
    8.8066   -7.3076   27.7935 C   0  0  0  0  0  0  0  0  0  0  0  0
    6.6600   -8.4858   27.8041 N   0  0  0  0  0  0  0  0  0  0  0  0
    3.4938   -7.7029   15.8337 C   0  0  0  0  0  0  0  0  0  0  0  0
    3.0723  -10.1822   17.4331 C   0  0  0  0  0  0  0  0  0  0  0  0
    5.3817   -6.0725   26.6181 N   0  0  0  0  0  0  0  0  0  0  0  0
    7.2972   -7.3019   27.3587 C   0  0  0  0  0  0  0  0  0  0  0  0
    0.0220   -5.2472   26.8522 C   0  0  0  0  0  0  0  0  0  0  0  0
    3.1400   -7.4225   26.3873 C   0  0  0  0  0  0  0  0  0  0  0  0
    2.4684   -7.6905   15.9941 He  0  0  0  0  0  0  0  0  0  0  0  0
    1.9452   -8.8872   16.6956 He  0  0  0  0  0  0  0  0  0  0  0  0
  1  2  3  0
  1  3  4  0
  1 20  4  0
  1 22  1  0
  2 11  4  0
  2 13  1  0
  2 18  4  0
  2 24  1  0
  3 23  4  0
  3 26  1  0
  4  5  3  0
  4  7  4  0
  4 15  4  0
  4 18  1  0
  4 20  2  0
  4 26  1  0
  5  6  4  0
  5 14  4  0
  5 17  3  0
  5 21  1  0
  5 22  2  0
  6 16  4  0
  7 17  2  0
  7 22  2  0
  7 25  4  0
  8 11  1  0
  8 19  1  0
  8 22  4  0
  9 10  1  0
  9 12  3  0
 10 12  2  0
 10 17  2  0
 10 18  1  0
 11 22  3  0
 13 16  1  0
 13 24  3  0
 14 23  4  0
 14 24  4  0
 15 18  4  0
 15 21  1  0
 15 25  2  0
 15 26  1  0
 16 17  4  0
 16 19  4  0
 16 23  4  0
 17 18  3  0
 17 20  1  0
 17 22  4  0
 17 25  4  0
 20 24  4  0
 21 23  4  0
 21 24  3  0
 22 26  3  0
 23 26  3  0
 24 25  1  0
M  END
$$$$

 Created by Python create_sdf_string function

 28 30  0  0  0  0  0  0  0  0999 V2000
    5.3024   -8.4790   26.8320 C   0  0  0  0  0  0  0  0  0  0  0  0
    0.0378   -6.5802   27.5079 C   0  0  0  0  0  0  0  0  0  0  0  0
    2.3045   -7.8505   16.0870 C   0  0  0  0  0  0  0  0  0  0  0  0
    4.5934   -7.3366   26.6109 C   0  0  0  0  0  0  0  0  0  0  0  0
    2.2769   -5.3738   26.3607 C   0  0  0  0  0  0  0  0  0  0  0  0
    7.2969   -4.9275   27.2853 C   0  0  0  0  0  0  0  0  0  0  0  0
    8.6187   -4.9785   27.6592 C   0  0  0  0  0  0  0  0  0  0  0  0
    1.0683   -4.6261   26.4340 C   0  0  0  0  0  0  0  0  0  0  0  0
    4.5745   -8.6022   16.4286 C   0  0  0  0  0  0  0  0  0  0  0  0
   -1.4326   -3.4831   26.2444 N   0  0  0  0  0  0  0  0  0  0  0  0
   -1.3312   -4.6263   26.9609 C   0  0  0  0  0  0  0  0  0  0  0  0
    1.8944   -8.9770   16.8123 C   0  0  0  0  0  0  0  0  0  0  0  0
    4.1477   -9.7411   17.1312 C   0  0  0  0  0  0  0  0  0  0  0  0
   -2.3189   -5.0938   27.6047 O   0  0  0  0  0  0  0  0  0  0  0  0
   10.7347   -6.1776   28.1682 C   0  0  0  0  0  0  0  0  0  0  0  0
    6.5856   -6.1080   27.1301 C   0  0  0  0  0  0  0  0  0  0  0  0
    2.2473   -6.7022   26.6933 C   0  0  0  0  0  0  0  0  0  0  0  0
    9.2973   -6.1520   27.8781 C   0  0  0  0  0  0  0  0  0  0  0  0
    0.5244   -9.1352   17.0176 F   0  0  0  0  0  0  0  0  0  0  0  0
    1.1996   -7.2989   27.3338 C   0  0  0  0  0  0  0  0  0  0  0  0
    8.5818   -7.3263   27.8449 C   0  0  0  0  0  0  0  0  0  0  0  0
    6.5713   -8.4999   27.3138 N   0  0  0  0  0  0  0  0  0  0  0  0
    3.6674   -7.6905   15.8859 C   0  0  0  0  0  0  0  0  0  0  0  0
    2.8074   -9.9212   17.3131 C   0  0  0  0  0  0  0  0  0  0  0  0
    5.2823   -6.1932   26.7388 N   0  0  0  0  0  0  0  0  0  0  0  0
    7.2422   -7.3450   27.4545 C   0  0  0  0  0  0  0  0  0  0  0  0
   -0.0435   -5.3160   26.9830 C   0  0  0  0  0  0  0  0  0  0  0  0
    3.2678   -7.4824   26.2339 C   0  0  0  0  0  0  0  0  0  0  0  0
  1  4  4  0
  1 22  4  0
  2 20  4  0
  2 27  4  0
  3 12  4  0
  3 23  4  0
  4 25  4  0
  4 28  1  0
  5  8  4  0
  5 17  4  0
  6  7  4  0
  6 16  4  0
  7 18  4  0
  8 27  4  0
  9 13  4  0
  9 23  4  0
 10 11  1  0
 11 14  2  0
 11 27  1  0
 12 19  1  0
 12 24  4  0
 13 24  4  0
 15 18  1  0
 16 25  4  0
 16 26  4  0
 17 20  4  0
 17 28  1  0
 18 21  4  0
 21 26  4  0
 22 26  4  0
M  END
$$$$

 Created by Python create_sdf_string function

 28 63  0  0  0  0  0  0  0  0999 V2000
    0.2762   -6.8405   27.3970 C   0  0  0  0  0  0  0  0  0  0  0  0
    2.1125   -8.1588   15.8063 C   0  0  0  0  0  0  0  0  0  0  0  0
    4.8262   -7.5704   26.5934 C   0  0  0  0  0  0  0  0  0  0  0  0
    2.2946   -5.1648   26.5389 C   0  0  0  0  0  0  0  0  0  0  0  0
    7.6780   -5.3330   27.2237 F   0  0  0  0  0  0  0  0  0  0  0  0
    8.5981   -4.8796   27.4555 C   0  0  0  0  0  0  0  0  0  0  0  0
    0.9033   -4.7034   26.3403 C   0  0  0  0  0  0  0  0  0  0  0  0
    4.5318   -8.3259   16.2773 C   0  0  0  0  0  0  0  0  0  0  0  0
   -1.4213   -3.4895   26.1832 N   0  0  0  0  0  0  0  0  0  0  0  0
   -1.5605   -4.5524   27.0317 C   0  0  0  0  0  0  0  0  0  0  0  0
    1.8479   -8.9475   16.8706 C   0  0  0  0  0  0  0  0  0  0  0  0
    4.5205   -9.4698   16.9853 C   0  0  0  0  0  0  0  0  0  0  0  0
   -2.0631   -5.3906   27.5725 O   0  0  0  0  0  0  0  0  0  0  0  0
   10.6130   -6.1570   28.1642 C   0  0  0  0  0  0  0  0  0  0  0  0
    6.6053   -5.9448   26.8805 C   0  0  0  0  0  0  0  0  0  0  0  0
    2.3554   -6.4461   26.4860 N   0  0  0  0  0  0  0  0  0  0  0  0
    9.4043   -6.1029   27.9867 C   0  0  0  0  0  0  0  0  0  0  0  0
    0.9475   -9.0621   16.8282 P   0  0  0  0  0  0  0  0  0  0  0  0
    1.0685   -7.0458   27.3841 C   0  0  0  0  0  0  0  0  0  0  0  0
    8.5082   -7.2330   27.6212 C   0  0  0  0  0  0  0  0  0  0  0  0
    6.7061   -8.3545   27.2227 N   0  0  0  0  0  0  0  0  0  0  0  0
    2.3054  -10.0065   17.1958 C   0  0  0  0  0  0  0  0  0  0  0  0
    5.4072   -6.2501   26.8723 N   0  0  0  0  0  0  0  0  0  0  0  0
    7.2917   -7.5015   27.2463 C   0  0  0  0  0  0  0  0  0  0  0  0
    0.1518   -5.2185   26.9706 C   0  0  0  0  0  0  0  0  0  0  0  0
    3.1377   -7.2899   26.5127 C   0  0  0  0  0  0  0  0  0  0  0  0
    5.4290   -8.3673   26.9307 He  0  0  0  0  0  0  0  0  0  0  0  0
    3.5835   -7.6877   16.0377 He  0  0  0  0  0  0  0  0  0  0  0  0
  1  5  4  0
  1  7  1  0
  1 10  3  0
  1 19  4  0
  1 25  4  0
  2  5  2  0
  2 10  3  0
  2 11  4  0
  2 15  3  0
  2 19  2  0
  3 23  4  0
  3 26  1  0
  4  7  4  0
  4 11  1  0
  4 16  4  0
  4 18  4  0
  4 19  4  0
  5  6  4  0
  5 15  4  0
  5 22  2  0
  6  8  3  0
  6 17  4  0
  6 18  1  0
  6 22  4  0
  7 21  4  0
  7 22  3  0
  7 25  4  0
  8 12  4  0
  8 13  1  0
  8 18  4  0
  8 21  1  0
  8 23  2  0
  8 26  4  0
  9 10  1  0
  9 12  1  0
  9 19  3  0
  9 20  2  0
 10 13  2  0
 10 25  1  0
 11 13  4  0
 11 15  4  0
 11 18  1  0
 11 22  4  0
 11 23  4  0
 12 16  1  0
 12 20  2  0
 12 22  4  0
 12 24  2  0
 13 22  1  0
 14 17  1  0
 14 19  1  0
 14 20  1  0
 15 22  2  0
 15 23  4  0
 15 24  4  0
 16 18  2  0
 16 26  1  0
 17 18  4  0
 17 21  3  0
 19 24  3  0
 20 24  4  0
 21 24  4  0
 23 24  4  0
M  END
$$$$

 Created by Python create_sdf_string function

 28 30  0  0  0  0  0  0  0  0999 V2000
    5.3416   -8.4641   26.8731 C   0  0  0  0  0  0  0  0  0  0  0  0
    0.1214   -6.5633   27.4455 C   0  0  0  0  0  0  0  0  0  0  0  0
    2.2238   -7.9365   15.9914 C   0  0  0  0  0  0  0  0  0  0  0  0
    4.6524   -7.3201   26.6465 C   0  0  0  0  0  0  0  0  0  0  0  0
    2.2906   -5.3265   26.3870 C   0  0  0  0  0  0  0  0  0  0  0  0
    7.3139   -4.9527   27.1396 C   0  0  0  0  0  0  0  0  0  0  0  0
    8.6483   -4.9514   27.5166 C   0  0  0  0  0  0  0  0  0  0  0  0
    1.0965   -4.5822   26.4580 C   0  0  0  0  0  0  0  0  0  0  0  0
    4.5278   -8.4492   16.3928 C   0  0  0  0  0  0  0  0  0  0  0  0
   -1.4970   -3.5421   26.3040 N   0  0  0  0  0  0  0  0  0  0  0  0
   -1.3421   -4.6838   26.9621 C   0  0  0  0  0  0  0  0  0  0  0  0
    1.8647   -9.0611   16.7239 C   0  0  0  0  0  0  0  0  0  0  0  0
    4.1722   -9.6018   17.1046 C   0  0  0  0  0  0  0  0  0  0  0  0
   -2.3019   -5.2276   27.5540 O   0  0  0  0  0  0  0  0  0  0  0  0
   10.7153   -6.1228   28.2128 C   0  0  0  0  0  0  0  0  0  0  0  0
    6.6550   -6.1187   27.0692 C   0  0  0  0  0  0  0  0  0  0  0  0
    2.3438   -6.6023   26.7043 N   0  0  0  0  0  0  0  0  0  0  0  0
    9.3434   -6.1179   27.8059 C   0  0  0  0  0  0  0  0  0  0  0  0
    0.5434   -9.3194   16.9067 F   0  0  0  0  0  0  0  0  0  0  0  0
    1.2832   -7.2095   27.2966 C   0  0  0  0  0  0  0  0  0  0  0  0
    8.6646   -7.3087   27.6968 C   0  0  0  0  0  0  0  0  0  0  0  0
    6.6564   -8.5147   27.2541 N   0  0  0  0  0  0  0  0  0  0  0  0
    3.5623   -7.6595   15.8176 C   0  0  0  0  0  0  0  0  0  0  0  0
    2.8133   -9.9098   17.2581 C   0  0  0  0  0  0  0  0  0  0  0  0
    5.3008   -6.2033   26.7596 N   0  0  0  0  0  0  0  0  0  0  0  0
    7.3156   -7.3508   27.3505 C   0  0  0  0  0  0  0  0  0  0  0  0
   -0.0243   -5.3157   26.9813 C   0  0  0  0  0  0  0  0  0  0  0  0
    3.3530   -7.4166   26.1999 C   0  0  0  0  0  0  0  0  0  0  0  0
  1  4  4  0
  1 22  4  0
  2 20  4  0
  2 27  4  0
  3 12  4  0
  3 23  4  0
  4 25  4  0
  4 28  1  0
  5  8  4  0
  5 17  4  0
  6  7  4  0
  6 16  4  0
  7 18  4  0
  8 27  4  0
  9 13  4  0
  9 23  4  0
 10 11  1  0
 11 14  2  0
 11 27  1  0
 12 19  1  0
 12 24  4  0
 13 24  4  0
 15 18  1  0
 16 25  4  0
 16 26  4  0
 17 20  4  0
 17 28  1  0
 18 21  4  0
 21 26  4  0
 22 26  4  0
M  END
$$$$

 Created by Python create_sdf_string function

 28 47  0  0  0  0  0  0  0  0999 V2000
    5.5523   -8.3296   26.8852 C   0  0  0  0  0  0  0  0  0  0  0  0
   -0.1202   -6.5675   27.4140 C   0  0  0  0  0  0  0  0  0  0  0  0
    2.7396   -7.5980   16.0338 C   0  0  0  0  0  0  0  0  0  0  0  0
    4.6747   -7.2694   26.5329 C   0  0  0  0  0  0  0  0  0  0  0  0
    2.2614   -5.2091   26.3679 C   0  0  0  0  0  0  0  0  0  0  0  0
    7.4607   -5.5164   27.4514 O   0  0  0  0  0  0  0  0  0  0  0  0
    8.3670   -4.8165   27.7224 C   0  0  0  0  0  0  0  0  0  0  0  0
    1.0295   -4.5050   26.5217 C   0  0  0  0  0  0  0  0  0  0  0  0
    4.6599   -8.8468   16.2548 C   0  0  0  0  0  0  0  0  0  0  0  0
   -1.7478   -3.4588   26.3855 N   0  0  0  0  0  0  0  0  0  0  0  0
   -1.2039   -4.8998   27.2752 C   0  0  0  0  0  0  0  0  0  0  0  0
    2.2092   -9.6433   16.7034 C   0  0  0  0  0  0  0  0  0  0  0  0
    3.4875   -9.4966   17.0063 C   0  0  0  0  0  0  0  0  0  0  0  0
   -2.3902   -5.1636   27.6659 O   0  0  0  0  0  0  0  0  0  0  0  0
   10.7167   -6.0999   28.1797 C   0  0  0  0  0  0  0  0  0  0  0  0
    2.5212   -6.4875   26.6779 N   0  0  0  0  0  0  0  0  0  0  0  0
    9.2610   -6.0627   27.8962 C   0  0  0  0  0  0  0  0  0  0  0  0
    1.4744   -7.5315   27.4450 C   0  0  0  0  0  0  0  0  0  0  0  0
    8.8301   -7.3447   27.6568 C   0  0  0  0  0  0  0  0  0  0  0  0
    6.6497   -8.6930   27.3649 N   0  0  0  0  0  0  0  0  0  0  0  0
    3.8348   -7.9924   15.6556 C   0  0  0  0  0  0  0  0  0  0  0  0
    2.8152   -9.9379   17.2179 C   0  0  0  0  0  0  0  0  0  0  0  0
    5.0830   -6.1924   26.6967 N   0  0  0  0  0  0  0  0  0  0  0  0
    7.2574   -7.4919   27.2794 C   0  0  0  0  0  0  0  0  0  0  0  0
   -0.0548   -5.5191   27.1729 C   0  0  0  0  0  0  0  0  0  0  0  0
    3.2426   -7.7552   26.0619 C   0  0  0  0  0  0  0  0  0  0  0  0
    6.7278   -6.1948   27.3453 He  0  0  0  0  0  0  0  0  0  0  0  0
    0.4214   -9.4749   16.7574 He  0  0  0  0  0  0  0  0  0  0  0  0
  1  4  4  0
  1 12  2  0
  2 10  4  0
  2 18  4  0
  2 25  4  0
  3 12  4  0
  3 13  1  0
  3 18  2  0
  3 19  3  0
  3 20  2  0
  4 23  3  0
  4 26  1  0
  5  8  4  0
  5 13  1  0
  5 16  4  0
  6  7  4  0
  6 19  4  0
  7 11  4  0
  7 17  4  0
  7 21  1  0
  7 22  1  0
  8 25  4  0
  9 13  4  0
  9 21  4  0
  9 22  1  0
 10 14  3  0
 10 22  1  0
 11 14  2  0
 11 17  4  0
 11 19  4  0
 11 25  1  0
 12 16  4  0
 13 22  4  0
 14 21  2  0
 15 17  1  0
 16 18  4  0
 16 24  4  0
 16 26  1  0
 17 18  2  0
 17 19  4  0
 17 20  1  0
 17 21  4  0
 18 25  4  0
 19 20  4  0
 19 24  4  0
 21 24  3  0
 22 24  3  0
M  END
$$$$

 Created by Python create_sdf_string function

 28 30  0  0  0  0  0  0  0  0999 V2000
    5.3779   -8.5698   26.8148 C   0  0  0  0  0  0  0  0  0  0  0  0
    0.1183   -6.6492   27.5367 C   0  0  0  0  0  0  0  0  0  0  0  0
    2.3531   -8.0379   15.9217 C   0  0  0  0  0  0  0  0  0  0  0  0
    4.6628   -7.4070   26.6113 C   0  0  0  0  0  0  0  0  0  0  0  0
    2.2645   -5.3728   26.3729 C   0  0  0  0  0  0  0  0  0  0  0  0
    7.2116   -4.9973   27.3818 C   0  0  0  0  0  0  0  0  0  0  0  0
    8.5456   -4.9877   27.7273 C   0  0  0  0  0  0  0  0  0  0  0  0
    1.0563   -4.6659   26.5189 C   0  0  0  0  0  0  0  0  0  0  0  0
    4.6061   -8.7528   16.3655 C   0  0  0  0  0  0  0  0  0  0  0  0
   -1.4963   -3.5742   26.4815 N   0  0  0  0  0  0  0  0  0  0  0  0
   -1.3403   -4.7642   27.1119 C   0  0  0  0  0  0  0  0  0  0  0  0
    1.9122   -9.1242   16.6819 C   0  0  0  0  0  0  0  0  0  0  0  0
    4.1218   -9.8023   17.1022 C   0  0  0  0  0  0  0  0  0  0  0  0
   -2.3043   -5.2966   27.7051 O   0  0  0  0  0  0  0  0  0  0  0  0
   10.7110   -6.0716   28.1761 C   0  0  0  0  0  0  0  0  0  0  0  0
    6.6008   -6.1867   27.1807 C   0  0  0  0  0  0  0  0  0  0  0  0
    2.3076   -6.6902   26.6440 N   0  0  0  0  0  0  0  0  0  0  0  0
    9.2869   -6.1223   27.8603 C   0  0  0  0  0  0  0  0  0  0  0  0
    0.5208   -9.3401   16.7425 N   0  0  0  0  0  0  0  0  0  0  0  0
    1.2970   -7.3160   27.2714 C   0  0  0  0  0  0  0  0  0  0  0  0
    8.6558   -7.3471   27.7003 C   0  0  0  0  0  0  0  0  0  0  0  0
    6.6878   -8.5825   27.2274 N   0  0  0  0  0  0  0  0  0  0  0  0
    3.7305   -7.8618   15.7772 C   0  0  0  0  0  0  0  0  0  0  0  0
    2.7696  -10.0061   17.3106 C   0  0  0  0  0  0  0  0  0  0  0  0
    5.2820   -6.2407   26.8025 N   0  0  0  0  0  0  0  0  0  0  0  0
    7.3230   -7.3833   27.3782 C   0  0  0  0  0  0  0  0  0  0  0  0
   -0.0372   -5.3922   27.0750 C   0  0  0  0  0  0  0  0  0  0  0  0
    3.3477   -7.4837   26.1237 C   0  0  0  0  0  0  0  0  0  0  0  0
  1  4  4  0
  1 22  4  0
  2 20  4  0
  2 27  4  0
  3 12  4  0
  3 23  4  0
  4 25  4  0
  4 28  1  0
  5  8  4  0
  5 17  4  0
  6  7  4  0
  6 16  4  0
  7 18  4  0
  8 27  4  0
  9 13  4  0
  9 23  4  0
 10 11  1  0
 11 14  2  0
 11 27  1  0
 12 19  1  0
 12 24  4  0
 13 24  4  0
 15 18  1  0
 16 25  4  0
 16 26  4  0
 17 20  4  0
 17 28  1  0
 18 21  4  0
 21 26  4  0
 22 26  4  0
M  END
$$$$

 Created by Python create_sdf_string function

 28 49  0  0  0  0  0  0  0  0999 V2000
    5.6752   -8.6012   26.6882 C   0  0  0  0  0  0  0  0  0  0  0  0
    0.1355   -6.3935   27.5538 Cl  0  0  0  0  0  0  0  0  0  0  0  0
    2.3764   -7.9628   15.9062 C   0  0  0  0  0  0  0  0  0  0  0  0
    4.7628   -7.5893   26.8715 C   0  0  0  0  0  0  0  0  0  0  0  0
    2.0846   -5.5541   26.2730 C   0  0  0  0  0  0  0  0  0  0  0  0
    6.9802   -4.6704   27.1879 F   0  0  0  0  0  0  0  0  0  0  0  0
    8.6570   -4.8065   27.9558 C   0  0  0  0  0  0  0  0  0  0  0  0
    0.9762   -4.7187   26.8309 C   0  0  0  0  0  0  0  0  0  0  0  0
    4.4608   -8.3929   16.8713 C   0  0  0  0  0  0  0  0  0  0  0  0
   -1.1694   -3.5667   26.6453 N   0  0  0  0  0  0  0  0  0  0  0  0
   -1.1351   -4.9662   27.1833 C   0  0  0  0  0  0  0  0  0  0  0  0
    1.4843   -9.1502   17.2864 C   0  0  0  0  0  0  0  0  0  0  0  0
    3.9866   -9.4985   16.8167 C   0  0  0  0  0  0  0  0  0  0  0  0
   -2.2457   -5.0237   27.6999 O   0  0  0  0  0  0  0  0  0  0  0  0
   10.7367   -6.0989   28.3081 C   0  0  0  0  0  0  0  0  0  0  0  0
    6.5986   -6.3779   26.9594 C   0  0  0  0  0  0  0  0  0  0  0  0
    2.5057   -6.7326   26.4959 N   0  0  0  0  0  0  0  0  0  0  0  0
    9.2095   -6.0915   27.8561 C   0  0  0  0  0  0  0  0  0  0  0  0
   -0.0568   -8.9090   16.9225 N   0  0  0  0  0  0  0  0  0  0  0  0
    1.6917   -7.5664   27.1949 C   0  0  0  0  0  0  0  0  0  0  0  0
    8.7912   -7.2292   27.6639 C   0  0  0  0  0  0  0  0  0  0  0  0
    6.7669   -8.7756   27.1304 P   0  0  0  0  0  0  0  0  0  0  0  0
    3.5844   -7.3327   15.4208 Cl  0  0  0  0  0  0  0  0  0  0  0  0
    2.6778   -9.9882   17.0719 C   0  0  0  0  0  0  0  0  0  0  0  0
    7.3021   -7.3979   27.5309 Br  0  0  0  0  0  0  0  0  0  0  0  0
    0.1297   -5.3273   27.1028 C   0  0  0  0  0  0  0  0  0  0  0  0
    3.1403   -7.5600   26.2047 C   0  0  0  0  0  0  0  0  0  0  0  0
    5.0226   -6.1321   26.9183 He  0  0  0  0  0  0  0  0  0  0  0  0
  1  4  4  0
  1 21  2  0
  1 22  4  0
  2 19  3  0
  2 26  4  0
  3  6  4  0
  3 12  4  0
  3 18  1  0
  3 23  4  0
  4  5  2  0
  4  9  1  0
  4 20  1  0
  4 24  4  0
  5  8  4  0
  5 13  3  0
  5 17  4  0
  5 26  4  0
  6 12  1  0
  6 16  4  0
  6 27  2  0
  7 11  2  0
  7 18  4  0
  7 23  3  0
  8 10  1  0
  8 26  4  0
  9 11  1  0
  9 13  3  0
  9 15  3  0
  9 23  4  0
 10 11  1  0
 10 12  2  0
 11 14  2  0
 11 26  3  0
 12 21  4  0
 12 24  4  0
 13 22  1  0
 13 24  4  0
 15 18  1  0
 16 20  4  0
 16 25  4  0
 17 20  4  0
 18 20  3  0
 18 21  4  0
 20 26  1  0
 21 25  4  0
 21 27  3  0
 22 24  1  0
 22 25  4  0
 23 26  4  0
M  END
$$$$

 Created by Python create_sdf_string function

 28 30  0  0  0  0  0  0  0  0999 V2000
    5.4263   -8.6419   26.7851 C   0  0  0  0  0  0  0  0  0  0  0  0
    0.1844   -6.6889   27.5459 C   0  0  0  0  0  0  0  0  0  0  0  0
    2.1037   -7.8235   16.0328 C   0  0  0  0  0  0  0  0  0  0  0  0
    4.6886   -7.5165   26.6281 C   0  0  0  0  0  0  0  0  0  0  0  0
    2.3289   -5.5086   26.3426 C   0  0  0  0  0  0  0  0  0  0  0  0
    7.2012   -4.9577   27.3819 C   0  0  0  0  0  0  0  0  0  0  0  0
    8.5309   -4.8979   27.7187 C   0  0  0  0  0  0  0  0  0  0  0  0
    1.1732   -4.7270   26.5189 C   0  0  0  0  0  0  0  0  0  0  0  0
    4.4064   -8.4465   16.4415 C   0  0  0  0  0  0  0  0  0  0  0  0
   -1.2737   -3.5187   26.6488 N   0  0  0  0  0  0  0  0  0  0  0  0
   -1.1859   -4.7323   27.2102 C   0  0  0  0  0  0  0  0  0  0  0  0
    1.6948   -8.9580   16.7234 C   0  0  0  0  0  0  0  0  0  0  0  0
    3.9877   -9.5984   17.0991 C   0  0  0  0  0  0  0  0  0  0  0  0
   -2.1961   -5.2448   27.7341 O   0  0  0  0  0  0  0  0  0  0  0  0
   10.6985   -5.9852   28.3071 C   0  0  0  0  0  0  0  0  0  0  0  0
    6.5934   -6.1929   27.1888 C   0  0  0  0  0  0  0  0  0  0  0  0
    2.3450   -6.8040   26.6875 N   0  0  0  0  0  0  0  0  0  0  0  0
    9.2727   -6.0527   27.9081 C   0  0  0  0  0  0  0  0  0  0  0  0
    0.2510   -9.1263   16.9850 N   0  0  0  0  0  0  0  0  0  0  0  0
    1.3200   -7.4300   27.3175 C   0  0  0  0  0  0  0  0  0  0  0  0
    8.6811   -7.2667   27.7080 C   0  0  0  0  0  0  0  0  0  0  0  0
    6.7565   -8.6020   27.1609 N   0  0  0  0  0  0  0  0  0  0  0  0
    3.4835   -7.5512   15.8875 C   0  0  0  0  0  0  0  0  0  0  0  0
    2.6198   -9.8739   17.2160 C   0  0  0  0  0  0  0  0  0  0  0  0
    5.2475   -6.3204   26.8415 C   0  0  0  0  0  0  0  0  0  0  0  0
    7.3501   -7.3725   27.3464 C   0  0  0  0  0  0  0  0  0  0  0  0
    0.1041   -5.4229   27.1166 C   0  0  0  0  0  0  0  0  0  0  0  0
    3.3338   -7.6519   26.2081 C   0  0  0  0  0  0  0  0  0  0  0  0
  1  4  4  0
  1 22  4  0
  2 20  4  0
  2 27  4  0
  3 12  4  0
  3 23  4  0
  4 25  4  0
  4 28  1  0
  5  8  4  0
  5 17  4  0
  6  7  4  0
  6 16  4  0
  7 18  4  0
  8 27  4  0
  9 13  4  0
  9 23  4  0
 10 11  1  0
 11 14  2  0
 11 27  1  0
 12 19  1  0
 12 24  4  0
 13 24  4  0
 15 18  1  0
 16 25  4  0
 16 26  4  0
 17 20  4  0
 17 28  1  0
 18 21  4  0
 21 26  4  0
 22 26  4  0
M  END
$$$$

 Created by Python create_sdf_string function

 28 38  0  0  0  0  0  0  0  0999 V2000
    5.3998   -8.6380   26.8236 C   0  0  0  0  0  0  0  0  0  0  0  0
    0.2051   -6.4687   27.9026 C   0  0  0  0  0  0  0  0  0  0  0  0
    1.9539   -7.8886   15.5985 C   0  0  0  0  0  0  0  0  0  0  0  0
    4.3786   -7.3436   26.6309 C   0  0  0  0  0  0  0  0  0  0  0  0
    2.4074   -5.6208   26.3157 C   0  0  0  0  0  0  0  0  0  0  0  0
    6.9522   -4.5664   27.3131 C   0  0  0  0  0  0  0  0  0  0  0  0
    8.5592   -4.9610   27.7303 C   0  0  0  0  0  0  0  0  0  0  0  0
    4.2474   -8.4839   16.8326 C   0  0  0  0  0  0  0  0  0  0  0  0
   -1.2364   -4.8509   27.2745 C   0  0  0  0  0  0  0  0  0  0  0  0
    1.7550   -8.9203   16.7452 C   0  0  0  0  0  0  0  0  0  0  0  0
    4.4361   -9.8288   17.1381 C   0  0  0  0  0  0  0  0  0  0  0  0
   -2.0076   -5.4222   27.8869 O   0  0  0  0  0  0  0  0  0  0  0  0
   10.8311   -5.9551   28.4154 N   0  0  0  0  0  0  0  0  0  0  0  0
    6.6795   -6.2671   27.2246 C   0  0  0  0  0  0  0  0  0  0  0  0
    2.4470   -6.4750   26.7361 N   0  0  0  0  0  0  0  0  0  0  0  0
    9.5781   -6.1807   28.0209 C   0  0  0  0  0  0  0  0  0  0  0  0
    0.0305   -9.1257   16.7718 N   0  0  0  0  0  0  0  0  0  0  0  0
    1.4783   -7.6667   27.7761 C   0  0  0  0  0  0  0  0  0  0  0  0
    6.6721   -8.6777   26.8085 N   0  0  0  0  0  0  0  0  0  0  0  0
    3.8112   -7.4604   16.2951 C   0  0  0  0  0  0  0  0  0  0  0  0
    2.8132   -9.9225   17.2706 C   0  0  0  0  0  0  0  0  0  0  0  0
    4.9817   -6.1969   26.9119 C   0  0  0  0  0  0  0  0  0  0  0  0
    7.2571   -7.2928   27.2944 C   0  0  0  0  0  0  0  0  0  0  0  0
   -0.1029   -5.3975   27.1045 C   0  0  0  0  0  0  0  0  0  0  0  0
    3.6608   -7.4956   26.2481 C   0  0  0  0  0  0  0  0  0  0  0  0
    1.3091   -4.7440   26.2620 He  0  0  0  0  0  0  0  0  0  0  0  0
   -1.2292   -3.5106   26.6964 He  0  0  0  0  0  0  0  0  0  0  0  0
    8.7672   -7.1662   27.5322 He  0  0  0  0  0  0  0  0  0  0  0  0
  1  2  3  0
  1  3  2  0
  1  4  4  0
  1 19  4  0
  2 18  4  0
  2 24  4  0
  3 10  4  0
  3 20  4  0
  3 24  1  0
  4 13  3  0
  4 22  4  0
  5 15  1  0
  6  7  4  0
  6 14  4  0
  6 23  3  0
  7  8  2  0
  7 12  3  0
  7 16  4  0
  7 18  4  0
  8 11  1  0
  9 12  1  0
  9 24  1  0
 10 13  1  0
 10 17  1  0
 11 14  1  0
 11 21  4  0
 11 23  3  0
 12 17  3  0
 13 16  1  0
 14 22  4  0
 14 23  4  0
 15 16  4  0
 16 20  3  0
 17 19  3  0
 17 22  4  0
 18 24  1  0
 19 23  4  0
 22 24  4  0
M  END
$$$$

 Created by Python create_sdf_string function

 28 30  0  0  0  0  0  0  0  0999 V2000
    5.4707   -8.5615   26.7005 C   0  0  0  0  0  0  0  0  0  0  0  0
    0.2529   -6.6525   27.7839 C   0  0  0  0  0  0  0  0  0  0  0  0
    2.2329   -7.8317   16.0200 C   0  0  0  0  0  0  0  0  0  0  0  0
    4.6848   -7.4625   26.6761 C   0  0  0  0  0  0  0  0  0  0  0  0
    2.2525   -5.5230   26.2501 C   0  0  0  0  0  0  0  0  0  0  0  0
    7.2535   -4.8883   27.4379 C   0  0  0  0  0  0  0  0  0  0  0  0
    8.5832   -4.8840   27.7677 C   0  0  0  0  0  0  0  0  0  0  0  0
    1.0803   -4.7733   26.4412 C   0  0  0  0  0  0  0  0  0  0  0  0
    4.4752   -8.4503   16.7039 C   0  0  0  0  0  0  0  0  0  0  0  0
   -1.3145   -3.5773   26.6729 N   0  0  0  0  0  0  0  0  0  0  0  0
   -1.1691   -4.7569   27.2492 C   0  0  0  0  0  0  0  0  0  0  0  0
    1.7836   -9.0207   16.6741 C   0  0  0  0  0  0  0  0  0  0  0  0
    4.0240   -9.6752   17.2355 C   0  0  0  0  0  0  0  0  0  0  0  0
   -2.1383   -5.3275   27.8681 O   0  0  0  0  0  0  0  0  0  0  0  0
   10.7124   -5.9757   28.2990 N   0  0  0  0  0  0  0  0  0  0  0  0
    6.6214   -6.1286   27.1915 C   0  0  0  0  0  0  0  0  0  0  0  0
    2.3288   -6.7858   26.7626 N   0  0  0  0  0  0  0  0  0  0  0  0
    9.3294   -6.0396   27.8825 C   0  0  0  0  0  0  0  0  0  0  0  0
    0.3145   -9.2483   16.7795 N   0  0  0  0  0  0  0  0  0  0  0  0
    1.4257   -7.3417   27.5651 C   0  0  0  0  0  0  0  0  0  0  0  0
    8.7259   -7.2375   27.6060 C   0  0  0  0  0  0  0  0  0  0  0  0
    6.8096   -8.4989   27.0650 N   0  0  0  0  0  0  0  0  0  0  0  0
    3.6138   -7.5797   16.0689 C   0  0  0  0  0  0  0  0  0  0  0  0
    2.6767   -9.9513   17.2292 C   0  0  0  0  0  0  0  0  0  0  0  0
    5.2444   -6.2566   26.9142 C   0  0  0  0  0  0  0  0  0  0  0  0
    7.3756   -7.2931   27.2764 C   0  0  0  0  0  0  0  0  0  0  0  0
    0.0820   -5.4265   27.1773 C   0  0  0  0  0  0  0  0  0  0  0  0
    3.2871   -7.6527   26.3197 C   0  0  0  0  0  0  0  0  0  0  0  0
  1  4  4  0
  1 22  4  0
  2 20  4  0
  2 27  4  0
  3 12  4  0
  3 23  4  0
  4 25  4  0
  4 28  1  0
  5  8  4  0
  5 17  4  0
  6  7  4  0
  6 16  4  0
  7 18  4  0
  8 27  4  0
  9 13  4  0
  9 23  4  0
 10 11  1  0
 11 14  1  0
 11 27  1  0
 12 19  1  0
 12 24  4  0
 13 24  4  0
 15 18  1  0
 16 25  4  0
 16 26  4  0
 17 20  4  0
 17 28  1  0
 18 21  4  0
 21 26  4  0
 22 26  4  0
M  END
$$$$

 Created by Python create_sdf_string function

 28 50  0  0  0  0  0  0  0  0999 V2000
    5.5279   -8.3849   26.4981 C   0  0  0  0  0  0  0  0  0  0  0  0
    0.1560   -6.7307   27.7955 C   0  0  0  0  0  0  0  0  0  0  0  0
    2.2523   -7.8402   15.6144 C   0  0  0  0  0  0  0  0  0  0  0  0
    4.8017   -7.5324   26.5806 C   0  0  0  0  0  0  0  0  0  0  0  0
    7.1268   -5.0294   27.1717 C   0  0  0  0  0  0  0  0  0  0  0  0
    8.8653   -4.7481   27.8376 C   0  0  0  0  0  0  0  0  0  0  0  0
    0.8074   -4.6657   26.3730 C   0  0  0  0  0  0  0  0  0  0  0  0
    4.9057   -8.2044   16.5344 C   0  0  0  0  0  0  0  0  0  0  0  0
   -1.0704   -3.4828   26.8089 N   0  0  0  0  0  0  0  0  0  0  0  0
   -1.0041   -4.8520   27.2174 C   0  0  0  0  0  0  0  0  0  0  0  0
    1.8265   -9.0791   16.2577 C   0  0  0  0  0  0  0  0  0  0  0  0
   -1.9964   -5.1900   27.8621 O   0  0  0  0  0  0  0  0  0  0  0  0
   10.4484   -5.9975   28.2995 N   0  0  0  0  0  0  0  0  0  0  0  0
    6.6449   -6.4187   27.1103 C   0  0  0  0  0  0  0  0  0  0  0  0
    2.3712   -6.7883   26.7978 N   0  0  0  0  0  0  0  0  0  0  0  0
    8.9977   -6.0313   28.1245 C   0  0  0  0  0  0  0  0  0  0  0  0
    0.1980   -9.1115   16.9879 N   0  0  0  0  0  0  0  0  0  0  0  0
    1.7879   -7.3011   27.4863 C   0  0  0  0  0  0  0  0  0  0  0  0
    8.6857   -7.0584   27.7541 C   0  0  0  0  0  0  0  0  0  0  0  0
    6.5410   -8.4566   26.9723 N   0  0  0  0  0  0  0  0  0  0  0  0
    3.3724   -7.6911   15.9672 C   0  0  0  0  0  0  0  0  0  0  0  0
    2.8115  -10.1734   17.4726 Cl  0  0  0  0  0  0  0  0  0  0  0  0
    5.1942   -6.4391   26.8372 C   0  0  0  0  0  0  0  0  0  0  0  0
    0.1772   -5.3881   27.1450 C   0  0  0  0  0  0  0  0  0  0  0  0
    3.2238   -7.4494   26.4318 C   0  0  0  0  0  0  0  0  0  0  0  0
    2.3031   -5.5577   26.2994 He  0  0  0  0  0  0  0  0  0  0  0  0
    3.6854   -9.2325   17.3513 He  0  0  0  0  0  0  0  0  0  0  0  0
    7.2590   -7.2051   27.0378 He  0  0  0  0  0  0  0  0  0  0  0  0
  1  4  4  0
  1  9  4  0
  1 18  4  0
  1 20  4  0
  2  3  1  0
  2  5  2  0
  2 18  2  0
  2 21  4  0
  3  4  3  0
  3  5  1  0
  3  7  3  0
  3 11  4  0
  3 21  4  0
  4  8  1  0
  4 23  4  0
  5  6  4  0
  5 14  4  0
  5 19  2  0
  5 24  1  0
  6 11  4  0
  6 16  4  0
  6 17  1  0
  6 21  2  0
  7  8  4  0
  7 13  2  0
  7 24  4  0
  8 14  2  0
  8 17  1  0
  8 20  1  0
  8 21  4  0
  8 22  4  0
  9 10  1  0
 10 21  3  0
 10 24  1  0
 11 13  2  0
 11 17  4  0
 11 18  2  0
 11 22  4  0
 11 23  2  0
 12 18  2  0
 12 19  1  0
 13 16  1  0
 14 18  4  0
 14 23  4  0
 15 18  1  0
 16 19  4  0
 16 24  2  0
 18 19  2  0
 21 24  1  0
 22 23  4  0
M  END
$$$$

 Created by Python create_sdf_string function

 28 30  0  0  0  0  0  0  0  0999 V2000
    5.4719   -8.5397   26.5953 C   0  0  0  0  0  0  0  0  0  0  0  0
    0.2638   -6.6613   27.7757 C   0  0  0  0  0  0  0  0  0  0  0  0
    2.1998   -7.9385   15.8183 C   0  0  0  0  0  0  0  0  0  0  0  0
    4.6801   -7.4398   26.5757 C   0  0  0  0  0  0  0  0  0  0  0  0
    2.2820   -5.5555   26.2456 C   0  0  0  0  0  0  0  0  0  0  0  0
    7.2286   -4.8714   27.3374 C   0  0  0  0  0  0  0  0  0  0  0  0
    8.5262   -4.8410   27.7308 C   0  0  0  0  0  0  0  0  0  0  0  0
    1.1104   -4.7826   26.4451 C   0  0  0  0  0  0  0  0  0  0  0  0
    4.4602   -8.3037   16.6151 C   0  0  0  0  0  0  0  0  0  0  0  0
   -1.2552   -3.5062   26.7963 N   0  0  0  0  0  0  0  0  0  0  0  0
   -1.1285   -4.7349   27.3097 C   0  0  0  0  0  0  0  0  0  0  0  0
    1.7987   -9.0009   16.6332 C   0  0  0  0  0  0  0  0  0  0  0  0
    4.0350   -9.4389   17.2933 C   0  0  0  0  0  0  0  0  0  0  0  0
   -2.1182   -5.2664   27.8829 O   0  0  0  0  0  0  0  0  0  0  0  0
   10.5862   -5.9301   28.4338 N   0  0  0  0  0  0  0  0  0  0  0  0
    6.6043   -6.1076   27.1307 C   0  0  0  0  0  0  0  0  0  0  0  0
    2.3444   -6.7934   26.7550 N   0  0  0  0  0  0  0  0  0  0  0  0
    9.2506   -5.9951   27.9438 C   0  0  0  0  0  0  0  0  0  0  0  0
    0.3603   -9.2838   16.7347 N   0  0  0  0  0  0  0  0  0  0  0  0
    1.4253   -7.3742   27.5611 C   0  0  0  0  0  0  0  0  0  0  0  0
    8.6687   -7.1960   27.7055 C   0  0  0  0  0  0  0  0  0  0  0  0
    6.7942   -8.4875   26.9956 N   0  0  0  0  0  0  0  0  0  0  0  0
    3.5524   -7.6115   15.8135 C   0  0  0  0  0  0  0  0  0  0  0  0
    2.6949   -9.7973   17.3230 C   0  0  0  0  0  0  0  0  0  0  0  0
    5.2415   -6.2586   26.7958 C   0  0  0  0  0  0  0  0  0  0  0  0
    7.3503   -7.2990   27.2852 C   0  0  0  0  0  0  0  0  0  0  0  0
    0.1129   -5.4310   27.1864 C   0  0  0  0  0  0  0  0  0  0  0  0
    3.3209   -7.6451   26.2778 C   0  0  0  0  0  0  0  0  0  0  0  0
  1  4  4  0
  1 22  4  0
  2 20  4  0
  2 27  4  0
  3 12  4  0
  3 23  4  0
  4 25  4  0
  4 28  1  0
  5  8  4  0
  5 17  4  0
  6  7  4  0
  6 16  4  0
  7 18  4  0
  8 27  4  0
  9 13  4  0
  9 23  4  0
 10 11  1  0
 11 14  2  0
 11 27  1  0
 12 19  1  0
 12 24  4  0
 13 24  4  0
 15 18  1  0
 16 25  4  0
 16 26  4  0
 17 20  4  0
 17 28  1  0
 18 21  4  0
 21 26  4  0
 22 26  4  0
M  END
$$$$

 Created by Python create_sdf_string function

 28 47  0  0  0  0  0  0  0  0999 V2000
    5.3854   -8.4448   26.6106 C   0  0  0  0  0  0  0  0  0  0  0  0
    0.2597   -6.6709   28.1249 C   0  0  0  0  0  0  0  0  0  0  0  0
    2.3380   -7.6511   15.8972 C   0  0  0  0  0  0  0  0  0  0  0  0
    4.5820   -7.3814   26.4895 C   0  0  0  0  0  0  0  0  0  0  0  0
    2.4870   -5.6125   26.3223 C   0  0  0  0  0  0  0  0  0  0  0  0
    6.9763   -4.9677   27.3900 C   0  0  0  0  0  0  0  0  0  0  0  0
    8.5025   -4.8491   27.5701 C   0  0  0  0  0  0  0  0  0  0  0  0
    1.0542   -4.7081   26.3559 C   0  0  0  0  0  0  0  0  0  0  0  0
    4.5337   -8.2170   16.6649 C   0  0  0  0  0  0  0  0  0  0  0  0
   -1.1491   -3.5984   26.5805 N   0  0  0  0  0  0  0  0  0  0  0  0
   -1.1117   -4.8265   27.2999 C   0  0  0  0  0  0  0  0  0  0  0  0
    1.7167   -8.7510   16.5947 C   0  0  0  0  0  0  0  0  0  0  0  0
    4.1637   -8.9426   17.5298 C   0  0  0  0  0  0  0  0  0  0  0  0
   -2.2819   -5.4080   27.8932 O   0  0  0  0  0  0  0  0  0  0  0  0
   10.6482   -5.8121   28.5333 N   0  0  0  0  0  0  0  0  0  0  0  0
    6.5342   -6.1813   27.0490 C   0  0  0  0  0  0  0  0  0  0  0  0
    2.1389   -6.5937   26.7910 N   0  0  0  0  0  0  0  0  0  0  0  0
    9.1156   -6.0537   28.0384 C   0  0  0  0  0  0  0  0  0  0  0  0
    1.4174   -7.2579   27.3750 C   0  0  0  0  0  0  0  0  0  0  0  0
    8.7188   -7.2991   27.3690 C   0  0  0  0  0  0  0  0  0  0  0  0
    6.8568   -8.3622   26.6376 N   0  0  0  0  0  0  0  0  0  0  0  0
    3.5095   -7.3108   16.0881 C   0  0  0  0  0  0  0  0  0  0  0  0
    2.8325  -10.3286   17.4458 C   0  0  0  0  0  0  0  0  0  0  0  0
    5.2513   -6.4457   26.7419 C   0  0  0  0  0  0  0  0  0  0  0  0
    7.4883   -7.3422   27.2124 C   0  0  0  0  0  0  0  0  0  0  0  0
    0.0044   -5.4328   27.1727 C   0  0  0  0  0  0  0  0  0  0  0  0
    3.2625   -7.4949   26.3194 C   0  0  0  0  0  0  0  0  0  0  0  0
    0.0301   -9.1047   16.1084 He  0  0  0  0  0  0  0  0  0  0  0  0
  1  4  4  0
  1 11  4  0
  1 18  2  0
  1 21  4  0
  1 27  4  0
  2 10  1  0
  2 19  4  0
  2 26  4  0
  3 12  4  0
  3 20  4  0
  3 22  4  0
  4 13  4  0
  4 24  4  0
  4 27  1  0
  5  8  4  0
  5 17  4  0
  5 19  3  0
  6  7  4  0
  6 15  4  0
  6 16  4  0
  7 18  4  0
  8 18  1  0
  8 26  3  0
  9 11  1  0
  9 13  1  0
  9 21  1  0
  9 22  4  0
 10 11  1  0
 10 23  3  0
 11 12  1  0
 11 14  2  0
 11 26  1  0
 12 17  4  0
 12 22  1  0
 12 23  4  0
 13 23  4  0
 14 21  1  0
 15 18  1  0
 16 20  1  0
 16 24  4  0
 16 25  4  0
 16 26  2  0
 17 19  4  0
 17 27  1  0
 18 20  4  0
 20 25  4  0
 23 26  2  0
M  END
$$$$

 Created by Python create_sdf_string function

 28 30  0  0  0  0  0  0  0  0999 V2000
    5.4726   -8.5191   26.4990 C   0  0  0  0  0  0  0  0  0  0  0  0
    0.2342   -6.6816   27.8120 C   0  0  0  0  0  0  0  0  0  0  0  0
    2.2191   -7.7175   15.9466 C   0  0  0  0  0  0  0  0  0  0  0  0
    4.6371   -7.4414   26.5504 C   0  0  0  0  0  0  0  0  0  0  0  0
    2.2187   -5.5383   26.2533 C   0  0  0  0  0  0  0  0  0  0  0  0
    7.1409   -4.8857   27.3636 C   0  0  0  0  0  0  0  0  0  0  0  0
    8.4711   -4.8407   27.7782 C   0  0  0  0  0  0  0  0  0  0  0  0
    1.0799   -4.7738   26.4830 C   0  0  0  0  0  0  0  0  0  0  0  0
    4.4756   -8.1403   16.7811 C   0  0  0  0  0  0  0  0  0  0  0  0
   -1.3641   -3.5977   26.6524 N   0  0  0  0  0  0  0  0  0  0  0  0
   -1.2301   -4.7952   27.2881 C   0  0  0  0  0  0  0  0  0  0  0  0
    1.8179   -8.9176   16.5597 C   0  0  0  0  0  0  0  0  0  0  0  0
    4.0583   -9.3337   17.3750 C   0  0  0  0  0  0  0  0  0  0  0  0
   -2.1932   -5.3445   27.8844 O   0  0  0  0  0  0  0  0  0  0  0  0
   10.5817   -5.8721   28.4145 N   0  0  0  0  0  0  0  0  0  0  0  0
    6.5605   -6.1172   27.0776 C   0  0  0  0  0  0  0  0  0  0  0  0
    2.2774   -6.8130   26.7407 N   0  0  0  0  0  0  0  0  0  0  0  0
    9.2438   -5.9762   27.8810 C   0  0  0  0  0  0  0  0  0  0  0  0
    0.3658   -9.2700   16.3882 Br  0  0  0  0  0  0  0  0  0  0  0  0
    1.3902   -7.3575   27.5512 C   0  0  0  0  0  0  0  0  0  0  0  0
    8.7155   -7.2017   27.5230 C   0  0  0  0  0  0  0  0  0  0  0  0
    6.8042   -8.4980   26.8409 N   0  0  0  0  0  0  0  0  0  0  0  0
    3.5807   -7.3727   16.0234 C   0  0  0  0  0  0  0  0  0  0  0  0
    2.7028   -9.7627   17.2893 C   0  0  0  0  0  0  0  0  0  0  0  0
    5.2038   -6.2632   26.8187 C   0  0  0  0  0  0  0  0  0  0  0  0
    7.3757   -7.2923   27.1366 C   0  0  0  0  0  0  0  0  0  0  0  0
    0.0777   -5.4425   27.2171 C   0  0  0  0  0  0  0  0  0  0  0  0
    3.2575   -7.6530   26.2615 C   0  0  0  0  0  0  0  0  0  0  0  0
  1  4  4  0
  1 22  4  0
  2 20  4  0
  2 27  4  0
  3 12  4  0
  3 23  4  0
  4 25  4  0
  4 28  1  0
  5  8  4  0
  5 17  4  0
  6  7  4  0
  6 16  4  0
  7 18  4  0
  8 27  4  0
  9 13  4  0
  9 23  4  0
 10 11  1  0
 11 14  2  0
 11 27  1  0
 12 19  1  0
 12 24  4  0
 13 24  4  0
 15 18  1  0
 16 25  4  0
 16 26  4  0
 17 20  4  0
 17 28  1  0
 18 21  4  0
 21 26  4  0
 22 26  4  0
M  END
$$$$

 Created by Python create_sdf_string function

 28 43  0  0  0  0  0  0  0  0999 V2000
    5.6232   -8.4831   26.4389 C   0  0  0  0  0  0  0  0  0  0  0  0
    0.4264   -6.6278   27.9786 C   0  0  0  0  0  0  0  0  0  0  0  0
    2.3606   -7.5848   15.5144 C   0  0  0  0  0  0  0  0  0  0  0  0
    4.5508   -7.4605   26.5586 C   0  0  0  0  0  0  0  0  0  0  0  0
    2.1899   -5.4898   26.3236 C   0  0  0  0  0  0  0  0  0  0  0  0
    7.0476   -4.6770   27.2151 B   0  0  0  0  0  0  0  0  0  0  0  0
    8.4701   -4.6605   27.7277 C   0  0  0  0  0  0  0  0  0  0  0  0
    1.0654   -4.7525   26.3886 C   0  0  0  0  0  0  0  0  0  0  0  0
    4.4264   -8.2428   17.2120 C   0  0  0  0  0  0  0  0  0  0  0  0
   -1.4342   -4.6920   27.4151 O   0  0  0  0  0  0  0  0  0  0  0  0
    1.5337   -8.9563   16.4916 Cl  0  0  0  0  0  0  0  0  0  0  0  0
   -2.3455   -5.4033   27.8255 O   0  0  0  0  0  0  0  0  0  0  0  0
   10.7561   -5.6972   28.3557 B   0  0  0  0  0  0  0  0  0  0  0  0
    2.4342   -6.8097   26.7848 N   0  0  0  0  0  0  0  0  0  0  0  0
    9.4370   -6.0484   28.0504 C   0  0  0  0  0  0  0  0  0  0  0  0
    0.2496   -9.6622   16.2998 Br  0  0  0  0  0  0  0  0  0  0  0  0
    0.9610   -6.8711   27.6258 C   0  0  0  0  0  0  0  0  0  0  0  0
    8.7605   -7.3538   27.5224 C   0  0  0  0  0  0  0  0  0  0  0  0
    6.7445   -8.5177   26.9280 N   0  0  0  0  0  0  0  0  0  0  0  0
    4.0338   -7.2696   15.8181 C   0  0  0  0  0  0  0  0  0  0  0  0
    2.9794   -9.4396   17.2736 C   0  0  0  0  0  0  0  0  0  0  0  0
    5.3337   -6.1262   26.9067 C   0  0  0  0  0  0  0  0  0  0  0  0
    7.4979   -7.2941   27.0521 C   0  0  0  0  0  0  0  0  0  0  0  0
   -0.0029   -5.4275   27.1825 C   0  0  0  0  0  0  0  0  0  0  0  0
    3.2859   -7.8469   26.4178 C   0  0  0  0  0  0  0  0  0  0  0  0
   -1.5596   -3.5611   26.8707 He  0  0  0  0  0  0  0  0  0  0  0  0
    3.6058   -9.1681   17.2968 He  0  0  0  0  0  0  0  0  0  0  0  0
    6.4158   -5.9780   27.0442 He  0  0  0  0  0  0  0  0  0  0  0  0
  1  4  4  0
  1 13  1  0
  1 19  4  0
  2 23  1  0
  2 24  4  0
  3  8  2  0
  3 11  4  0
  3 17  3  0
  3 20  4  0
  3 23  1  0
  3 25  4  0
  4 20  4  0
  4 22  4  0
  4 25  1  0
  5  8  4  0
  5  9  3  0
  5 13  1  0
  5 14  4  0
  6  7  4  0
  6 25  1  0
  7 14  1  0
  7 15  4  0
  7 23  4  0
  8 24  4  0
  9 14  3  0
  9 20  4  0
  9 22  4  0
 10 12  2  0
 10 20  3  0
 10 24  1  0
 11 16  1  0
 11 21  4  0
 11 24  4  0
 13 15  1  0
 13 25  3  0
 14 17  4  0
 14 25  1  0
 15 18  4  0
 16 25  1  0
 17 18  2  0
 18 21  3  0
 18 23  4  0
 19 23  4  0
M  END
$$$$

 Created by Python create_sdf_string function

 28 30  0  0  0  0  0  0  0  0999 V2000
    5.5065   -8.4975   26.5606 C   0  0  0  0  0  0  0  0  0  0  0  0
    0.1773   -6.6228   27.8587 C   0  0  0  0  0  0  0  0  0  0  0  0
    2.3240   -7.7875   15.7109 C   0  0  0  0  0  0  0  0  0  0  0  0
    4.6573   -7.4359   26.6025 C   0  0  0  0  0  0  0  0  0  0  0  0
    2.1703   -5.5406   26.2878 C   0  0  0  0  0  0  0  0  0  0  0  0
    7.1689   -4.8420   27.3526 C   0  0  0  0  0  0  0  0  0  0  0  0
    8.4991   -4.7638   27.7089 C   0  0  0  0  0  0  0  0  0  0  0  0
    0.9982   -4.7991   26.4706 C   0  0  0  0  0  0  0  0  0  0  0  0
    4.4287   -8.1480   16.8274 C   0  0  0  0  0  0  0  0  0  0  0  0
   -1.4613   -3.5709   26.8176 O   0  0  0  0  0  0  0  0  0  0  0  0
   -1.3197   -4.7754   27.3289 C   0  0  0  0  0  0  0  0  0  0  0  0
    1.8094   -8.9094   16.3932 C   0  0  0  0  0  0  0  0  0  0  0  0
    3.9281   -9.2539   17.4454 C   0  0  0  0  0  0  0  0  0  0  0  0
   -2.2795   -5.3649   27.8612 O   0  0  0  0  0  0  0  0  0  0  0  0
   10.6684   -5.8063   28.3029 C   0  0  0  0  0  0  0  0  0  0  0  0
    6.5823   -6.0794   27.1207 C   0  0  0  0  0  0  0  0  0  0  0  0
    2.2706   -6.8026   26.8165 N   0  0  0  0  0  0  0  0  0  0  0  0
    9.2851   -5.9140   27.8529 C   0  0  0  0  0  0  0  0  0  0  0  0
    0.3300   -9.3175   16.1692 Br  0  0  0  0  0  0  0  0  0  0  0  0
    1.3519   -7.3010   27.6237 C   0  0  0  0  0  0  0  0  0  0  0  0
    8.7286   -7.1563   27.5786 C   0  0  0  0  0  0  0  0  0  0  0  0
    6.8498   -8.4429   26.8766 N   0  0  0  0  0  0  0  0  0  0  0  0
    3.6450   -7.4359   15.9311 C   0  0  0  0  0  0  0  0  0  0  0  0
    2.6118   -9.6452   17.2615 C   0  0  0  0  0  0  0  0  0  0  0  0
    5.2265   -6.2387   26.8328 C   0  0  0  0  0  0  0  0  0  0  0  0
    7.3829   -7.2488   27.1961 C   0  0  0  0  0  0  0  0  0  0  0  0
   -0.0262   -5.4216   27.2470 C   0  0  0  0  0  0  0  0  0  0  0  0
    3.2741   -7.6738   26.3784 C   0  0  0  0  0  0  0  0  0  0  0  0
  1  4  4  0
  1 22  4  0
  2 20  4  0
  2 27  4  0
  3 12  4  0
  3 23  4  0
  4 25  4  0
  4 28  1  0
  5  8  4  0
  5 17  4  0
  6  7  4  0
  6 16  4  0
  7 18  4  0
  8 27  4  0
  9 13  4  0
  9 23  4  0
 10 11  1  0
 11 14  2  0
 11 27  1  0
 12 19  1  0
 12 24  4  0
 13 24  4  0
 15 18  1  0
 16 25  4  0
 16 26  4  0
 17 20  4  0
 17 28  1  0
 18 21  4  0
 21 26  4  0
 22 26  4  0
M  END
$$$$

 Created by Python create_sdf_string function

 28 45  0  0  0  0  0  0  0  0999 V2000
    5.4598   -8.4070   26.4644 C   0  0  0  0  0  0  0  0  0  0  0  0
    0.2975   -6.5831   27.8196 C   0  0  0  0  0  0  0  0  0  0  0  0
    2.2770   -7.6322   15.8689 P   0  0  0  0  0  0  0  0  0  0  0  0
    4.6782   -7.3831   26.5336 C   0  0  0  0  0  0  0  0  0  0  0  0
    2.2009   -5.4542   26.2215 C   0  0  0  0  0  0  0  0  0  0  0  0
    7.1589   -4.2704   27.2643 C   0  0  0  0  0  0  0  0  0  0  0  0
    8.3080   -4.6471   27.4761 C   0  0  0  0  0  0  0  0  0  0  0  0
    0.9978   -4.6634   26.5614 C   0  0  0  0  0  0  0  0  0  0  0  0
    4.3511   -8.0728   16.9538 C   0  0  0  0  0  0  0  0  0  0  0  0
   -1.3079   -3.5417   26.6822 O   0  0  0  0  0  0  0  0  0  0  0  0
   -1.4159   -4.9604   27.4856 C   0  0  0  0  0  0  0  0  0  0  0  0
    2.1584   -8.9930   16.3157 C   0  0  0  0  0  0  0  0  0  0  0  0
    3.9846   -8.9703   17.5731 C   0  0  0  0  0  0  0  0  0  0  0  0
   -2.2339   -5.2532   27.7489 O   0  0  0  0  0  0  0  0  0  0  0  0
   10.6926   -5.8785   28.2890 C   0  0  0  0  0  0  0  0  0  0  0  0
    6.6745   -6.0229   27.2110 C   0  0  0  0  0  0  0  0  0  0  0  0
    2.3846   -6.6509   26.8439 N   0  0  0  0  0  0  0  0  0  0  0  0
    9.2344   -5.9559   27.9076 C   0  0  0  0  0  0  0  0  0  0  0  0
    0.4423   -9.1647   16.4575 Br  0  0  0  0  0  0  0  0  0  0  0  0
    1.2058   -7.2329   27.8081 C   0  0  0  0  0  0  0  0  0  0  0  0
    8.6276   -7.0536   27.4695 C   0  0  0  0  0  0  0  0  0  0  0  0
    7.0759   -8.5311   26.7935 N   0  0  0  0  0  0  0  0  0  0  0  0
    3.9001   -7.5528   15.7988 Se  0  0  0  0  0  0  0  0  0  0  0  0
    2.6633   -9.4749   17.1167 C   0  0  0  0  0  0  0  0  0  0  0  0
    5.2842   -6.2524   26.9492 C   0  0  0  0  0  0  0  0  0  0  0  0
    7.3289   -7.1941   27.2359 C   0  0  0  0  0  0  0  0  0  0  0  0
    0.0864   -5.3125   27.1131 C   0  0  0  0  0  0  0  0  0  0  0  0
    3.2737   -7.4735   26.2888 C   0  0  0  0  0  0  0  0  0  0  0  0
  1  4  4  0
  1 14  4  0
  1 22  4  0
  2 20  4  0
  2 27  4  0
  2 28  2  0
  3 12  4  0
  3 13  2  0
  3 16  3  0
  3 23  4  0
  4 10  1  0
  4 12  2  0
  4 25  4  0
  4 28  1  0
  5  8  4  0
  5 10  4  0
  5 17  2  0
  5 28  1  0
  6 11  3  0
  6 15  1  0
  6 16  4  0
  7 18  4  0
  8 27  4  0
  9 10  3  0
  9 13  4  0
  9 23  4  0
 10 11  1  0
 11 14  2  0
 12 14  1  0
 12 19  1  0
 12 28  4  0
 13 16  4  0
 13 17  4  0
 13 24  4  0
 15 18  1  0
 15 21  3  0
 16 19  2  0
 16 25  4  0
 16 26  4  0
 17 20  1  0
 17 28  1  0
 20 21  1  0
 20 24  3  0
 21 27  4  0
 22 26  4  0
M  END
$$$$

 Created by Python create_sdf_string function

 28 30  0  0  0  0  0  0  0  0999 V2000
    5.5239   -8.4500   26.5069 C   0  0  0  0  0  0  0  0  0  0  0  0
    0.2217   -6.6060   27.8508 C   0  0  0  0  0  0  0  0  0  0  0  0
    2.4206   -7.7341   15.6973 C   0  0  0  0  0  0  0  0  0  0  0  0
    4.6961   -7.3758   26.5891 C   0  0  0  0  0  0  0  0  0  0  0  0
    2.1886   -5.4509   26.3059 C   0  0  0  0  0  0  0  0  0  0  0  0
    7.1670   -4.7407   27.3142 C   0  0  0  0  0  0  0  0  0  0  0  0
    8.5298   -4.6857   27.6510 C   0  0  0  0  0  0  0  0  0  0  0  0
    1.0102   -4.7413   26.4846 C   0  0  0  0  0  0  0  0  0  0  0  0
    4.5366   -8.0415   16.8309 C   0  0  0  0  0  0  0  0  0  0  0  0
   -1.3972   -3.5734   26.7506 O   0  0  0  0  0  0  0  0  0  0  0  0
   -1.3008   -4.7474   27.2906 C   0  0  0  0  0  0  0  0  0  0  0  0
    1.9171   -8.8276   16.4557 C   0  0  0  0  0  0  0  0  0  0  0  0
    4.0621   -9.1574   17.4996 C   0  0  0  0  0  0  0  0  0  0  0  0
   -2.2708   -5.3185   27.8221 O   0  0  0  0  0  0  0  0  0  0  0  0
   10.6991   -5.7626   28.2524 C   0  0  0  0  0  0  0  0  0  0  0  0
    6.5752   -6.0081   27.1101 C   0  0  0  0  0  0  0  0  0  0  0  0
    2.3171   -6.7135   26.8014 N   0  0  0  0  0  0  0  0  0  0  0  0
    9.2864   -5.8354   27.8068 C   0  0  0  0  0  0  0  0  0  0  0  0
    0.4236   -9.2040   16.2868 Br  0  0  0  0  0  0  0  0  0  0  0  0
    1.4035   -7.2768   27.6008 C   0  0  0  0  0  0  0  0  0  0  0  0
    8.7150   -7.0709   27.5607 C   0  0  0  0  0  0  0  0  0  0  0  0
    6.8552   -8.3913   26.8600 N   0  0  0  0  0  0  0  0  0  0  0  0
    3.7428   -7.3757   15.9284 C   0  0  0  0  0  0  0  0  0  0  0  0
    2.7310   -9.5844   17.3178 C   0  0  0  0  0  0  0  0  0  0  0  0
    5.2290   -6.1796   26.8773 C   0  0  0  0  0  0  0  0  0  0  0  0
    7.3881   -7.1676   27.1798 C   0  0  0  0  0  0  0  0  0  0  0  0
    0.0174   -5.4020   27.2375 C   0  0  0  0  0  0  0  0  0  0  0  0
    3.2970   -7.5645   26.3007 C   0  0  0  0  0  0  0  0  0  0  0  0
  1  4  4  0
  1 22  4  0
  2 20  4  0
  2 27  4  0
  3 12  4  0
  3 23  4  0
  4 25  4  0
  4 28  1  0
  5  8  4  0
  5 17  4  0
  6  7  4  0
  6 16  4  0
  7 18  4  0
  8 27  4  0
  9 13  4  0
  9 23  4  0
 10 11  1  0
 11 14  2  0
 11 27  1  0
 12 19  1  0
 12 24  4  0
 13 24  4  0
 15 18  1  0
 16 25  4  0
 16 26  4  0
 17 20  4  0
 17 28  1  0
 18 21  4  0
 21 26  4  0
 22 26  4  0
M  END
$$$$

 Created by Python create_sdf_string function

 28 41  0  0  0  0  0  0  0  0999 V2000
    5.5792   -8.4173   26.5490 C   0  0  0  0  0  0  0  0  0  0  0  0
    0.0912   -6.4819   27.8341 C   0  0  0  0  0  0  0  0  0  0  0  0
    2.3363   -8.0042   15.7508 C   0  0  0  0  0  0  0  0  0  0  0  0
    4.5949   -7.1744   26.6876 C   0  0  0  0  0  0  0  0  0  0  0  0
    2.1671   -5.4539   26.1910 C   0  0  0  0  0  0  0  0  0  0  0  0
    7.4640   -4.7296   27.3243 C   0  0  0  0  0  0  0  0  0  0  0  0
    0.9704   -4.7945   26.5396 C   0  0  0  0  0  0  0  0  0  0  0  0
    4.5476   -8.0597   16.9120 C   0  0  0  0  0  0  0  0  0  0  0  0
   -1.3584   -3.6205   26.7392 O   0  0  0  0  0  0  0  0  0  0  0  0
   -1.4059   -4.6824   27.3809 C   0  0  0  0  0  0  0  0  0  0  0  0
    2.1591   -8.7259   16.0900 N   0  0  0  0  0  0  0  0  0  0  0  0
    3.9988   -9.4462   17.7721 C   0  0  0  0  0  0  0  0  0  0  0  0
   -2.3392   -5.5837   27.7690 O   0  0  0  0  0  0  0  0  0  0  0  0
   10.5463   -5.7868   28.1263 C   0  0  0  0  0  0  0  0  0  0  0  0
    6.4753   -5.9908   27.0940 C   0  0  0  0  0  0  0  0  0  0  0  0
    2.4282   -6.7035   26.7078 N   0  0  0  0  0  0  0  0  0  0  0  0
    9.1622   -6.0063   27.9197 C   0  0  0  0  0  0  0  0  0  0  0  0
    0.3296   -9.3241   16.3815 Br  0  0  0  0  0  0  0  0  0  0  0  0
    1.2988   -7.5889   27.7201 C   0  0  0  0  0  0  0  0  0  0  0  0
    8.6799   -7.1193   27.5149 C   0  0  0  0  0  0  0  0  0  0  0  0
    6.9610   -8.3481   27.0036 C   0  0  0  0  0  0  0  0  0  0  0  0
    3.6239   -7.5268   15.5824 C   0  0  0  0  0  0  0  0  0  0  0  0
    2.5810   -9.4348   17.5625 C   0  0  0  0  0  0  0  0  0  0  0  0
    5.1681   -6.1316   26.8465 C   0  0  0  0  0  0  0  0  0  0  0  0
    7.4234   -7.2795   27.2312 C   0  0  0  0  0  0  0  0  0  0  0  0
    0.0718   -5.5107   27.1046 C   0  0  0  0  0  0  0  0  0  0  0  0
    3.3256   -7.6304   25.8913 C   0  0  0  0  0  0  0  0  0  0  0  0
    8.6166   -4.5973   27.6730 He  0  0  0  0  0  0  0  0  0  0  0  0
  1  4  4  0
  1 15  3  0
  1 18  3  0
  1 21  4  0
  1 26  3  0
  2 19  3  0
  2 23  2  0
  2 26  4  0
  3 11  4  0
  3 22  4  0
  4 15  1  0
  4 24  4  0
  5  7  4  0
  5 16  4  0
  5 17  3  0
  6  8  2  0
  6 15  4  0
  7 26  4  0
  8 12  4  0
  8 21  3  0
  8 22  4  0
  9 10  1  0
 10 13  2  0
 10 20  3  0
 10 26  1  0
 11 18  4  0
 11 20  4  0
 11 23  4  0
 12 23  4  0
 14 17  1  0
 14 25  1  0
 15 25  4  0
 16 19  4  0
 16 23  3  0
 16 27  1  0
 17 20  4  0
 17 22  1  0
 18 21  2  0
 19 23  4  0
 20 25  4  0
 21 25  4  0
M  END
$$$$

 Created by Python create_sdf_string function

 28 30  0  0  0  0  0  0  0  0999 V2000
    5.4569   -8.4261   26.6021 C   0  0  0  0  0  0  0  0  0  0  0  0
    0.1873   -6.7151   27.8036 C   0  0  0  0  0  0  0  0  0  0  0  0
    2.3974   -7.9174   15.6130 C   0  0  0  0  0  0  0  0  0  0  0  0
    4.6801   -7.3293   26.5479 C   0  0  0  0  0  0  0  0  0  0  0  0
    2.1577   -5.4976   26.2319 C   0  0  0  0  0  0  0  0  0  0  0  0
    7.2244   -4.7574   27.3392 C   0  0  0  0  0  0  0  0  0  0  0  0
    8.5508   -4.6871   27.6741 C   0  0  0  0  0  0  0  0  0  0  0  0
    0.9690   -4.7917   26.4686 C   0  0  0  0  0  0  0  0  0  0  0  0
    4.5543   -8.1689   16.7982 C   0  0  0  0  0  0  0  0  0  0  0  0
   -1.4541   -3.6327   26.8133 O   0  0  0  0  0  0  0  0  0  0  0  0
   -1.3454   -4.8313   27.2964 C   0  0  0  0  0  0  0  0  0  0  0  0
    1.8902   -8.9021   16.4937 C   0  0  0  0  0  0  0  0  0  0  0  0
    4.0124   -9.2266   17.5863 C   0  0  0  0  0  0  0  0  0  0  0  0
   -2.2985   -5.4521   27.7928 O   0  0  0  0  0  0  0  0  0  0  0  0
   10.7055   -5.7528   28.2206 C   0  0  0  0  0  0  0  0  0  0  0  0
    6.6192   -5.9978   27.1309 C   0  0  0  0  0  0  0  0  0  0  0  0
    2.2725   -6.7711   26.6853 N   0  0  0  0  0  0  0  0  0  0  0  0
    9.2959   -5.8562   27.8178 C   0  0  0  0  0  0  0  0  0  0  0  0
    0.3839   -9.3005   16.3170 Br  0  0  0  0  0  0  0  0  0  0  0  0
    1.3898   -7.3787   27.4911 C   0  0  0  0  0  0  0  0  0  0  0  0
    8.7250   -7.0688   27.6099 C   0  0  0  0  0  0  0  0  0  0  0  0
    6.8254   -8.3865   26.9867 C   0  0  0  0  0  0  0  0  0  0  0  0
    3.7510   -7.5397   15.7874 C   0  0  0  0  0  0  0  0  0  0  0  0
    2.6457   -9.6007   17.4297 C   0  0  0  0  0  0  0  0  0  0  0  0
    5.2406   -6.1336   26.8219 C   0  0  0  0  0  0  0  0  0  0  0  0
    7.4136   -7.1784   27.2482 C   0  0  0  0  0  0  0  0  0  0  0  0
   -0.0146   -5.4736   27.2201 C   0  0  0  0  0  0  0  0  0  0  0  0
    3.2937   -7.5563   26.1452 C   0  0  0  0  0  0  0  0  0  0  0  0
  1  4  4  0
  1 22  4  0
  2 20  4  0
  2 27  4  0
  3 12  4  0
  3 23  4  0
  4 25  4  0
  4 28  1  0
  5  8  4  0
  5 17  4  0
  6  7  4  0
  6 16  4  0
  7 18  4  0
  8 27  4  0
  9 13  4  0
  9 23  4  0
 10 11  1  0
 11 14  2  0
 11 27  1  0
 12 19  1  0
 12 24  4  0
 13 24  4  0
 15 18  1  0
 16 25  4  0
 16 26  4  0
 17 20  4  0
 17 28  1  0
 18 21  4  0
 21 26  4  0
 22 26  4  0
M  END
$$$$

 Created by Python create_sdf_string function

 28 41  0  0  0  0  0  0  0  0999 V2000
    5.4477   -8.5754   26.5125 C   0  0  0  0  0  0  0  0  0  0  0  0
    0.2114   -6.7398   27.7663 C   0  0  0  0  0  0  0  0  0  0  0  0
    2.5710   -7.6853   15.6776 C   0  0  0  0  0  0  0  0  0  0  0  0
    4.7027   -7.1301   26.6952 C   0  0  0  0  0  0  0  0  0  0  0  0
    2.3159   -5.5137   26.0639 C   0  0  0  0  0  0  0  0  0  0  0  0
    7.1260   -4.8225   27.1678 C   0  0  0  0  0  0  0  0  0  0  0  0
    8.4723   -4.6289   27.9228 C   0  0  0  0  0  0  0  0  0  0  0  0
    0.9147   -4.8343   26.4022 C   0  0  0  0  0  0  0  0  0  0  0  0
   -1.4820   -3.7868   26.9905 O   0  0  0  0  0  0  0  0  0  0  0  0
   -1.1358   -4.6834   27.1847 C   0  0  0  0  0  0  0  0  0  0  0  0
    4.0464   -9.3325   17.6866 C   0  0  0  0  0  0  0  0  0  0  0  0
   -2.2176   -5.5459   27.8918 O   0  0  0  0  0  0  0  0  0  0  0  0
   10.7281   -5.5465   28.3461 C   0  0  0  0  0  0  0  0  0  0  0  0
    6.4187   -5.8528   26.9656 Cl  0  0  0  0  0  0  0  0  0  0  0  0
    2.2809   -6.9861   26.6317 N   0  0  0  0  0  0  0  0  0  0  0  0
    9.2709   -5.8757   27.7816 C   0  0  0  0  0  0  0  0  0  0  0  0
    0.6348   -9.2488   16.2093 Br  0  0  0  0  0  0  0  0  0  0  0  0
    1.4575   -7.3432   27.4410 F   0  0  0  0  0  0  0  0  0  0  0  0
    8.8128   -6.9991   27.4255 C   0  0  0  0  0  0  0  0  0  0  0  0
    6.8724   -8.4270   27.1640 C   0  0  0  0  0  0  0  0  0  0  0  0
    3.4895   -7.9748   15.9789 N   0  0  0  0  0  0  0  0  0  0  0  0
    2.5981   -9.4899   17.4868 C   0  0  0  0  0  0  0  0  0  0  0  0
    5.2377   -6.1286   26.8192 C   0  0  0  0  0  0  0  0  0  0  0  0
    7.3226   -7.0975   27.1544 C   0  0  0  0  0  0  0  0  0  0  0  0
   -0.0195   -5.5068   27.2692 C   0  0  0  0  0  0  0  0  0  0  0  0
    3.2599   -7.5209   26.2302 C   0  0  0  0  0  0  0  0  0  0  0  0
    4.5368   -8.5194   16.5218 He  0  0  0  0  0  0  0  0  0  0  0  0
    1.8421   -9.0700   16.3229 He  0  0  0  0  0  0  0  0  0  0  0  0
  1  4  4  0
  1  9  3  0
  1 20  4  0
  2 18  4  0
  2 25  4  0
  3  4  2  0
  3 18  4  0
  3 21  4  0
  4 21  1  0
  4 23  4  0
  4 26  1  0
  5  8  4  0
  5 15  4  0
  5 25  4  0
  6  7  3  0
  6  8  4  0
  6 14  4  0
  6 16  1  0
  7 16  4  0
  7 22  3  0
  8  9  4  0
  8 18  4  0
  8 25  4  0
  9 10  1  0
 10 12  2  0
 10 25  1  0
 11 12  2  0
 11 22  4  0
 12 18  2  0
 13 16  1  0
 14 23  4  0
 14 24  4  0
 15 17  2  0
 15 18  4  0
 15 21  3  0
 15 26  1  0
 16 19  4  0
 19 22  1  0
 19 24  4  0
 20 24  4  0
 20 25  4  0
M  END
$$$$

 Created by Python create_sdf_string function

 28 30  0  0  0  0  0  0  0  0999 V2000
    5.4744   -8.4692   26.6841 C   0  0  0  0  0  0  0  0  0  0  0  0
    0.2369   -6.7659   27.7357 C   0  0  0  0  0  0  0  0  0  0  0  0
    2.4438   -7.9249   15.6645 C   0  0  0  0  0  0  0  0  0  0  0  0
    4.6735   -7.3770   26.5580 C   0  0  0  0  0  0  0  0  0  0  0  0
    2.1879   -5.5630   26.1869 C   0  0  0  0  0  0  0  0  0  0  0  0
    7.1344   -4.7441   27.3418 C   0  0  0  0  0  0  0  0  0  0  0  0
    8.4751   -4.6309   27.6966 C   0  0  0  0  0  0  0  0  0  0  0  0
    1.0010   -4.8555   26.4233 C   0  0  0  0  0  0  0  0  0  0  0  0
    4.5680   -8.4169   16.6849 C   0  0  0  0  0  0  0  0  0  0  0  0
   -1.4420   -3.6858   26.9217 O   0  0  0  0  0  0  0  0  0  0  0  0
   -1.2811   -4.8734   27.3562 C   0  0  0  0  0  0  0  0  0  0  0  0
    1.8695   -8.9204   16.4680 C   0  0  0  0  0  0  0  0  0  0  0  0
    4.0078   -9.3947   17.5037 C   0  0  0  0  0  0  0  0  0  0  0  0
   -2.2043   -5.5142   27.9136 O   0  0  0  0  0  0  0  0  0  0  0  0
   10.6813   -5.6173   28.2884 C   0  0  0  0  0  0  0  0  0  0  0  0
    6.5780   -6.0018   27.1044 C   0  0  0  0  0  0  0  0  0  0  0  0
    2.2958   -6.8324   26.6650 N   0  0  0  0  0  0  0  0  0  0  0  0
    9.2716   -5.7608   27.8395 C   0  0  0  0  0  0  0  0  0  0  0  0
    0.4840   -9.2486   16.2427 Br  0  0  0  0  0  0  0  0  0  0  0  0
    1.4010   -7.4262   27.4413 C   0  0  0  0  0  0  0  0  0  0  0  0
    8.7328   -7.0011   27.5701 C   0  0  0  0  0  0  0  0  0  0  0  0
    6.8480   -8.3832   27.0065 C   0  0  0  0  0  0  0  0  0  0  0  0
    3.8137   -7.7300   15.8006 C   0  0  0  0  0  0  0  0  0  0  0  0
    2.6070   -9.6584   17.4030 C   0  0  0  0  0  0  0  0  0  0  0  0
    5.2311   -6.1797   26.7549 C   0  0  0  0  0  0  0  0  0  0  0  0
    7.4039   -7.1453   27.2272 C   0  0  0  0  0  0  0  0  0  0  0  0
    0.0179   -5.5234   27.1807 C   0  0  0  0  0  0  0  0  0  0  0  0
    3.3064   -7.6423   26.1794 C   0  0  0  0  0  0  0  0  0  0  0  0
  1  4  4  0
  1 22  4  0
  2 20  4  0
  2 27  4  0
  3 12  4  0
  3 23  4  0
  4 25  4  0
  4 28  1  0
  5  8  4  0
  5 17  4  0
  6  7  4  0
  6 16  4  0
  7 18  4  0
  8 27  4  0
  9 13  4  0
  9 23  4  0
 10 11  1  0
 11 14  2  0
 11 27  1  0
 12 19  1  0
 12 24  4  0
 13 24  4  0
 15 18  1  0
 16 25  4  0
 16 26  4  0
 17 20  4  0
 17 28  1  0
 18 21  4  0
 21 26  4  0
 22 26  4  0
M  END
$$$$

 Created by Python create_sdf_string function

 28 39  0  0  0  0  0  0  0  0999 V2000
    5.3509   -8.4579   26.6995 C   0  0  0  0  0  0  0  0  0  0  0  0
    0.2111   -6.9269   27.8293 C   0  0  0  0  0  0  0  0  0  0  0  0
    2.3483   -8.1758   15.6085 C   0  0  0  0  0  0  0  0  0  0  0  0
    4.7581   -7.3606   26.5525 C   0  0  0  0  0  0  0  0  0  0  0  0
    2.1772   -5.6411   26.1708 C   0  0  0  0  0  0  0  0  0  0  0  0
    7.3995   -4.8034   27.3682 C   0  0  0  0  0  0  0  0  0  0  0  0
    8.4556   -4.5662   27.7111 C   0  0  0  0  0  0  0  0  0  0  0  0
    0.7565   -4.8351   26.4504 C   0  0  0  0  0  0  0  0  0  0  0  0
    4.3105   -8.3251   16.8385 S   0  0  0  0  0  0  0  0  0  0  0  0
   -1.5993   -3.8951   27.0489 O   0  0  0  0  0  0  0  0  0  0  0  0
   -1.1376   -4.7382   27.3640 C   0  0  0  0  0  0  0  0  0  0  0  0
    1.9072   -8.7671   16.5657 C   0  0  0  0  0  0  0  0  0  0  0  0
    3.8143   -9.3156   17.6221 C   0  0  0  0  0  0  0  0  0  0  0  0
   -2.1739   -5.6421   27.8281 O   0  0  0  0  0  0  0  0  0  0  0  0
    2.3238   -6.8829   26.5740 N   0  0  0  0  0  0  0  0  0  0  0  0
    9.2422   -5.7181   27.7824 C   0  0  0  0  0  0  0  0  0  0  0  0
    0.4171   -9.0908   16.1266 O   0  0  0  0  0  0  0  0  0  0  0  0
    1.4045   -7.5373   27.5095 C   0  0  0  0  0  0  0  0  0  0  0  0
    8.7437   -7.0159   27.5524 C   0  0  0  0  0  0  0  0  0  0  0  0
    3.9858   -7.7248   16.1821 F   0  0  0  0  0  0  0  0  0  0  0  0
    2.6473   -9.7561   17.5466 C   0  0  0  0  0  0  0  0  0  0  0  0
    7.4937   -7.1372   26.9444 C   0  0  0  0  0  0  0  0  0  0  0  0
    0.0371   -5.5975   27.1672 C   0  0  0  0  0  0  0  0  0  0  0  0
    3.0694   -7.6697   26.0707 C   0  0  0  0  0  0  0  0  0  0  0  0
   10.8181   -5.7383   28.5711 He  0  0  0  0  0  0  0  0  0  0  0  0
    6.3915   -5.8565   27.1798 He  0  0  0  0  0  0  0  0  0  0  0  0
    6.8053   -8.5427   26.8930 He  0  0  0  0  0  0  0  0  0  0  0  0
    5.1574   -6.2699   26.5772 He  0  0  0  0  0  0  0  0  0  0  0  0
  1  4  4  0
  1 13  3  0
  1 22  3  0
  2 14  2  0
  2 18  3  0
  2 22  2  0
  2 23  4  0
  3 12  4  0
  3 20  4  0
  3 23  2  0
  4  5  2  0
  4 17  3  0
  4 19  3  0
  4 22  3  0
  4 24  1  0
  5  8  4  0
  5 14  1  0
  5 15  4  0
  6  7  4  0
  6 15  1  0
  6 20  1  0
  6 24  4  0
  7 16  4  0
  8 19  2  0
  8 23  4  0
  9 13  4  0
  9 20  4  0
 10 11  1  0
 11 14  2  0
 11 23  1  0
 12 17  1  0
 12 21  4  0
 13 21  4  0
 13 24  2  0
 15 18  4  0
 15 20  2  0
 15 24  1  0
 16 19  4  0
 19 22  4  0
M  END
$$$$

 Created by Python create_sdf_string function

 28 30  0  0  0  0  0  0  0  0999 V2000
    5.4939   -8.5035   26.5986 C   0  0  0  0  0  0  0  0  0  0  0  0
    0.2264   -6.8594   27.7674 C   0  0  0  0  0  0  0  0  0  0  0  0
    2.4579   -7.9613   15.6894 C   0  0  0  0  0  0  0  0  0  0  0  0
    4.6667   -7.4183   26.5046 C   0  0  0  0  0  0  0  0  0  0  0  0
    2.1454   -5.6297   26.1884 C   0  0  0  0  0  0  0  0  0  0  0  0
    7.1144   -4.7725   27.2905 C   0  0  0  0  0  0  0  0  0  0  0  0
    8.4420   -4.6633   27.7148 C   0  0  0  0  0  0  0  0  0  0  0  0
    0.9569   -4.9181   26.4659 C   0  0  0  0  0  0  0  0  0  0  0  0
    4.5017   -8.3899   16.9378 C   0  0  0  0  0  0  0  0  0  0  0  0
   -1.5007   -3.7892   26.9873 O   0  0  0  0  0  0  0  0  0  0  0  0
   -1.3204   -4.9774   27.4021 C   0  0  0  0  0  0  0  0  0  0  0  0
    1.8269   -8.9508   16.4617 C   0  0  0  0  0  0  0  0  0  0  0  0
    3.8796   -9.4213   17.6344 C   0  0  0  0  0  0  0  0  0  0  0  0
   -2.2415   -5.6139   27.9739 O   0  0  0  0  0  0  0  0  0  0  0  0
   10.6486   -5.6889   28.3755 C   0  0  0  0  0  0  0  0  0  0  0  0
    6.5565   -6.0205   27.0555 C   0  0  0  0  0  0  0  0  0  0  0  0
    2.2914   -6.9015   26.6365 N   0  0  0  0  0  0  0  0  0  0  0  0
    9.2466   -5.7869   27.8677 C   0  0  0  0  0  0  0  0  0  0  0  0
    0.5307   -9.1555   16.2663 O   0  0  0  0  0  0  0  0  0  0  0  0
    1.4209   -7.5138   27.4333 C   0  0  0  0  0  0  0  0  0  0  0  0
    8.7270   -7.0104   27.5694 C   0  0  0  0  0  0  0  0  0  0  0  0
    6.8453   -8.4145   26.9890 N   0  0  0  0  0  0  0  0  0  0  0  0
    3.8162   -7.7017   15.9461 C   0  0  0  0  0  0  0  0  0  0  0  0
    2.5115   -9.6957   17.4101 C   0  0  0  0  0  0  0  0  0  0  0  0
    5.2161   -6.2239   26.7170 C   0  0  0  0  0  0  0  0  0  0  0  0
    7.3828   -7.1688   27.1992 C   0  0  0  0  0  0  0  0  0  0  0  0
   -0.0158   -5.6167   27.2300 C   0  0  0  0  0  0  0  0  0  0  0  0
    3.3148   -7.6525   26.1109 C   0  0  0  0  0  0  0  0  0  0  0  0
  1  4  4  0
  1 22  4  0
  2 20  4  0
  2 27  4  0
  3 12  4  0
  3 23  4  0
  4 25  4  0
  4 28  1  0
  5  8  4  0
  5 17  4  0
  6  7  4  0
  6 16  4  0
  7 18  4  0
  8 27  4  0
  9 13  4  0
  9 23  4  0
 10 11  1  0
 11 14  2  0
 11 27  1  0
 12 19  1  0
 12 24  4  0
 13 24  4  0
 15 18  1  0
 16 25  4  0
 16 26  4  0
 17 20  4  0
 17 28  1  0
 18 21  4  0
 21 26  4  0
 22 26  4  0
M  END
$$$$

 Created by Python create_sdf_string function

 28 42  0  0  0  0  0  0  0  0999 V2000
    5.4822   -8.5005   26.7157 C   0  0  0  0  0  0  0  0  0  0  0  0
    0.1218   -7.0546   27.7776 C   0  0  0  0  0  0  0  0  0  0  0  0
    2.4587   -7.8196   15.5819 C   0  0  0  0  0  0  0  0  0  0  0  0
    4.7242   -7.5536   26.5855 C   0  0  0  0  0  0  0  0  0  0  0  0
    2.1742   -5.5439   26.0954 C   0  0  0  0  0  0  0  0  0  0  0  0
    7.2074   -4.4886   27.1920 C   0  0  0  0  0  0  0  0  0  0  0  0
    8.3777   -4.5480   27.6048 C   0  0  0  0  0  0  0  0  0  0  0  0
    0.9694   -5.0127   26.5379 C   0  0  0  0  0  0  0  0  0  0  0  0
   -1.6143   -3.7834   26.9714 O   0  0  0  0  0  0  0  0  0  0  0  0
   -1.1908   -4.9145   27.3288 C   0  0  0  0  0  0  0  0  0  0  0  0
    1.8993   -9.1087   16.4451 O   0  0  0  0  0  0  0  0  0  0  0  0
    3.8656   -9.5600   17.4611 C   0  0  0  0  0  0  0  0  0  0  0  0
   -2.1655   -5.7258   28.0419 O   0  0  0  0  0  0  0  0  0  0  0  0
   10.5605   -5.6128   28.3582 C   0  0  0  0  0  0  0  0  0  0  0  0
    6.4993   -6.2976   26.9847 O   0  0  0  0  0  0  0  0  0  0  0  0
    2.1458   -7.0006   26.5857 N   0  0  0  0  0  0  0  0  0  0  0  0
    9.0792   -5.7370   27.8922 C   0  0  0  0  0  0  0  0  0  0  0  0
    0.3369   -9.1691   16.4334 O   0  0  0  0  0  0  0  0  0  0  0  0
    1.6777   -7.5838   27.5343 C   0  0  0  0  0  0  0  0  0  0  0  0
    8.8371   -7.0674   27.4020 P   0  0  0  0  0  0  0  0  0  0  0  0
    6.7931   -8.4416   27.0381 N   0  0  0  0  0  0  0  0  0  0  0  0
    3.7676   -7.8358   16.0448 C   0  0  0  0  0  0  0  0  0  0  0  0
    2.4189   -9.7323   17.2158 C   0  0  0  0  0  0  0  0  0  0  0  0
    5.2840   -6.3169   26.6500 C   0  0  0  0  0  0  0  0  0  0  0  0
    7.4586   -7.0822   27.2742 N   0  0  0  0  0  0  0  0  0  0  0  0
   -0.0213   -5.6207   27.0226 C   0  0  0  0  0  0  0  0  0  0  0  0
    3.4498   -7.5830   26.1262 C   0  0  0  0  0  0  0  0  0  0  0  0
    4.3898   -8.2551   16.7026 He  0  0  0  0  0  0  0  0  0  0  0  0
  1  3  1  0
  1  4  4  0
  1 21  4  0
  2  6  1  0
  2 19  4  0
  2 26  4  0
  3  6  1  0
  3 11  4  0
  3 22  4  0
  4 24  4  0
  4 27  1  0
  5  8  4  0
  5 16  4  0
  6  7  4  0
  6 12  2  0
  6 15  4  0
  6 20  4  0
  7 11  4  0
  7 17  4  0
  8 19  1  0
  8 26  4  0
  9 10  1  0
 10 13  2  0
 10 14  4  0
 10 26  1  0
 11 18  1  0
 11 23  4  0
 12 23  4  0
 12 27  4  0
 13 26  3  0
 14 19  1  0
 15 23  2  0
 15 24  4  0
 15 25  4  0
 16 19  2  0
 16 27  1  0
 17 20  4  0
 18 19  4  0
 18 20  2  0
 18 27  4  0
 20 25  4  0
 21 25  4  0
M  END
$$$$

 Created by Python create_sdf_string function

 28 30  0  0  0  0  0  0  0  0999 V2000
    5.5500   -8.5378   26.7118 C   0  0  0  0  0  0  0  0  0  0  0  0
    0.2545   -6.9349   27.7357 C   0  0  0  0  0  0  0  0  0  0  0  0
    2.3650   -7.9238   15.6957 C   0  0  0  0  0  0  0  0  0  0  0  0
    4.7177   -7.4793   26.5180 C   0  0  0  0  0  0  0  0  0  0  0  0
    2.1497   -5.6552   26.1746 C   0  0  0  0  0  0  0  0  0  0  0  0
    7.1009   -4.7663   27.1922 C   0  0  0  0  0  0  0  0  0  0  0  0
    8.4245   -4.6222   27.6041 C   0  0  0  0  0  0  0  0  0  0  0  0
    0.9403   -4.9892   26.4350 C   0  0  0  0  0  0  0  0  0  0  0  0
    4.4767   -8.4314   16.7768 C   0  0  0  0  0  0  0  0  0  0  0  0
   -1.5020   -3.8479   26.9414 O   0  0  0  0  0  0  0  0  0  0  0  0
   -1.3087   -5.0359   27.4131 C   0  0  0  0  0  0  0  0  0  0  0  0
    1.7693   -8.9623   16.4407 C   0  0  0  0  0  0  0  0  0  0  0  0
    3.8821   -9.5235   17.4460 C   0  0  0  0  0  0  0  0  0  0  0  0
   -2.1860   -5.6778   28.0397 O   0  0  0  0  0  0  0  0  0  0  0  0
   10.5949   -5.5905   28.3114 C   0  0  0  0  0  0  0  0  0  0  0  0
    6.5636   -6.0454   27.0075 C   0  0  0  0  0  0  0  0  0  0  0  0
    2.3207   -6.9382   26.6299 N   0  0  0  0  0  0  0  0  0  0  0  0
    9.2098   -5.7410   27.8086 C   0  0  0  0  0  0  0  0  0  0  0  0
    0.4482   -9.1585   16.3207 O   0  0  0  0  0  0  0  0  0  0  0  0
    1.4458   -7.5713   27.4087 C   0  0  0  0  0  0  0  0  0  0  0  0
    8.7215   -6.9946   27.5864 C   0  0  0  0  0  0  0  0  0  0  0  0
    6.8903   -8.4181   27.0748 N   0  0  0  0  0  0  0  0  0  0  0  0
    3.7384   -7.6754   15.9003 C   0  0  0  0  0  0  0  0  0  0  0  0
    2.4902   -9.7800   17.2643 C   0  0  0  0  0  0  0  0  0  0  0  0
    5.2809   -6.2863   26.6825 C   0  0  0  0  0  0  0  0  0  0  0  0
    7.4067   -7.1755   27.2137 C   0  0  0  0  0  0  0  0  0  0  0  0
    0.0044   -5.6774   27.2103 C   0  0  0  0  0  0  0  0  0  0  0  0
    3.3814   -7.7091   26.1067 C   0  0  0  0  0  0  0  0  0  0  0  0
  1  4  4  0
  1 22  4  0
  2 20  4  0
  2 27  4  0
  3 12  4  0
  3 23  4  0
  4 25  4  0
  4 28  1  0
  5  8  4  0
  5 17  4  0
  6  7  4  0
  6 16  4  0
  7 18  4  0
  8 27  4  0
  9 13  4  0
  9 23  4  0
 10 11  1  0
 11 14  2  0
 11 27  1  0
 12 19  1  0
 12 24  4  0
 13 24  4  0
 15 18  1  0
 16 25  4  0
 16 26  4  0
 17 20  4  0
 17 28  1  0
 18 21  4  0
 21 26  4  0
 22 26  4  0
M  END
$$$$

 Created by Python create_sdf_string function

 28 43  0  0  0  0  0  0  0  0999 V2000
    5.6284   -8.7365   26.6480 C   0  0  0  0  0  0  0  0  0  0  0  0
    0.3987   -6.8819   27.5938 C   0  0  0  0  0  0  0  0  0  0  0  0
    2.4055   -8.0030   15.5506 F   0  0  0  0  0  0  0  0  0  0  0  0
    4.9017   -7.6467   26.6201 C   0  0  0  0  0  0  0  0  0  0  0  0
    2.1674   -5.5928   26.1423 C   0  0  0  0  0  0  0  0  0  0  0  0
    7.1732   -4.9389   27.0750 C   0  0  0  0  0  0  0  0  0  0  0  0
    8.5895   -4.6348   27.5311 C   0  0  0  0  0  0  0  0  0  0  0  0
    0.9265   -4.9081   26.5563 C   0  0  0  0  0  0  0  0  0  0  0  0
    4.3198   -8.2138   16.9469 C   0  0  0  0  0  0  0  0  0  0  0  0
   -1.4240   -3.7190   26.9172 O   0  0  0  0  0  0  0  0  0  0  0  0
   -1.2525   -5.0522   27.3990 C   0  0  0  0  0  0  0  0  0  0  0  0
    1.8351   -9.2265   16.5134 C   0  0  0  0  0  0  0  0  0  0  0  0
    3.6738   -9.6159   17.4888 F   0  0  0  0  0  0  0  0  0  0  0  0
   -2.1336   -5.7811   28.2239 O   0  0  0  0  0  0  0  0  0  0  0  0
   10.4844   -5.4816   28.3978 C   0  0  0  0  0  0  0  0  0  0  0  0
    6.5877   -5.8398   26.8576 C   0  0  0  0  0  0  0  0  0  0  0  0
    2.3110   -6.9245   26.8419 N   0  0  0  0  0  0  0  0  0  0  0  0
    9.1199   -5.7615   27.8074 C   0  0  0  0  0  0  0  0  0  0  0  0
    0.4417   -9.1658   16.3192 O   0  0  0  0  0  0  0  0  0  0  0  0
    1.3738   -7.5792   27.4755 C   0  0  0  0  0  0  0  0  0  0  0  0
    8.6752   -6.8998   27.7831 C   0  0  0  0  0  0  0  0  0  0  0  0
    6.9593   -8.3887   27.0694 N   0  0  0  0  0  0  0  0  0  0  0  0
    3.5360   -7.8133   15.8338 C   0  0  0  0  0  0  0  0  0  0  0  0
    2.4263   -9.7234   17.4933 C   0  0  0  0  0  0  0  0  0  0  0  0
    5.1132   -6.1435   26.7952 C   0  0  0  0  0  0  0  0  0  0  0  0
    7.1957   -7.3134   27.0305 C   0  0  0  0  0  0  0  0  0  0  0  0
   -0.0217   -5.8882   27.1249 C   0  0  0  0  0  0  0  0  0  0  0  0
    3.3950   -7.5989   25.9828 He  0  0  0  0  0  0  0  0  0  0  0  0
  1 22  4  0
  2 20  4  0
  2 27  4  0
  3 12  4  0
  3 23  4  0
  3 26  1  0
  4  7  4  0
  4 13  3  0
  4 15  1  0
  4 25  4  0
  5  8  4  0
  5 17  4  0
  6  7  4  0
  6 16  4  0
  7 15  2  0
  7 18  4  0
  7 20  4  0
  8 13  3  0
  8 27  4  0
  9 13  4  0
  9 19  3  0
  9 23  4  0
 10 11  1  0
 11 14  2  0
 11 27  1  0
 12 19  1  0
 12 21  3  0
 12 23  1  0
 12 24  4  0
 13 24  4  0
 15 18  1  0
 15 23  4  0
 16 19  4  0
 16 26  4  0
 17 20  4  0
 18 21  4  0
 19 22  1  0
 19 25  4  0
 20 21  4  0
 20 22  2  0
 20 26  1  0
 21 26  4  0
 22 26  4  0
M  END
$$$$

 Created by Python create_sdf_string function

 28 30  0  0  0  0  0  0  0  0999 V2000
    5.5702   -8.5903   26.6576 C   0  0  0  0  0  0  0  0  0  0  0  0
    0.2749   -6.9823   27.6994 C   0  0  0  0  0  0  0  0  0  0  0  0
    2.2941   -8.0822   15.6425 C   0  0  0  0  0  0  0  0  0  0  0  0
    4.7285   -7.4934   26.5190 C   0  0  0  0  0  0  0  0  0  0  0  0
    2.1808   -5.6408   26.2234 C   0  0  0  0  0  0  0  0  0  0  0  0
    7.1167   -4.7608   27.0611 C   0  0  0  0  0  0  0  0  0  0  0  0
    8.4235   -4.6146   27.4994 C   0  0  0  0  0  0  0  0  0  0  0  0
    0.9656   -4.9863   26.4709 C   0  0  0  0  0  0  0  0  0  0  0  0
    4.3769   -8.4235   16.8629 C   0  0  0  0  0  0  0  0  0  0  0  0
   -1.4648   -3.8724   26.9643 O   0  0  0  0  0  0  0  0  0  0  0  0
   -1.2791   -5.0693   27.4664 C   0  0  0  0  0  0  0  0  0  0  0  0
    1.7205   -9.0592   16.4562 C   0  0  0  0  0  0  0  0  0  0  0  0
    3.7876   -9.4714   17.5893 C   0  0  0  0  0  0  0  0  0  0  0  0
   -2.1269   -5.6857   28.1408 O   0  0  0  0  0  0  0  0  0  0  0  0
   10.5323   -5.5268   28.3847 C   0  0  0  0  0  0  0  0  0  0  0  0
    6.5504   -6.0418   26.9968 C   0  0  0  0  0  0  0  0  0  0  0  0
    2.3500   -6.9301   26.6322 N   0  0  0  0  0  0  0  0  0  0  0  0
    9.1867   -5.7122   27.8430 C   0  0  0  0  0  0  0  0  0  0  0  0
    0.4243   -9.2884   16.2986 O   0  0  0  0  0  0  0  0  0  0  0  0
    1.4741   -7.5913   27.3778 C   0  0  0  0  0  0  0  0  0  0  0  0
    8.6769   -6.9721   27.6662 C   0  0  0  0  0  0  0  0  0  0  0  0
    6.8969   -8.4320   27.0571 N   0  0  0  0  0  0  0  0  0  0  0  0
    3.6418   -7.7659   15.9004 C   0  0  0  0  0  0  0  0  0  0  0  0
    2.4355   -9.8036   17.3937 C   0  0  0  0  0  0  0  0  0  0  0  0
    5.2497   -6.2692   26.6697 C   0  0  0  0  0  0  0  0  0  0  0  0
    7.3745   -7.1713   27.2542 C   0  0  0  0  0  0  0  0  0  0  0  0
    0.0166   -5.7154   27.2256 C   0  0  0  0  0  0  0  0  0  0  0  0
    3.3781   -7.7087   26.1321 C   0  0  0  0  0  0  0  0  0  0  0  0
  1  4  4  0
  1 22  4  0
  2 20  4  0
  2 27  4  0
  3 12  4  0
  3 23  4  0
  4 25  4  0
  4 28  1  0
  5  8  4  0
  5 17  4  0
  6  7  4  0
  6 16  4  0
  7 18  4  0
  8 27  4  0
  9 13  4  0
  9 23  4  0
 10 11  1  0
 11 14  2  0
 11 27  1  0
 12 19  1  0
 12 24  4  0
 13 24  4  0
 15 18  1  0
 16 25  4  0
 16 26  4  0
 17 20  4  0
 17 28  1  0
 18 21  4  0
 21 26  4  0
 22 26  4  0
M  END
$$$$

 Created by Python create_sdf_string function

 28 38  0  0  0  0  0  0  0  0999 V2000
    5.6319   -8.5106   26.6040 C   0  0  0  0  0  0  0  0  0  0  0  0
    0.4371   -6.9668   27.5595 C   0  0  0  0  0  0  0  0  0  0  0  0
    2.2602   -8.0365   15.7395 C   0  0  0  0  0  0  0  0  0  0  0  0
    4.6799   -7.6485   26.3410 C   0  0  0  0  0  0  0  0  0  0  0  0
    2.1370   -5.6686   26.2922 C   0  0  0  0  0  0  0  0  0  0  0  0
    7.0859   -4.6819   26.6848 C   0  0  0  0  0  0  0  0  0  0  0  0
    8.3708   -4.3180   27.4250 C   0  0  0  0  0  0  0  0  0  0  0  0
    0.9457   -4.9198   26.4636 C   0  0  0  0  0  0  0  0  0  0  0  0
    4.3290   -8.4234   16.7974 C   0  0  0  0  0  0  0  0  0  0  0  0
   -1.5126   -4.0972   27.1292 N   0  0  0  0  0  0  0  0  0  0  0  0
    1.7313   -9.0488   16.5201 C   0  0  0  0  0  0  0  0  0  0  0  0
    3.8686   -9.5640   17.5460 C   0  0  0  0  0  0  0  0  0  0  0  0
   -2.1152   -5.5536   28.1004 O   0  0  0  0  0  0  0  0  0  0  0  0
   10.4462   -5.6617   28.4161 C   0  0  0  0  0  0  0  0  0  0  0  0
    6.4797   -5.9635   26.9202 C   0  0  0  0  0  0  0  0  0  0  0  0
    2.2449   -6.8663   26.5071 N   0  0  0  0  0  0  0  0  0  0  0  0
    9.2305   -5.8083   27.8309 C   0  0  0  0  0  0  0  0  0  0  0  0
    0.4593   -9.4111   16.3988 O   0  0  0  0  0  0  0  0  0  0  0  0
    1.3814   -7.5533   27.3880 C   0  0  0  0  0  0  0  0  0  0  0  0
    8.6831   -6.9033   27.7032 F   0  0  0  0  0  0  0  0  0  0  0  0
    6.9891   -8.3416   27.0573 N   0  0  0  0  0  0  0  0  0  0  0  0
    3.5142   -7.9941   16.2181 C   0  0  0  0  0  0  0  0  0  0  0  0
    2.7188   -9.7227   17.3724 C   0  0  0  0  0  0  0  0  0  0  0  0
    5.2704   -6.1717   26.7730 C   0  0  0  0  0  0  0  0  0  0  0  0
    7.4157   -7.3066   27.2662 C   0  0  0  0  0  0  0  0  0  0  0  0
   -0.1664   -5.6495   27.2288 C   0  0  0  0  0  0  0  0  0  0  0  0
    3.4553   -7.6815   26.0633 C   0  0  0  0  0  0  0  0  0  0  0  0
   -1.3352   -5.0898   27.5396 He  0  0  0  0  0  0  0  0  0  0  0  0
  1  8  1  0
  1 21  4  0
  2 19  1  0
  2 26  4  0
  3 11  2  0
  3 14  3  0
  3 22  4  0
  3 24  2  0
  4 24  4  0
  4 27  1  0
  5  8  4  0
  5 16  4  0
  6  7  4  0
  6 15  4  0
  7 12  2  0
  7 17  4  0
  8 12  4  0
  8 26  4  0
  9 12  4  0
  9 22  4  0
 10 27  1  0
 11 18  1  0
 11 23  4  0
 12 23  4  0
 13 25  4  0
 14 17  1  0
 14 27  1  0
 15 24  4  0
 15 25  4  0
 16 19  4  0
 16 27  1  0
 17 18  4  0
 17 20  4  0
 18 27  3  0
 19 25  1  0
 19 26  3  0
 21 25  4  0
 23 24  2  0
M  END
$$$$

 Created by Python create_sdf_string function

 28 30  0  0  0  0  0  0  0  0999 V2000
    5.5837   -8.5402   26.6228 C   0  0  0  0  0  0  0  0  0  0  0  0
    0.2671   -6.9948   27.6819 C   0  0  0  0  0  0  0  0  0  0  0  0
    2.2800   -8.0206   15.8066 C   0  0  0  0  0  0  0  0  0  0  0  0
    4.7282   -7.4725   26.4510 C   0  0  0  0  0  0  0  0  0  0  0  0
    2.1674   -5.6539   26.2032 C   0  0  0  0  0  0  0  0  0  0  0  0
    7.0837   -4.7091   26.9478 C   0  0  0  0  0  0  0  0  0  0  0  0
    8.3924   -4.5532   27.3646 C   0  0  0  0  0  0  0  0  0  0  0  0
    0.9641   -5.0005   26.5114 C   0  0  0  0  0  0  0  0  0  0  0  0
    4.4232   -8.4474   16.8371 C   0  0  0  0  0  0  0  0  0  0  0  0
   -1.4988   -3.9003   27.0240 N   0  0  0  0  0  0  0  0  0  0  0  0
   -1.2975   -5.0992   27.5148 C   0  0  0  0  0  0  0  0  0  0  0  0
    1.7516   -9.1192   16.5517 C   0  0  0  0  0  0  0  0  0  0  0  0
    3.8888   -9.5557   17.5320 C   0  0  0  0  0  0  0  0  0  0  0  0
   -2.1776   -5.6882   28.1915 O   0  0  0  0  0  0  0  0  0  0  0  0
   10.4896   -5.5001   28.3770 C   0  0  0  0  0  0  0  0  0  0  0  0
    6.5279   -5.9954   26.8978 C   0  0  0  0  0  0  0  0  0  0  0  0
    2.3373   -6.9396   26.5815 N   0  0  0  0  0  0  0  0  0  0  0  0
    9.1513   -5.6579   27.8029 C   0  0  0  0  0  0  0  0  0  0  0  0
    0.4477   -9.4123   16.4061 O   0  0  0  0  0  0  0  0  0  0  0  0
    1.4620   -7.6195   27.3013 C   0  0  0  0  0  0  0  0  0  0  0  0
    8.6393   -6.9006   27.6887 N   0  0  0  0  0  0  0  0  0  0  0  0
    6.8962   -8.3842   27.0754 N   0  0  0  0  0  0  0  0  0  0  0  0
    3.6248   -7.7295   15.9859 C   0  0  0  0  0  0  0  0  0  0  0  0
    2.5316   -9.8735   17.3870 C   0  0  0  0  0  0  0  0  0  0  0  0
    5.2433   -6.2452   26.5817 C   0  0  0  0  0  0  0  0  0  0  0  0
    7.3713   -7.1056   27.2224 C   0  0  0  0  0  0  0  0  0  0  0  0
    0.0025   -5.7377   27.2477 C   0  0  0  0  0  0  0  0  0  0  0  0
    3.3762   -7.7020   26.0455 C   0  0  0  0  0  0  0  0  0  0  0  0
  1  4  4  0
  1 22  4  0
  2 20  4  0
  2 27  4  0
  3 12  4  0
  3 23  4  0
  4 25  4  0
  4 28  1  0
  5  8  4  0
  5 17  4  0
  6  7  4  0
  6 16  4  0
  7 18  4  0
  8 27  4  0
  9 13  4  0
  9 23  4  0
 10 11  1  0
 11 14  2  0
 11 27  1  0
 12 19  1  0
 12 24  4  0
 13 24  4  0
 15 18  1  0
 16 25  4  0
 16 26  4  0
 17 20  4  0
 17 28  1  0
 18 21  4  0
 21 26  4  0
 22 26  4  0
M  END
$$$$

 Created by Python create_sdf_string function

 28 37  0  0  0  0  0  0  0  0999 V2000
    5.6174   -8.4850   26.6005 C   0  0  0  0  0  0  0  0  0  0  0  0
    0.2559   -6.9950   27.6732 C   0  0  0  0  0  0  0  0  0  0  0  0
    2.2722   -8.0978   15.8583 C   0  0  0  0  0  0  0  0  0  0  0  0
    4.7942   -7.4618   26.5597 C   0  0  0  0  0  0  0  0  0  0  0  0
    2.1001   -5.6503   26.1988 C   0  0  0  0  0  0  0  0  0  0  0  0
    7.1370   -4.6703   27.0507 C   0  0  0  0  0  0  0  0  0  0  0  0
    8.4754   -4.4723   27.3461 C   0  0  0  0  0  0  0  0  0  0  0  0
    1.0466   -4.9610   26.4356 C   0  0  0  0  0  0  0  0  0  0  0  0
    4.3694   -8.4588   16.9187 C   0  0  0  0  0  0  0  0  0  0  0  0
   -1.4194   -4.0542   27.1671 N   0  0  0  0  0  0  0  0  0  0  0  0
   -1.3085   -5.0788   27.5869 C   0  0  0  0  0  0  0  0  0  0  0  0
    3.8130   -9.5552   17.4445 C   0  0  0  0  0  0  0  0  0  0  0  0
   -2.0497   -5.7750   28.2830 O   0  0  0  0  0  0  0  0  0  0  0  0
   10.4048   -5.4083   28.2685 C   0  0  0  0  0  0  0  0  0  0  0  0
    6.5683   -6.0090   27.0431 C   0  0  0  0  0  0  0  0  0  0  0  0
    2.3756   -6.9779   26.4953 N   0  0  0  0  0  0  0  0  0  0  0  0
    8.9615   -5.7242   27.8871 C   0  0  0  0  0  0  0  0  0  0  0  0
    0.5259   -9.6277   16.2290 O   0  0  0  0  0  0  0  0  0  0  0  0
    1.4429   -7.4611   27.2332 C   0  0  0  0  0  0  0  0  0  0  0  0
    8.6352   -6.9857   27.8413 F   0  0  0  0  0  0  0  0  0  0  0  0
    6.8151   -8.2881   26.8857 N   0  0  0  0  0  0  0  0  0  0  0  0
    3.4569   -7.6387   16.0352 C   0  0  0  0  0  0  0  0  0  0  0  0
    2.4954   -9.6323   17.4585 C   0  0  0  0  0  0  0  0  0  0  0  0
    5.2502   -6.3163   26.6289 C   0  0  0  0  0  0  0  0  0  0  0  0
    7.3502   -7.1402   27.1579 C   0  0  0  0  0  0  0  0  0  0  0  0
    3.4052   -7.5484   26.0374 C   0  0  0  0  0  0  0  0  0  0  0  0
    1.5150   -9.0378   16.2650 He  0  0  0  0  0  0  0  0  0  0  0  0
   -0.0133   -5.8621   27.3376 He  0  0  0  0  0  0  0  0  0  0  0  0
  1  4  4  0
  1 21  4  0
  2 19  4  0
  3  4  1  0
  3 22  4  0
  4  7  4  0
  4 13  4  0
  4 24  4  0
  4 26  1  0
  5  8  4  0
  5 16  4  0
  5 26  4  0
  6  7  4  0
  6 15  4  0
  7 17  4  0
  7 21  1  0
  8  9  4  0
  8 12  4  0
  8 22  3  0
  9 12  4  0
  9 17  4  0
  9 18  2  0
 10 11  1  0
 12 23  4  0
 14 17  1  0
 14 18  1  0
 14 21  4  0
 15 24  4  0
 15 25  4  0
 16 19  4  0
 16 26  1  0
 17 20  4  0
 19 24  4  0
 20 24  1  0
 20 25  4  0
 21 25  4  0
 22 23  2  0
M  END
$$$$

 Created by Python create_sdf_string function

 28 30  0  0  0  0  0  0  0  0999 V2000
    5.5917   -8.4839   26.5862 C   0  0  0  0  0  0  0  0  0  0  0  0
    0.2954   -7.0431   27.6781 C   0  0  0  0  0  0  0  0  0  0  0  0
    2.2183   -8.0081   15.7936 C   0  0  0  0  0  0  0  0  0  0  0  0
    4.7401   -7.4340   26.4367 C   0  0  0  0  0  0  0  0  0  0  0  0
    2.1315   -5.6400   26.1792 C   0  0  0  0  0  0  0  0  0  0  0  0
    7.0871   -4.6854   27.0401 C   0  0  0  0  0  0  0  0  0  0  0  0
    8.3898   -4.5364   27.4717 C   0  0  0  0  0  0  0  0  0  0  0  0
    0.9458   -5.0130   26.5199 C   0  0  0  0  0  0  0  0  0  0  0  0
    4.3526   -8.3974   16.8659 C   0  0  0  0  0  0  0  0  0  0  0  0
   -1.4952   -3.9251   27.1409 N   0  0  0  0  0  0  0  0  0  0  0  0
   -1.2539   -5.1358   27.6004 C   0  0  0  0  0  0  0  0  0  0  0  0
    1.7027   -9.1157   16.4589 C   0  0  0  0  0  0  0  0  0  0  0  0
    3.8109   -9.5054   17.5254 C   0  0  0  0  0  0  0  0  0  0  0  0
   -2.0860   -5.7605   28.2967 O   0  0  0  0  0  0  0  0  0  0  0  0
   10.4853   -5.4624   28.3365 C   0  0  0  0  0  0  0  0  0  0  0  0
    6.5312   -5.9750   26.9637 C   0  0  0  0  0  0  0  0  0  0  0  0
    2.3391   -6.9416   26.5527 N   0  0  0  0  0  0  0  0  0  0  0  0
    9.1385   -5.6440   27.8261 C   0  0  0  0  0  0  0  0  0  0  0  0
    0.4589   -9.5138   16.2178 O   0  0  0  0  0  0  0  0  0  0  0  0
    1.4708   -7.6414   27.2760 C   0  0  0  0  0  0  0  0  0  0  0  0
    8.6252   -6.8985   27.6982 N   0  0  0  0  0  0  0  0  0  0  0  0
    6.8822   -8.3581   27.0426 N   0  0  0  0  0  0  0  0  0  0  0  0
    3.5540   -7.6373   15.9946 C   0  0  0  0  0  0  0  0  0  0  0  0
    2.4539   -9.8335   17.3245 C   0  0  0  0  0  0  0  0  0  0  0  0
    5.2464   -6.2226   26.6390 C   0  0  0  0  0  0  0  0  0  0  0  0
    7.3546   -7.0899   27.2419 C   0  0  0  0  0  0  0  0  0  0  0  0
    0.0252   -5.7708   27.2736 C   0  0  0  0  0  0  0  0  0  0  0  0
    3.3877   -7.6752   26.0239 C   0  0  0  0  0  0  0  0  0  0  0  0
  1  4  4  0
  1 22  4  0
  2 20  4  0
  2 27  4  0
  3 12  4  0
  3 23  4  0
  4 25  4  0
  4 28  1  0
  5  8  4  0
  5 17  4  0
  6  7  4  0
  6 16  4  0
  7 18  4  0
  8 27  4  0
  9 13  4  0
  9 23  4  0
 10 11  1  0
 11 14  2  0
 11 27  1  0
 12 19  1  0
 12 24  4  0
 13 24  4  0
 15 18  1  0
 16 25  4  0
 16 26  4  0
 17 20  4  0
 17 28  1  0
 18 21  4  0
 21 26  4  0
 22 26  4  0
M  END
$$$$

 Created by Python create_sdf_string function

 28 28  0  0  0  0  0  0  0  0999 V2000
    5.6420   -8.3524   26.4534 C   0  0  0  0  0  0  0  0  0  0  0  0
    0.3841   -6.9128   27.7258 C   0  0  0  0  0  0  0  0  0  0  0  0
    2.2052   -8.0108   15.8710 C   0  0  0  0  0  0  0  0  0  0  0  0
    4.6301   -7.4570   26.3390 C   0  0  0  0  0  0  0  0  0  0  0  0
    2.0276   -5.6415   26.1979 C   0  0  0  0  0  0  0  0  0  0  0  0
    7.0792   -4.6408   27.0339 C   0  0  0  0  0  0  0  0  0  0  0  0
    8.3367   -4.4737   27.4563 C   0  0  0  0  0  0  0  0  0  0  0  0
    0.9819   -4.9851   26.5033 C   0  0  0  0  0  0  0  0  0  0  0  0
    4.4602   -8.4067   16.9134 C   0  0  0  0  0  0  0  0  0  0  0  0
   -1.5137   -3.8983   27.3152 N   0  0  0  0  0  0  0  0  0  0  0  0
   -1.2167   -5.1694   27.5930 C   0  0  0  0  0  0  0  0  0  0  0  0
    1.7466   -9.1515   16.4216 C   0  0  0  0  0  0  0  0  0  0  0  0
    3.9672   -9.4331   17.3349 C   0  0  0  0  0  0  0  0  0  0  0  0
   -2.1856   -5.6320   28.4024 O   0  0  0  0  0  0  0  0  0  0  0  0
   10.5766   -5.5281   28.5454 C   0  0  0  0  0  0  0  0  0  0  0  0
    6.5179   -5.9374   26.9133 C   0  0  0  0  0  0  0  0  0  0  0  0
    2.1581   -6.9098   26.4233 N   0  0  0  0  0  0  0  0  0  0  0  0
    9.0476   -5.6944   27.7015 O   0  0  0  0  0  0  0  0  0  0  0  0
    0.5566   -9.3851   16.0261 O   0  0  0  0  0  0  0  0  0  0  0  0
    8.6211   -6.7729   27.6648 N   0  0  0  0  0  0  0  0  0  0  0  0
    6.8785   -8.5072   27.1922 N   0  0  0  0  0  0  0  0  0  0  0  0
    2.6156   -9.8434   17.1244 C   0  0  0  0  0  0  0  0  0  0  0  0
    5.2114   -6.2678   26.5925 S   0  0  0  0  0  0  0  0  0  0  0  0
    3.3963   -7.6515   26.1516 C   0  0  0  0  0  0  0  0  0  0  0  0
    1.4332   -7.7142   27.2351 He  0  0  0  0  0  0  0  0  0  0  0  0
    3.4533   -7.6488   15.8525 He  0  0  0  0  0  0  0  0  0  0  0  0
    7.4648   -6.9384   27.1103 He  0  0  0  0  0  0  0  0  0  0  0  0
   -0.0567   -5.7706   27.3666 He  0  0  0  0  0  0  0  0  0  0  0  0
  1  4  4  0
  1 13  4  0
  1 21  4  0
  3  7  3  0
  3 10  4  0
  3 12  4  0
  4 23  4  0
  4 24  1  0
  5  8  4  0
  5 17  4  0
  5 20  3  0
  5 24  1  0
  6 16  4  0
  7 12  2  0
  7 18  4  0
  8 24  4  0
  9 13  4  0
  9 19  2  0
 10 11  1  0
 11 14  2  0
 11 17  2  0
 11 18  3  0
 12 19  1  0
 13 22  4  0
 15 18  1  0
 15 22  4  0
 16 23  4  0
 18 20  4  0
M  END
$$$$

 Created by Python create_sdf_string function

 28 30  0  0  0  0  0  0  0  0999 V2000
    5.5898   -8.4534   26.5954 C   0  0  0  0  0  0  0  0  0  0  0  0
    0.2668   -7.0253   27.7235 C   0  0  0  0  0  0  0  0  0  0  0  0
    2.2265   -7.9524   15.7713 C   0  0  0  0  0  0  0  0  0  0  0  0
    4.7044   -7.4302   26.4050 C   0  0  0  0  0  0  0  0  0  0  0  0
    2.0907   -5.6667   26.1638 C   0  0  0  0  0  0  0  0  0  0  0  0
    7.0642   -4.6337   27.0316 C   0  0  0  0  0  0  0  0  0  0  0  0
    8.3702   -4.4875   27.4813 C   0  0  0  0  0  0  0  0  0  0  0  0
    0.9157   -5.0140   26.5520 C   0  0  0  0  0  0  0  0  0  0  0  0
    4.4184   -8.3490   16.7827 C   0  0  0  0  0  0  0  0  0  0  0  0
   -1.4702   -3.8721   27.2414 N   0  0  0  0  0  0  0  0  0  0  0  0
   -1.2542   -5.1080   27.6976 C   0  0  0  0  0  0  0  0  0  0  0  0
    1.7758   -9.1311   16.3797 C   0  0  0  0  0  0  0  0  0  0  0  0
    3.9374   -9.5252   17.3756 C   0  0  0  0  0  0  0  0  0  0  0  0
   -2.1040   -5.7168   28.3754 O   0  0  0  0  0  0  0  0  0  0  0  0
   10.4587   -5.4746   28.3930 C   0  0  0  0  0  0  0  0  0  0  0  0
    6.5097   -5.9058   26.9247 C   0  0  0  0  0  0  0  0  0  0  0  0
    2.2905   -6.9655   26.5487 N   0  0  0  0  0  0  0  0  0  0  0  0
    9.1290   -5.6160   27.8295 C   0  0  0  0  0  0  0  0  0  0  0  0
    0.5059   -9.4892   16.1483 O   0  0  0  0  0  0  0  0  0  0  0  0
    1.4333   -7.6620   27.2956 C   0  0  0  0  0  0  0  0  0  0  0  0
    8.6248   -6.8369   27.6604 N   0  0  0  0  0  0  0  0  0  0  0  0
    6.9013   -8.3073   27.0273 N   0  0  0  0  0  0  0  0  0  0  0  0
    3.5695   -7.5733   15.9909 C   0  0  0  0  0  0  0  0  0  0  0  0
    2.6027   -9.9026   17.1763 C   0  0  0  0  0  0  0  0  0  0  0  0
    5.2225   -6.1829   26.5603 C   0  0  0  0  0  0  0  0  0  0  0  0
    7.3562   -7.0134   27.2197 C   0  0  0  0  0  0  0  0  0  0  0  0
    0.0088   -5.7499   27.3346 C   0  0  0  0  0  0  0  0  0  0  0  0
    3.3662   -7.6939   26.0212 C   0  0  0  0  0  0  0  0  0  0  0  0
  1  4  4  0
  1 22  4  0
  2 20  4  0
  2 27  4  0
  3 12  4  0
  3 23  4  0
  4 25  4  0
  4 28  1  0
  5  8  4  0
  5 17  4  0
  6  7  4  0
  6 16  4  0
  7 18  4  0
  8 27  4  0
  9 13  4  0
  9 23  4  0
 10 11  1  0
 11 14  2  0
 11 27  1  0
 12 19  1  0
 12 24  4  0
 13 24  4  0
 15 18  1  0
 16 25  4  0
 16 26  4  0
 17 20  4  0
 17 28  1  0
 18 21  4  0
 21 26  4  0
 22 26  4  0
M  END
$$$$

 Created by Python create_sdf_string function

 28 40  0  0  0  0  0  0  0  0999 V2000
    5.5416   -8.3217   26.5052 C   0  0  0  0  0  0  0  0  0  0  0  0
    0.2168   -7.0278   27.8706 C   0  0  0  0  0  0  0  0  0  0  0  0
    2.1738   -7.8786   15.7975 C   0  0  0  0  0  0  0  0  0  0  0  0
    4.6192   -7.5319   26.5291 C   0  0  0  0  0  0  0  0  0  0  0  0
    2.0525   -5.7113   26.1622 C   0  0  0  0  0  0  0  0  0  0  0  0
    7.0464   -4.4136   27.0584 C   0  0  0  0  0  0  0  0  0  0  0  0
    8.4596   -4.6321   27.5092 C   0  0  0  0  0  0  0  0  0  0  0  0
    4.2848   -8.2612   16.7951 C   0  0  0  0  0  0  0  0  0  0  0  0
   -1.3947   -3.7720   27.2744 N   0  0  0  0  0  0  0  0  0  0  0  0
   -1.5023   -5.1508   27.6390 C   0  0  0  0  0  0  0  0  0  0  0  0
    1.7462   -9.2081   16.4206 C   0  0  0  0  0  0  0  0  0  0  0  0
    3.9649   -9.7373   17.5439 C   0  0  0  0  0  0  0  0  0  0  0  0
   -2.1701   -5.6568   28.3542 O   0  0  0  0  0  0  0  0  0  0  0  0
   10.5268   -5.3662   28.4568 C   0  0  0  0  0  0  0  0  0  0  0  0
    6.3066   -5.8926   26.8350 C   0  0  0  0  0  0  0  0  0  0  0  0
    2.2371   -6.9142   26.5313 N   0  0  0  0  0  0  0  0  0  0  0  0
    9.1996   -5.6700   27.8729 C   0  0  0  0  0  0  0  0  0  0  0  0
    0.5478   -9.3624   16.1217 O   0  0  0  0  0  0  0  0  0  0  0  0
    1.4783   -7.5435   27.3586 C   0  0  0  0  0  0  0  0  0  0  0  0
    8.7021   -6.7902   27.7420 N   0  0  0  0  0  0  0  0  0  0  0  0
    7.0295   -8.3469   27.0853 N   0  0  0  0  0  0  0  0  0  0  0  0
    3.7544   -7.4971   16.2328 C   0  0  0  0  0  0  0  0  0  0  0  0
    2.6239  -10.1622   17.1204 C   0  0  0  0  0  0  0  0  0  0  0  0
    5.4441   -6.1410   26.4824 C   0  0  0  0  0  0  0  0  0  0  0  0
    7.4601   -7.1984   27.1822 C   0  0  0  0  0  0  0  0  0  0  0  0
    0.0669   -5.8455   27.3204 C   0  0  0  0  0  0  0  0  0  0  0  0
    3.4592   -7.6354   26.0069 C   0  0  0  0  0  0  0  0  0  0  0  0
    0.8899   -5.0534   26.4770 He  0  0  0  0  0  0  0  0  0  0  0  0
  1  4  4  0
  1 21  4  0
  2 10  4  0
  2 13  2  0
  2 19  4  0
  3  7  1  0
  3 11  4  0
  3 22  4  0
  4 24  4  0
  4 27  1  0
  5 16  4  0
  5 24  2  0
  5 26  4  0
  6 15  4  0
  6 24  2  0
  7 17  4  0
  8 12  4  0
  8 22  4  0
  8 24  3  0
  9 10  1  0
  9 20  3  0
 10 13  2  0
 10 26  1  0
 11 23  4  0
 12 23  4  0
 12 27  2  0
 13 25  1  0
 14 17  1  0
 15 24  4  0
 15 25  2  0
 16 19  4  0
 16 27  1  0
 17 20  4  0
 18 20  4  0
 18 21  3  0
 19 24  4  0
 19 27  2  0
 20 25  4  0
 21 25  4  0
 23 26  4  0
M  END
$$$$

 Created by Python create_sdf_string function

 28 30  0  0  0  0  0  0  0  0999 V2000
    5.5822   -8.4492   26.5981 C   0  0  0  0  0  0  0  0  0  0  0  0
    0.2748   -7.0265   27.7906 C   0  0  0  0  0  0  0  0  0  0  0  0
    2.2532   -7.8960   15.8777 C   0  0  0  0  0  0  0  0  0  0  0  0
    4.7176   -7.4072   26.4070 C   0  0  0  0  0  0  0  0  0  0  0  0
    2.0459   -5.6911   26.1603 C   0  0  0  0  0  0  0  0  0  0  0  0
    7.0829   -4.6299   27.0403 C   0  0  0  0  0  0  0  0  0  0  0  0
    8.3800   -4.4603   27.5205 C   0  0  0  0  0  0  0  0  0  0  0  0
    0.8657   -5.0437   26.5068 C   0  0  0  0  0  0  0  0  0  0  0  0
    4.4284   -8.3953   16.9429 C   0  0  0  0  0  0  0  0  0  0  0  0
   -1.4411   -3.8418   27.2336 N   0  0  0  0  0  0  0  0  0  0  0  0
   -1.2823   -5.1116   27.6739 C   0  0  0  0  0  0  0  0  0  0  0  0
    1.7916   -9.1453   16.3925 C   0  0  0  0  0  0  0  0  0  0  0  0
    3.9501   -9.6578   17.4156 C   0  0  0  0  0  0  0  0  0  0  0  0
   -2.1548   -5.7148   28.3285 O   0  0  0  0  0  0  0  0  0  0  0  0
   10.4870   -5.3954   28.4060 C   0  0  0  0  0  0  0  0  0  0  0  0
    6.5454   -5.9243   26.9328 C   0  0  0  0  0  0  0  0  0  0  0  0
    2.2915   -6.9568   26.5883 N   0  0  0  0  0  0  0  0  0  0  0  0
    9.1518   -5.5814   27.8577 C   0  0  0  0  0  0  0  0  0  0  0  0
    0.5070   -9.4732   16.1417 O   0  0  0  0  0  0  0  0  0  0  0  0
    1.4593   -7.6345   27.3847 C   0  0  0  0  0  0  0  0  0  0  0  0
    8.6690   -6.8179   27.6914 N   0  0  0  0  0  0  0  0  0  0  0  0
    6.9199   -8.2982   27.0430 N   0  0  0  0  0  0  0  0  0  0  0  0
    3.6209   -7.5388   16.1655 C   0  0  0  0  0  0  0  0  0  0  0  0
    2.5938  -10.0220   17.1273 C   0  0  0  0  0  0  0  0  0  0  0  0
    5.2492   -6.1859   26.5703 C   0  0  0  0  0  0  0  0  0  0  0  0
    7.3904   -7.0061   27.2282 C   0  0  0  0  0  0  0  0  0  0  0  0
   -0.0121   -5.7676   27.3238 C   0  0  0  0  0  0  0  0  0  0  0  0
    3.3583   -7.6849   26.0612 C   0  0  0  0  0  0  0  0  0  0  0  0
  1  4  4  0
  1 22  4  0
  2 20  4  0
  2 27  4  0
  3 12  4  0
  3 23  4  0
  4 25  4  0
  4 28  1  0
  5  8  4  0
  5 17  4  0
  6  7  4  0
  6 16  4  0
  7 18  4  0
  8 27  4  0
  9 13  4  0
  9 23  4  0
 10 11  1  0
 11 14  2  0
 11 27  1  0
 12 19  1  0
 12 24  4  0
 13 24  4  0
 15 18  1  0
 16 25  4  0
 16 26  4  0
 17 20  4  0
 17 28  1  0
 18 21  4  0
 21 26  4  0
 22 26  4  0
M  END
$$$$

 Created by Python create_sdf_string function

 28 44  0  0  0  0  0  0  0  0999 V2000
    5.4910   -8.5414   26.5963 C   0  0  0  0  0  0  0  0  0  0  0  0
    0.4131   -6.9999   27.9288 C   0  0  0  0  0  0  0  0  0  0  0  0
    2.3826   -7.9751   15.7629 C   0  0  0  0  0  0  0  0  0  0  0  0
    4.7719   -7.3967   26.5077 C   0  0  0  0  0  0  0  0  0  0  0  0
    1.9300   -5.7225   25.9996 C   0  0  0  0  0  0  0  0  0  0  0  0
    7.0712   -4.6089   27.0261 C   0  0  0  0  0  0  0  0  0  0  0  0
    8.4282   -4.5692   27.5420 C   0  0  0  0  0  0  0  0  0  0  0  0
    0.9314   -5.0838   26.4228 C   0  0  0  0  0  0  0  0  0  0  0  0
    4.3579   -8.3007   16.8709 C   0  0  0  0  0  0  0  0  0  0  0  0
   -1.4760   -3.8009   27.1140 N   0  0  0  0  0  0  0  0  0  0  0  0
   -1.3533   -5.0426   27.6883 C   0  0  0  0  0  0  0  0  0  0  0  0
    1.9236   -9.2020   16.4690 C   0  0  0  0  0  0  0  0  0  0  0  0
    3.9556   -9.7355   17.4038 C   0  0  0  0  0  0  0  0  0  0  0  0
   -2.1789   -5.8083   28.3000 S   0  0  0  0  0  0  0  0  0  0  0  0
   10.5738   -5.4956   28.5665 C   0  0  0  0  0  0  0  0  0  0  0  0
    6.4665   -6.0043   26.9601 C   0  0  0  0  0  0  0  0  0  0  0  0
    2.3395   -6.9363   26.5456 N   0  0  0  0  0  0  0  0  0  0  0  0
    9.2153   -5.5944   27.9928 C   0  0  0  0  0  0  0  0  0  0  0  0
    0.4072   -9.5703   16.3239 O   0  0  0  0  0  0  0  0  0  0  0  0
    1.7233   -7.6874   27.3905 C   0  0  0  0  0  0  0  0  0  0  0  0
    8.7010   -6.7819   27.6180 N   0  0  0  0  0  0  0  0  0  0  0  0
    7.0625   -8.1927   27.2919 N   0  0  0  0  0  0  0  0  0  0  0  0
    3.5465   -7.5362   16.2206 F   0  0  0  0  0  0  0  0  0  0  0  0
    2.6259  -10.1100   17.1372 C   0  0  0  0  0  0  0  0  0  0  0  0
    5.3724   -6.0551   26.4797 C   0  0  0  0  0  0  0  0  0  0  0  0
    7.3538   -7.0564   27.2369 C   0  0  0  0  0  0  0  0  0  0  0  0
    0.0646   -5.7154   27.3169 C   0  0  0  0  0  0  0  0  0  0  0  0
    3.4956   -7.6208   26.0154 C   0  0  0  0  0  0  0  0  0  0  0  0
  1  2  3  0
  1  4  4  0
  1 22  4  0
  2  7  2  0
  2 17  2  0
  2 18  1  0
  2 20  4  0
  2 27  4  0
  3 12  4  0
  3 23  4  0
  4  8  1  0
  4 25  4  0
  4 28  1  0
  5  7  1  0
  5  8  4  0
  5 17  4  0
  6  7  4  0
  6 16  4  0
  6 24  2  0
  7 18  4  0
  7 23  3  0
  8 14  1  0
  8 27  4  0
  9 13  4  0
  9 23  4  0
 10 11  1  0
 10 20  2  0
 11 14  2  0
 11 18  3  0
 11 27  1  0
 12 18  1  0
 12 19  1  0
 12 24  4  0
 12 25  4  0
 13 24  4  0
 15 18  1  0
 15 28  2  0
 16 22  3  0
 16 25  4  0
 16 26  4  0
 17 20  4  0
 17 28  1  0
 18 21  4  0
 22 26  4  0
M  END
$$$$

 Created by Python create_sdf_string function

 28 30  0  0  0  0  0  0  0  0999 V2000
    5.6325   -8.4337   26.7113 C   0  0  0  0  0  0  0  0  0  0  0  0
    0.4001   -6.9849   27.8602 C   0  0  0  0  0  0  0  0  0  0  0  0
    2.2821   -7.9732   15.8672 C   0  0  0  0  0  0  0  0  0  0  0  0
    4.7902   -7.3869   26.4312 C   0  0  0  0  0  0  0  0  0  0  0  0
    2.0548   -5.7329   26.0421 C   0  0  0  0  0  0  0  0  0  0  0  0
    7.1214   -4.6194   27.0664 C   0  0  0  0  0  0  0  0  0  0  0  0
    8.4099   -4.4693   27.5596 C   0  0  0  0  0  0  0  0  0  0  0  0
    0.8673   -5.0819   26.4185 C   0  0  0  0  0  0  0  0  0  0  0  0
    4.4191   -8.3790   16.9248 C   0  0  0  0  0  0  0  0  0  0  0  0
   -1.4630   -3.8865   27.1643 N   0  0  0  0  0  0  0  0  0  0  0  0
   -1.2545   -5.1438   27.6506 C   0  0  0  0  0  0  0  0  0  0  0  0
    1.8367   -9.1886   16.4282 C   0  0  0  0  0  0  0  0  0  0  0  0
    3.9944   -9.6564   17.4009 C   0  0  0  0  0  0  0  0  0  0  0  0
   -2.1220   -5.7796   28.3291 O   0  0  0  0  0  0  0  0  0  0  0  0
   10.5119   -5.4753   28.5025 C   0  0  0  0  0  0  0  0  0  0  0  0
    6.5610   -5.8878   26.9368 C   0  0  0  0  0  0  0  0  0  0  0  0
    2.3602   -6.9646   26.5332 N   0  0  0  0  0  0  0  0  0  0  0  0
    9.1679   -5.6030   27.9043 C   0  0  0  0  0  0  0  0  0  0  0  0
    0.5047   -9.5347   16.2736 O   0  0  0  0  0  0  0  0  0  0  0  0
    1.5937   -7.6003   27.4295 C   0  0  0  0  0  0  0  0  0  0  0  0
    8.6588   -6.8209   27.7348 N   0  0  0  0  0  0  0  0  0  0  0  0
    6.9274   -8.2733   27.1519 N   0  0  0  0  0  0  0  0  0  0  0  0
    3.5811   -7.5726   16.1581 C   0  0  0  0  0  0  0  0  0  0  0  0
    2.6614  -10.0630   17.1532 C   0  0  0  0  0  0  0  0  0  0  0  0
    5.2971   -6.1498   26.5548 C   0  0  0  0  0  0  0  0  0  0  0  0
    7.3917   -6.9781   27.2749 C   0  0  0  0  0  0  0  0  0  0  0  0
    0.0428   -5.7601   27.3202 C   0  0  0  0  0  0  0  0  0  0  0  0
    3.4397   -7.6711   25.9854 C   0  0  0  0  0  0  0  0  0  0  0  0
  1  4  4  0
  1 22  4  0
  2 20  4  0
  2 27  4  0
  3 12  4  0
  3 23  4  0
  4 25  4  0
  4 28  1  0
  5  8  4  0
  5 17  4  0
  6  7  4  0
  6 16  4  0
  7 18  4  0
  8 27  4  0
  9 13  4  0
  9 23  4  0
 10 11  1  0
 11 14  2  0
 11 27  1  0
 12 19  1  0
 12 24  4  0
 13 24  4  0
 15 18  1  0
 16 25  4  0
 16 26  4  0
 17 20  4  0
 17 28  1  0
 18 21  4  0
 21 26  4  0
 22 26  4  0
M  END
$$$$

 Created by Python create_sdf_string function

 28 29  0  0  0  0  0  0  0  0999 V2000
    5.6741   -8.4255   26.7551 C   0  0  0  0  0  0  0  0  0  0  0  0
    0.3693   -6.9963   27.7813 C   0  0  0  0  0  0  0  0  0  0  0  0
    2.2281   -7.9457   15.9537 C   0  0  0  0  0  0  0  0  0  0  0  0
    4.8153   -7.4990   26.3615 C   0  0  0  0  0  0  0  0  0  0  0  0
    2.0328   -5.5635   26.1765 C   0  0  0  0  0  0  0  0  0  0  0  0
    7.2181   -4.6291   27.0591 C   0  0  0  0  0  0  0  0  0  0  0  0
    8.4348   -4.5457   27.6524 C   0  0  0  0  0  0  0  0  0  0  0  0
    0.9362   -5.1081   26.3856 C   0  0  0  0  0  0  0  0  0  0  0  0
   -1.2075   -5.1553   27.7136 C   0  0  0  0  0  0  0  0  0  0  0  0
    1.6012   -9.2454   16.3116 C   0  0  0  0  0  0  0  0  0  0  0  0
    4.1337   -9.4543   17.4763 C   0  0  0  0  0  0  0  0  0  0  0  0
   -2.1708   -5.7534   28.3450 O   0  0  0  0  0  0  0  0  0  0  0  0
   10.5140   -5.4499   28.4850 C   0  0  0  0  0  0  0  0  0  0  0  0
    6.5852   -5.8971   26.9372 C   0  0  0  0  0  0  0  0  0  0  0  0
    2.3820   -7.0470   26.4486 N   0  0  0  0  0  0  0  0  0  0  0  0
    9.1116   -5.6441   27.8195 C   0  0  0  0  0  0  0  0  0  0  0  0
    0.4241   -9.5408   16.3045 O   0  0  0  0  0  0  0  0  0  0  0  0
    1.5811   -7.6977   27.4848 Cl  0  0  0  0  0  0  0  0  0  0  0  0
    8.5504   -6.7865   27.6921 N   0  0  0  0  0  0  0  0  0  0  0  0
    6.8103   -8.3086   27.0356 N   0  0  0  0  0  0  0  0  0  0  0  0
    3.4646   -7.4728   16.1316 C   0  0  0  0  0  0  0  0  0  0  0  0
    2.7317  -10.1228   17.0990 C   0  0  0  0  0  0  0  0  0  0  0  0
    5.2818   -6.1497   26.4297 C   0  0  0  0  0  0  0  0  0  0  0  0
   -0.0748   -5.8552   27.3327 C   0  0  0  0  0  0  0  0  0  0  0  0
    4.4898   -8.2203   17.0398 He  0  0  0  0  0  0  0  0  0  0  0  0
   -1.4722   -3.8844   27.1079 He  0  0  0  0  0  0  0  0  0  0  0  0
    7.4876   -6.9822   27.2683 He  0  0  0  0  0  0  0  0  0  0  0  0
    3.4479   -7.7181   26.0688 He  0  0  0  0  0  0  0  0  0  0  0  0
  1  4  4  0
  1 20  4  0
  2 18  4  0
  2 24  4  0
  3 10  4  0
  3 21  1  0
  4  6  1  0
  4 23  4  0
  5  8  4  0
  5 15  4  0
  6  7  4  0
  7  9  2  0
  7 16  4  0
  7 24  3  0
  8 18  1  0
  8 24  4  0
  9 12  2  0
  9 21  1  0
  9 24  1  0
 10 17  1  0
 10 22  3  0
 11 17  4  0
 11 22  4  0
 12 22  4  0
 13 16  1  0
 14 23  4  0
 15 18  4  0
 16 19  4  0
 19 24  3  0
M  END
$$$$

 Created by Python create_sdf_string function

 28 30  0  0  0  0  0  0  0  0999 V2000
    5.6097   -8.4546   26.6716 C   0  0  0  0  0  0  0  0  0  0  0  0
    0.3619   -7.0450   27.7932 C   0  0  0  0  0  0  0  0  0  0  0  0
    2.2012   -7.9264   15.9274 C   0  0  0  0  0  0  0  0  0  0  0  0
    4.7481   -7.4193   26.4166 C   0  0  0  0  0  0  0  0  0  0  0  0
    2.1263   -5.7282   26.1141 C   0  0  0  0  0  0  0  0  0  0  0  0
    7.1096   -4.6345   27.0677 C   0  0  0  0  0  0  0  0  0  0  0  0
    8.3964   -4.4738   27.5690 C   0  0  0  0  0  0  0  0  0  0  0  0
    0.9225   -5.1066   26.4562 C   0  0  0  0  0  0  0  0  0  0  0  0
    4.4132   -8.2363   16.9549 C   0  0  0  0  0  0  0  0  0  0  0  0
   -1.4602   -3.9350   27.1367 N   0  0  0  0  0  0  0  0  0  0  0  0
   -1.2496   -5.1779   27.6411 C   0  0  0  0  0  0  0  0  0  0  0  0
    1.8198   -9.1932   16.4452 C   0  0  0  0  0  0  0  0  0  0  0  0
    4.0422   -9.5208   17.4186 C   0  0  0  0  0  0  0  0  0  0  0  0
   -2.0693   -5.7549   28.3314 O   0  0  0  0  0  0  0  0  0  0  0  0
   10.4809   -5.4690   28.4427 C   0  0  0  0  0  0  0  0  0  0  0  0
    6.5631   -5.8879   26.9084 C   0  0  0  0  0  0  0  0  0  0  0  0
    2.3776   -6.9891   26.5711 N   0  0  0  0  0  0  0  0  0  0  0  0
    9.1374   -5.6195   27.8951 C   0  0  0  0  0  0  0  0  0  0  0  0
    0.5013   -9.5889   16.2653 O   0  0  0  0  0  0  0  0  0  0  0  0
    1.5497   -7.6592   27.3914 C   0  0  0  0  0  0  0  0  0  0  0  0
    8.6373   -6.8323   27.7104 N   0  0  0  0  0  0  0  0  0  0  0  0
    6.9113   -8.2711   27.1303 N   0  0  0  0  0  0  0  0  0  0  0  0
    3.5124   -7.4712   16.1814 C   0  0  0  0  0  0  0  0  0  0  0  0
    2.7308  -10.0036   17.1325 C   0  0  0  0  0  0  0  0  0  0  0  0
    5.2902   -6.1774   26.5065 C   0  0  0  0  0  0  0  0  0  0  0  0
    7.3844   -6.9810   27.2505 C   0  0  0  0  0  0  0  0  0  0  0  0
    0.0349   -5.8011   27.3105 C   0  0  0  0  0  0  0  0  0  0  0  0
    3.4251   -7.7088   26.0465 C   0  0  0  0  0  0  0  0  0  0  0  0
  1  4  4  0
  1 22  4  0
  2 20  4  0
  2 27  4  0
  3 12  4  0
  3 23  4  0
  4 25  4  0
  4 28  1  0
  5  8  4  0
  5 17  4  0
  6  7  4  0
  6 16  4  0
  7 18  4  0
  8 27  4  0
  9 13  4  0
  9 23  4  0
 10 11  1  0
 11 14  2  0
 11 27  1  0
 12 19  1  0
 12 24  4  0
 13 24  4  0
 15 18  1  0
 16 25  4  0
 16 26  4  0
 17 20  4  0
 17 28  1  0
 18 21  4  0
 21 26  4  0
 22 26  4  0
M  END
$$$$

 Created by Python create_sdf_string function

 28 34  0  0  0  0  0  0  0  0999 V2000
    5.6382   -8.2764   26.7270 C   0  0  0  0  0  0  0  0  0  0  0  0
    0.4424   -6.9561   27.7279 C   0  0  0  0  0  0  0  0  0  0  0  0
    2.3193   -8.0216   15.8843 C   0  0  0  0  0  0  0  0  0  0  0  0
    4.8170   -7.4469   26.3550 C   0  0  0  0  0  0  0  0  0  0  0  0
    2.1257   -5.5918   26.0637 C   0  0  0  0  0  0  0  0  0  0  0  0
    7.0970   -4.7024   26.9621 C   0  0  0  0  0  0  0  0  0  0  0  0
    8.3644   -4.6325   27.4708 C   0  0  0  0  0  0  0  0  0  0  0  0
    0.8979   -5.1665   26.4490 C   0  0  0  0  0  0  0  0  0  0  0  0
    4.4652   -8.3189   16.8495 C   0  0  0  0  0  0  0  0  0  0  0  0
   -1.5074   -3.9597   27.1378 N   0  0  0  0  0  0  0  0  0  0  0  0
   -1.2421   -5.1299   27.7160 N   0  0  0  0  0  0  0  0  0  0  0  0
    1.6660   -9.2796   16.4655 C   0  0  0  0  0  0  0  0  0  0  0  0
    3.8446   -9.5819   17.5447 C   0  0  0  0  0  0  0  0  0  0  0  0
   -2.1316   -5.7871   28.3063 O   0  0  0  0  0  0  0  0  0  0  0  0
   10.3974   -5.4420   28.3622 C   0  0  0  0  0  0  0  0  0  0  0  0
    6.5367   -5.8046   26.8583 C   0  0  0  0  0  0  0  0  0  0  0  0
    2.4369   -7.0053   26.6380 N   0  0  0  0  0  0  0  0  0  0  0  0
    9.1913   -5.5982   27.9101 C   0  0  0  0  0  0  0  0  0  0  0  0
    0.5421   -9.4947   16.2853 O   0  0  0  0  0  0  0  0  0  0  0  0
    1.4202   -7.5008   27.3103 C   0  0  0  0  0  0  0  0  0  0  0  0
    8.4556   -6.8701   27.7333 N   0  0  0  0  0  0  0  0  0  0  0  0
    7.0442   -8.2579   27.2547 F   0  0  0  0  0  0  0  0  0  0  0  0
    3.4400   -7.3650   16.0850 C   0  0  0  0  0  0  0  0  0  0  0  0
    2.6346  -10.0057   17.2016 C   0  0  0  0  0  0  0  0  0  0  0  0
    5.3156   -6.3052   26.4686 C   0  0  0  0  0  0  0  0  0  0  0  0
    7.3908   -6.9049   27.3916 C   0  0  0  0  0  0  0  0  0  0  0  0
    0.0786   -5.7996   27.4291 C   0  0  0  0  0  0  0  0  0  0  0  0
    3.4774   -7.7749   26.1441 C   0  0  0  0  0  0  0  0  0  0  0  0
  1  4  4  0
  2 20  4  0
  2 27  4  0
  3  5  4  0
  3 12  4  0
  3 21  2  0
  3 23  4  0
  4 25  4  0
  4 28  1  0
  5  8  4  0
  5 17  4  0
  6  7  4  0
  6 16  4  0
  7 18  4  0
  8 15  3  0
  8 23  2  0
  8 27  4  0
  9 23  4  0
 10 11  1  0
 11 14  2  0
 11 27  1  0
 12 13  2  0
 12 15  1  0
 12 19  1  0
 12 24  4  0
 13 24  4  0
 15 18  1  0
 16 20  1  0
 16 25  4  0
 16 26  4  0
 17 20  4  0
 17 28  1  0
 21 26  4  0
 22 26  4  0
M  END
$$$$

 Created by Python create_sdf_string function

 28 30  0  0  0  0  0  0  0  0999 V2000
    5.6300   -8.4545   26.7421 C   0  0  0  0  0  0  0  0  0  0  0  0
    0.3680   -7.0098   27.7820 C   0  0  0  0  0  0  0  0  0  0  0  0
    2.2244   -7.9685   15.8844 C   0  0  0  0  0  0  0  0  0  0  0  0
    4.7966   -7.4283   26.4496 C   0  0  0  0  0  0  0  0  0  0  0  0
    2.1343   -5.7097   26.1204 C   0  0  0  0  0  0  0  0  0  0  0  0
    7.1037   -4.6642   26.9788 C   0  0  0  0  0  0  0  0  0  0  0  0
    8.3669   -4.4868   27.4518 C   0  0  0  0  0  0  0  0  0  0  0  0
    0.9433   -5.0623   26.4694 C   0  0  0  0  0  0  0  0  0  0  0  0
    4.4211   -8.3078   16.9191 C   0  0  0  0  0  0  0  0  0  0  0  0
   -1.4542   -3.9728   27.1633 N   0  0  0  0  0  0  0  0  0  0  0  0
   -1.2324   -5.1691   27.6439 C   0  0  0  0  0  0  0  0  0  0  0  0
    1.8088   -9.1743   16.4651 C   0  0  0  0  0  0  0  0  0  0  0  0
    3.9672   -9.5521   17.4802 C   0  0  0  0  0  0  0  0  0  0  0  0
   -2.0659   -5.7807   28.3304 O   0  0  0  0  0  0  0  0  0  0  0  0
   10.4485   -5.4152   28.3772 C   0  0  0  0  0  0  0  0  0  0  0  0
    6.5593   -5.9198   26.9018 C   0  0  0  0  0  0  0  0  0  0  0  0
    2.3689   -6.9911   26.5612 N   0  0  0  0  0  0  0  0  0  0  0  0
    9.1328   -5.5878   27.8768 C   0  0  0  0  0  0  0  0  0  0  0  0
    0.5488   -9.5507   16.2715 O   0  0  0  0  0  0  0  0  0  0  0  0
    1.5278   -7.6263   27.3627 C   0  0  0  0  0  0  0  0  0  0  0  0
    8.6140   -6.7820   27.8022 N   0  0  0  0  0  0  0  0  0  0  0  0
    6.9302   -8.2692   27.2401 C   0  0  0  0  0  0  0  0  0  0  0  0
    3.5459   -7.4963   16.1097 C   0  0  0  0  0  0  0  0  0  0  0  0
    2.6455   -9.9740   17.2392 C   0  0  0  0  0  0  0  0  0  0  0  0
    5.3092   -6.1890   26.5001 C   0  0  0  0  0  0  0  0  0  0  0  0
    7.4012   -6.9665   27.3217 C   0  0  0  0  0  0  0  0  0  0  0  0
    0.0497   -5.7796   27.3071 C   0  0  0  0  0  0  0  0  0  0  0  0
    3.4487   -7.7379   26.0791 C   0  0  0  0  0  0  0  0  0  0  0  0
  1  4  4  0
  1 22  4  0
  2 20  4  0
  2 27  4  0
  3 12  4  0
  3 23  4  0
  4 25  4  0
  4 28  1  0
  5  8  4  0
  5 17  4  0
  6  7  4  0
  6 16  4  0
  7 18  4  0
  8 27  4  0
  9 13  4  0
  9 23  4  0
 10 11  1  0
 11 14  2  0
 11 27  1  0
 12 19  1  0
 12 24  4  0
 13 24  4  0
 15 18  1  0
 16 25  4  0
 16 26  4  0
 17 20  4  0
 17 28  1  0
 18 21  4  0
 21 26  4  0
 22 26  4  0
M  END
$$$$

 Created by Python create_sdf_string function

 28 47  0  0  0  0  0  0  0  0999 V2000
    5.7186   -8.4344   26.7177 C   0  0  0  0  0  0  0  0  0  0  0  0
    0.3146   -7.0524   27.7072 C   0  0  0  0  0  0  0  0  0  0  0  0
    2.1434   -7.8161   15.9376 C   0  0  0  0  0  0  0  0  0  0  0  0
    4.8004   -7.4771   26.5933 C   0  0  0  0  0  0  0  0  0  0  0  0
    2.1369   -5.6982   26.1439 C   0  0  0  0  0  0  0  0  0  0  0  0
    7.1067   -4.6807   26.9126 C   0  0  0  0  0  0  0  0  0  0  0  0
    8.4116   -4.4826   27.4566 C   0  0  0  0  0  0  0  0  0  0  0  0
    0.9394   -5.0814   26.4460 C   0  0  0  0  0  0  0  0  0  0  0  0
    4.5087   -8.2530   16.9179 C   0  0  0  0  0  0  0  0  0  0  0  0
   -1.4019   -3.9459   27.1349 N   0  0  0  0  0  0  0  0  0  0  0  0
   -1.3197   -5.0773   27.7011 C   0  0  0  0  0  0  0  0  0  0  0  0
    1.8514   -9.1052   16.5319 C   0  0  0  0  0  0  0  0  0  0  0  0
    3.9752   -9.5049   17.4325 C   0  0  0  0  0  0  0  0  0  0  0  0
   10.4766   -5.4749   28.3780 C   0  0  0  0  0  0  0  0  0  0  0  0
    6.5732   -5.9069   26.8327 C   0  0  0  0  0  0  0  0  0  0  0  0
    2.3944   -6.9263   26.4881 N   0  0  0  0  0  0  0  0  0  0  0  0
    9.1582   -5.6415   27.8155 C   0  0  0  0  0  0  0  0  0  0  0  0
    0.4582   -9.6308   16.3514 O   0  0  0  0  0  0  0  0  0  0  0  0
    1.5473   -7.5982   27.3948 C   0  0  0  0  0  0  0  0  0  0  0  0
    8.7032   -6.7439   27.7342 N   0  0  0  0  0  0  0  0  0  0  0  0
    6.9718   -8.2964   27.1368 C   0  0  0  0  0  0  0  0  0  0  0  0
    3.5089   -7.4693   16.0457 C   0  0  0  0  0  0  0  0  0  0  0  0
    2.7236   -9.9217   17.3587 C   0  0  0  0  0  0  0  0  0  0  0  0
    5.2512   -6.1038   26.4836 C   0  0  0  0  0  0  0  0  0  0  0  0
    7.4433   -7.0710   27.2983 C   0  0  0  0  0  0  0  0  0  0  0  0
    0.0573   -5.7650   27.3583 C   0  0  0  0  0  0  0  0  0  0  0  0
    3.4493   -7.7124   26.1717 C   0  0  0  0  0  0  0  0  0  0  0  0
   -1.9959   -5.8412   28.3235 He  0  0  0  0  0  0  0  0  0  0  0  0
  1  3  4  0
  1  4  4  0
  1  7  4  0
  1 21  4  0
  2  9  3  0
  2 19  4  0
  2 20  2  0
  2 26  4  0
  3  4  4  0
  3 12  4  0
  3 22  4  0
  4 19  2  0
  4 24  4  0
  4 27  1  0
  5  8  4  0
  5 16  4  0
  5 22  2  0
  5 26  3  0
  6  7  4  0
  6 10  4  0
  6 13  1  0
  6 15  4  0
  7 17  4  0
  7 22  3  0
  8 12  3  0
  8 26  4  0
  9 13  4  0
  9 22  4  0
 10 11  1  0
 11 26  1  0
 12 18  1  0
 12 23  4  0
 13 18  4  0
 13 23  4  0
 14 17  1  0
 15 24  4  0
 15 25  4  0
 16 19  4  0
 16 23  3  0
 16 27  1  0
 17 20  4  0
 18 19  4  0
 18 27  2  0
 19 21  3  0
 20 25  4  0
 21 25  4  0
 25 27  1  0
M  END
$$$$

 Created by Python create_sdf_string function

 28 30  0  0  0  0  0  0  0  0999 V2000
    5.6475   -8.4694   26.7474 C   0  0  0  0  0  0  0  0  0  0  0  0
    0.3487   -7.0491   27.7464 C   0  0  0  0  0  0  0  0  0  0  0  0
    2.1970   -7.8742   15.9479 C   0  0  0  0  0  0  0  0  0  0  0  0
    4.8084   -7.4384   26.4890 C   0  0  0  0  0  0  0  0  0  0  0  0
    2.1438   -5.7025   26.1402 C   0  0  0  0  0  0  0  0  0  0  0  0
    7.1276   -4.6494   26.9450 C   0  0  0  0  0  0  0  0  0  0  0  0
    8.3968   -4.4675   27.4200 C   0  0  0  0  0  0  0  0  0  0  0  0
    0.9461   -5.0653   26.4750 C   0  0  0  0  0  0  0  0  0  0  0  0
    4.4620   -8.2452   16.8620 C   0  0  0  0  0  0  0  0  0  0  0  0
   -1.4358   -3.9361   27.1725 N   0  0  0  0  0  0  0  0  0  0  0  0
   -1.2041   -5.1620   27.6399 C   0  0  0  0  0  0  0  0  0  0  0  0
    1.8221   -9.1087   16.5551 C   0  0  0  0  0  0  0  0  0  0  0  0
    4.0313   -9.4772   17.4525 C   0  0  0  0  0  0  0  0  0  0  0  0
   -2.0190   -5.7934   28.3498 O   0  0  0  0  0  0  0  0  0  0  0  0
   10.4880   -5.4278   28.3635 C   0  0  0  0  0  0  0  0  0  0  0  0
    6.5862   -5.9124   26.8911 C   0  0  0  0  0  0  0  0  0  0  0  0
    2.3946   -6.9727   26.5830 N   0  0  0  0  0  0  0  0  0  0  0  0
    9.1645   -5.5761   27.8253 C   0  0  0  0  0  0  0  0  0  0  0  0
    0.5557   -9.5420   16.3743 O   0  0  0  0  0  0  0  0  0  0  0  0
    1.5210   -7.6414   27.3610 C   0  0  0  0  0  0  0  0  0  0  0  0
    8.6751   -6.7882   27.7177 N   0  0  0  0  0  0  0  0  0  0  0  0
    6.9664   -8.2957   27.1651 C   0  0  0  0  0  0  0  0  0  0  0  0
    3.5469   -7.4550   16.0915 C   0  0  0  0  0  0  0  0  0  0  0  0
    2.6978   -9.8957   17.3010 C   0  0  0  0  0  0  0  0  0  0  0  0
    5.3047   -6.1710   26.5388 C   0  0  0  0  0  0  0  0  0  0  0  0
    7.4383   -6.9831   27.2611 C   0  0  0  0  0  0  0  0  0  0  0  0
    0.0588   -5.7878   27.2853 C   0  0  0  0  0  0  0  0  0  0  0  0
    3.4613   -7.7389   26.1187 C   0  0  0  0  0  0  0  0  0  0  0  0
  1  4  4  0
  1 22  4  0
  2 20  4  0
  2 27  4  0
  3 12  4  0
  3 23  4  0
  4 25  4  0
  4 28  1  0
  5  8  4  0
  5 17  4  0
  6  7  4  0
  6 16  4  0
  7 18  4  0
  8 27  4  0
  9 13  4  0
  9 23  4  0
 10 11  1  0
 11 14  2  0
 11 27  1  0
 12 19  1  0
 12 24  4  0
 13 24  4  0
 15 18  1  0
 16 25  4  0
 16 26  4  0
 17 20  4  0
 17 28  1  0
 18 21  4  0
 21 26  4  0
 22 26  4  0
M  END
$$$$

 Created by Python create_sdf_string function

 28 38  0  0  0  0  0  0  0  0999 V2000
    5.6198   -8.5333   26.6342 C   0  0  0  0  0  0  0  0  0  0  0  0
    0.2847   -7.0127   27.7528 C   0  0  0  0  0  0  0  0  0  0  0  0
    2.1625   -7.8722   15.9211 C   0  0  0  0  0  0  0  0  0  0  0  0
    4.7767   -7.4643   26.4312 C   0  0  0  0  0  0  0  0  0  0  0  0
    2.0819   -5.6526   26.0401 C   0  0  0  0  0  0  0  0  0  0  0  0
    7.1921   -4.6627   27.0306 C   0  0  0  0  0  0  0  0  0  0  0  0
    8.3775   -4.3885   27.4213 C   0  0  0  0  0  0  0  0  0  0  0  0
    0.9847   -5.0548   26.4507 C   0  0  0  0  0  0  0  0  0  0  0  0
    4.3589   -8.1910   16.8337 C   0  0  0  0  0  0  0  0  0  0  0  0
   -1.4490   -3.9877   27.1838 N   0  0  0  0  0  0  0  0  0  0  0  0
   -1.2164   -5.1440   27.6511 C   0  0  0  0  0  0  0  0  0  0  0  0
    1.8054   -9.1239   16.3701 C   0  0  0  0  0  0  0  0  0  0  0  0
    3.8603   -9.5028   17.4799 C   0  0  0  0  0  0  0  0  0  0  0  0
   -2.0405   -5.6915   28.3352 O   0  0  0  0  0  0  0  0  0  0  0  0
   10.4353   -5.5103   28.3741 C   0  0  0  0  0  0  0  0  0  0  0  0
    6.6309   -6.0034   26.8920 C   0  0  0  0  0  0  0  0  0  0  0  0
    2.4777   -6.9556   26.6089 N   0  0  0  0  0  0  0  0  0  0  0  0
    0.4454   -9.5327   16.4784 O   0  0  0  0  0  0  0  0  0  0  0  0
    1.6251   -7.6400   27.2403 C   0  0  0  0  0  0  0  0  0  0  0  0
    8.6006   -6.7410   27.6204 N   0  0  0  0  0  0  0  0  0  0  0  0
    6.9594   -8.2923   27.1507 C   0  0  0  0  0  0  0  0  0  0  0  0
    3.4536   -7.5196   15.9881 C   0  0  0  0  0  0  0  0  0  0  0  0
    2.6813   -9.9432   17.1188 C   0  0  0  0  0  0  0  0  0  0  0  0
    5.2864   -6.1204   26.6231 C   0  0  0  0  0  0  0  0  0  0  0  0
    7.3968   -7.0552   27.2464 C   0  0  0  0  0  0  0  0  0  0  0  0
    0.0438   -5.7477   27.2575 C   0  0  0  0  0  0  0  0  0  0  0  0
    3.4522   -7.7427   26.0985 C   0  0  0  0  0  0  0  0  0  0  0  0
    9.0431   -5.6753   27.8042 He  0  0  0  0  0  0  0  0  0  0  0  0
  1  4  4  0
  1 16  4  0
  1 21  4  0
  2 19  4  0
  2 26  4  0
  3  8  3  0
  3  9  1  0
  3 12  4  0
  3 22  4  0
  4 23  1  0
  4 24  4  0
  4 27  1  0
  5  8  4  0
  5 10  3  0
  5 13  1  0
  5 17  4  0
  6  7  4  0
  6 16  4  0
  7 25  2  0
  8 11  2  0
  8 26  4  0
  9 13  4  0
  9 19  3  0
  9 22  4  0
  9 26  2  0
 10 11  1  0
 11 14  2  0
 11 26  1  0
 12 18  1  0
 12 20  4  0
 12 23  4  0
 13 23  4  0
 16 24  4  0
 16 25  4  0
 17 19  4  0
 17 27  1  0
 20 25  4  0
 21 25  4  0
M  END
$$$$

 Created by Python create_sdf_string function

 28 30  0  0  0  0  0  0  0  0999 V2000
    5.6439   -8.5121   26.6736 C   0  0  0  0  0  0  0  0  0  0  0  0
    0.3486   -7.0382   27.7156 C   0  0  0  0  0  0  0  0  0  0  0  0
    2.1663   -7.8979   15.8773 C   0  0  0  0  0  0  0  0  0  0  0  0
    4.8091   -7.4461   26.4519 C   0  0  0  0  0  0  0  0  0  0  0  0
    2.1395   -5.6974   26.0942 C   0  0  0  0  0  0  0  0  0  0  0  0
    7.1077   -4.6567   27.0021 C   0  0  0  0  0  0  0  0  0  0  0  0
    8.3875   -4.4604   27.4440 C   0  0  0  0  0  0  0  0  0  0  0  0
    0.9508   -5.0643   26.4492 C   0  0  0  0  0  0  0  0  0  0  0  0
    4.3618   -8.2171   16.8300 C   0  0  0  0  0  0  0  0  0  0  0  0
   -1.4327   -3.9423   27.1592 N   0  0  0  0  0  0  0  0  0  0  0  0
   -1.1980   -5.1395   27.6252 C   0  0  0  0  0  0  0  0  0  0  0  0
    1.7813   -9.1188   16.4610 C   0  0  0  0  0  0  0  0  0  0  0  0
    3.9602   -9.4586   17.4107 C   0  0  0  0  0  0  0  0  0  0  0  0
   -2.0180   -5.7274   28.3434 O   0  0  0  0  0  0  0  0  0  0  0  0
   10.4491   -5.4538   28.3564 C   0  0  0  0  0  0  0  0  0  0  0  0
    6.5737   -5.9273   26.9245 C   0  0  0  0  0  0  0  0  0  0  0  0
    2.3917   -6.9682   26.5322 N   0  0  0  0  0  0  0  0  0  0  0  0
    9.1340   -5.5883   27.8065 C   0  0  0  0  0  0  0  0  0  0  0  0
    0.4802   -9.5221   16.3997 O   0  0  0  0  0  0  0  0  0  0  0  0
    1.5201   -7.6357   27.3127 C   0  0  0  0  0  0  0  0  0  0  0  0
    8.6612   -6.7978   27.6759 N   0  0  0  0  0  0  0  0  0  0  0  0
    6.9462   -8.3150   27.1226 C   0  0  0  0  0  0  0  0  0  0  0  0
    3.4899   -7.4607   16.0223 C   0  0  0  0  0  0  0  0  0  0  0  0
    2.6587   -9.9378   17.1677 C   0  0  0  0  0  0  0  0  0  0  0  0
    5.3043   -6.1829   26.5710 C   0  0  0  0  0  0  0  0  0  0  0  0
    7.4114   -7.0065   27.2446 C   0  0  0  0  0  0  0  0  0  0  0  0
    0.0531   -5.7641   27.2676 C   0  0  0  0  0  0  0  0  0  0  0  0
    3.4516   -7.7184   26.0525 C   0  0  0  0  0  0  0  0  0  0  0  0
  1  4  4  0
  1 22  4  0
  2 20  4  0
  2 27  4  0
  3 12  4  0
  3 23  4  0
  4 25  4  0
  4 28  1  0
  5  8  4  0
  5 17  4  0
  6  7  4  0
  6 16  4  0
  7 18  4  0
  8 27  4  0
  9 13  4  0
  9 23  4  0
 10 11  1  0
 11 14  2  0
 11 27  1  0
 12 19  1  0
 12 24  4  0
 13 24  4  0
 15 18  1  0
 16 25  4  0
 16 26  4  0
 17 20  4  0
 17 28  1  0
 18 21  4  0
 21 26  4  0
 22 26  4  0
M  END
$$$$

 Created by Python create_sdf_string function

 28 40  0  0  0  0  0  0  0  0999 V2000
    5.7028   -8.5224   26.6171 C   0  0  0  0  0  0  0  0  0  0  0  0
    0.3581   -7.1440   27.7553 C   0  0  0  0  0  0  0  0  0  0  0  0
    2.2547   -7.9743   15.8988 C   0  0  0  0  0  0  0  0  0  0  0  0
    4.9192   -7.3860   26.4288 C   0  0  0  0  0  0  0  0  0  0  0  0
    2.1140   -5.6595   26.0612 C   0  0  0  0  0  0  0  0  0  0  0  0
    7.0016   -4.7018   27.0680 C   0  0  0  0  0  0  0  0  0  0  0  0
    8.4160   -4.4489   27.2911 C   0  0  0  0  0  0  0  0  0  0  0  0
    0.9510   -5.0586   26.4541 C   0  0  0  0  0  0  0  0  0  0  0  0
    4.3678   -8.2166   16.8658 C   0  0  0  0  0  0  0  0  0  0  0  0
   -1.5110   -4.0019   26.9992 N   0  0  0  0  0  0  0  0  0  0  0  0
   -1.2388   -5.0683   27.5287 C   0  0  0  0  0  0  0  0  0  0  0  0
    1.7442   -8.9823   16.4897 C   0  0  0  0  0  0  0  0  0  0  0  0
    3.9553   -9.4306   17.3111 C   0  0  0  0  0  0  0  0  0  0  0  0
   -2.0805   -5.6922   28.3750 O   0  0  0  0  0  0  0  0  0  0  0  0
   10.4737   -5.4962   28.3009 C   0  0  0  0  0  0  0  0  0  0  0  0
    6.5809   -5.9562   26.8732 C   0  0  0  0  0  0  0  0  0  0  0  0
    2.3239   -6.9326   26.6246 N   0  0  0  0  0  0  0  0  0  0  0  0
    9.0550   -5.5793   27.8618 C   0  0  0  0  0  0  0  0  0  0  0  0
    0.5005   -9.5920   16.4150 O   0  0  0  0  0  0  0  0  0  0  0  0
    1.5279   -7.6906   27.2814 C   0  0  0  0  0  0  0  0  0  0  0  0
    8.6581   -6.7853   27.6670 N   0  0  0  0  0  0  0  0  0  0  0  0
    6.9312   -8.2945   27.1880 C   0  0  0  0  0  0  0  0  0  0  0  0
    3.3879   -7.4564   16.0121 C   0  0  0  0  0  0  0  0  0  0  0  0
    2.7156   -9.9709   17.1632 C   0  0  0  0  0  0  0  0  0  0  0  0
    5.3656   -6.2700   26.5989 C   0  0  0  0  0  0  0  0  0  0  0  0
    7.3732   -7.0832   27.1755 C   0  0  0  0  0  0  0  0  0  0  0  0
   -0.0537   -5.7962   27.2701 C   0  0  0  0  0  0  0  0  0  0  0  0
    3.4996   -7.6933   26.0687 C   0  0  0  0  0  0  0  0  0  0  0  0
  1  4  4  0
  1 12  1  0
  1 19  4  0
  1 22  4  0
  2 20  4  0
  2 27  4  0
  3 12  4  0
  3 14  1  0
  3 23  4  0
  4 25  4  0
  4 28  1  0
  5  8  1  0
  5 17  4  0
  6  7  4  0
  6  8  1  0
  6 10  2  0
  6 16  4  0
  7 18  4  0
  7 28  2  0
  8 27  4  0
  9 13  4  0
  9 16  3  0
  9 23  4  0
 10 11  1  0
 11 14  2  0
 11 27  1  0
 12 19  1  0
 12 24  4  0
 13 24  4  0
 13 26  3  0
 15 18  1  0
 16 25  4  0
 16 26  4  0
 17 20  4  0
 17 28  1  0
 18 21  4  0
 19 24  3  0
 20 27  4  0
 21 26  4  0
 22 26  4  0
M  END
$$$$

 Created by Python create_sdf_string function

 28 30  0  0  0  0  0  0  0  0999 V2000
    5.6706   -8.5033   26.6669 C   0  0  0  0  0  0  0  0  0  0  0  0
    0.3205   -7.0646   27.7070 C   0  0  0  0  0  0  0  0  0  0  0  0
    2.1792   -7.9006   15.8905 C   0  0  0  0  0  0  0  0  0  0  0  0
    4.8381   -7.4434   26.4361 C   0  0  0  0  0  0  0  0  0  0  0  0
    2.1344   -5.7040   26.1123 C   0  0  0  0  0  0  0  0  0  0  0  0
    7.0845   -4.6503   26.9938 C   0  0  0  0  0  0  0  0  0  0  0  0
    8.3709   -4.4553   27.3985 C   0  0  0  0  0  0  0  0  0  0  0  0
    0.9207   -5.0740   26.4549 C   0  0  0  0  0  0  0  0  0  0  0  0
    4.3967   -8.2021   16.8188 C   0  0  0  0  0  0  0  0  0  0  0  0
   -1.4949   -3.9906   26.9973 N   0  0  0  0  0  0  0  0  0  0  0  0
   -1.2446   -5.1569   27.5727 C   0  0  0  0  0  0  0  0  0  0  0  0
    1.8050   -9.1096   16.4998 C   0  0  0  0  0  0  0  0  0  0  0  0
    4.0101   -9.4562   17.3534 C   0  0  0  0  0  0  0  0  0  0  0  0
   -2.0495   -5.6939   28.3494 O   0  0  0  0  0  0  0  0  0  0  0  0
   10.4801   -5.4371   28.3045 C   0  0  0  0  0  0  0  0  0  0  0  0
    6.5747   -5.9354   26.9233 C   0  0  0  0  0  0  0  0  0  0  0  0
    2.3779   -6.9816   26.5394 N   0  0  0  0  0  0  0  0  0  0  0  0
    9.1355   -5.5746   27.7826 C   0  0  0  0  0  0  0  0  0  0  0  0
    0.5172   -9.5449   16.4100 O   0  0  0  0  0  0  0  0  0  0  0  0
    1.5141   -7.6690   27.2981 C   0  0  0  0  0  0  0  0  0  0  0  0
    8.6695   -6.7940   27.6850 N   0  0  0  0  0  0  0  0  0  0  0  0
    6.9695   -8.3094   27.1231 C   0  0  0  0  0  0  0  0  0  0  0  0
    3.4869   -7.4406   16.0468 C   0  0  0  0  0  0  0  0  0  0  0  0
    2.6941   -9.9160   17.1871 C   0  0  0  0  0  0  0  0  0  0  0  0
    5.3167   -6.2017   26.5489 C   0  0  0  0  0  0  0  0  0  0  0  0
    7.4239   -7.0068   27.2545 C   0  0  0  0  0  0  0  0  0  0  0  0
    0.0223   -5.7956   27.2536 C   0  0  0  0  0  0  0  0  0  0  0  0
    3.4717   -7.7103   26.0299 C   0  0  0  0  0  0  0  0  0  0  0  0
  1  4  4  0
  1 22  4  0
  2 20  4  0
  2 27  4  0
  3 12  4  0
  3 23  4  0
  4 25  4  0
  4 28  1  0
  5  8  4  0
  5 17  4  0
  6  7  4  0
  6 16  4  0
  7 18  4  0
  8 27  4  0
  9 13  4  0
  9 23  4  0
 10 11  1  0
 11 14  2  0
 11 27  1  0
 12 19  1  0
 12 24  4  0
 13 24  4  0
 15 18  1  0
 16 25  4  0
 16 26  4  0
 17 20  4  0
 17 28  1  0
 18 21  4  0
 21 26  4  0
 22 26  4  0
M  END
$$$$

 Created by Python create_sdf_string function

 28 35  0  0  0  0  0  0  0  0999 V2000
    5.7293   -8.5684   26.6000 C   0  0  0  0  0  0  0  0  0  0  0  0
    0.2764   -6.9674   27.7404 C   0  0  0  0  0  0  0  0  0  0  0  0
    2.1675   -7.8791   15.8998 C   0  0  0  0  0  0  0  0  0  0  0  0
    4.8179   -7.4718   26.3849 C   0  0  0  0  0  0  0  0  0  0  0  0
    2.1249   -5.7777   26.0348 C   0  0  0  0  0  0  0  0  0  0  0  0
    7.0755   -4.5830   26.9186 C   0  0  0  0  0  0  0  0  0  0  0  0
    8.3275   -4.4683   27.4251 C   0  0  0  0  0  0  0  0  0  0  0  0
    0.9679   -5.0724   26.4110 C   0  0  0  0  0  0  0  0  0  0  0  0
    4.4117   -8.1797   16.7492 C   0  0  0  0  0  0  0  0  0  0  0  0
   -1.2618   -5.1098   27.6406 C   0  0  0  0  0  0  0  0  0  0  0  0
    1.7994   -9.0514   16.4711 C   0  0  0  0  0  0  0  0  0  0  0  0
    4.0523   -9.4939   17.3435 C   0  0  0  0  0  0  0  0  0  0  0  0
   -2.0584   -5.6623   28.4246 O   0  0  0  0  0  0  0  0  0  0  0  0
   10.5704   -5.3769   28.3475 C   0  0  0  0  0  0  0  0  0  0  0  0
    6.6069   -5.9551   27.0218 C   0  0  0  0  0  0  0  0  0  0  0  0
    2.4161   -6.9622   26.5090 N   0  0  0  0  0  0  0  0  0  0  0  0
    9.1455   -5.6912   27.8743 C   0  0  0  0  0  0  0  0  0  0  0  0
    0.4931   -9.5115   16.5399 O   0  0  0  0  0  0  0  0  0  0  0  0
    1.4805   -7.6434   27.3441 C   0  0  0  0  0  0  0  0  0  0  0  0
    8.6024   -6.7501   27.6932 N   0  0  0  0  0  0  0  0  0  0  0  0
    6.9866   -8.2669   27.1156 C   0  0  0  0  0  0  0  0  0  0  0  0
    3.4201   -7.4745   16.0673 C   0  0  0  0  0  0  0  0  0  0  0  0
    2.6609   -9.9115   17.1807 C   0  0  0  0  0  0  0  0  0  0  0  0
    5.3563   -6.1368   26.6744 C   0  0  0  0  0  0  0  0  0  0  0  0
    7.6026   -7.0070   27.2765 C   0  0  0  0  0  0  0  0  0  0  0  0
    0.0242   -5.7526   27.2314 C   0  0  0  0  0  0  0  0  0  0  0  0
    3.4937   -7.7588   26.0106 C   0  0  0  0  0  0  0  0  0  0  0  0
   -1.5212   -3.9643   26.9695 He  0  0  0  0  0  0  0  0  0  0  0  0
  1  4  4  0
  1 21  4  0
  2 13  4  0
  2 17  3  0
  2 19  4  0
  2 26  4  0
  3 11  4  0
  3 12  2  0
  3 22  4  0
  4 24  4  0
  4 27  1  0
  5  8  4  0
  5 16  4  0
  6  7  4  0
  6 15  4  0
  7 17  4  0
  8 26  4  0
  9 12  4  0
  9 22  4  0
  9 25  1  0
 10 19  3  0
 10 26  1  0
 10 27  2  0
 11 18  1  0
 11 23  4  0
 12 13  4  0
 12 23  4  0
 14 17  1  0
 15 24  4  0
 15 25  4  0
 16 19  4  0
 16 27  1  0
 17 20  4  0
 20 25  4  0
 21 25  4  0
M  END
$$$$

 Created by Python create_sdf_string function

 28 30  0  0  0  0  0  0  0  0999 V2000
    5.7097   -8.4970   26.6241 C   0  0  0  0  0  0  0  0  0  0  0  0
    0.3217   -7.0097   27.7282 C   0  0  0  0  0  0  0  0  0  0  0  0
    2.1793   -7.8648   15.9146 C   0  0  0  0  0  0  0  0  0  0  0  0
    4.8315   -7.4462   26.4376 C   0  0  0  0  0  0  0  0  0  0  0  0
    2.1323   -5.7306   26.0445 C   0  0  0  0  0  0  0  0  0  0  0  0
    7.1084   -4.6264   27.0049 C   0  0  0  0  0  0  0  0  0  0  0  0
    8.3889   -4.4396   27.4484 C   0  0  0  0  0  0  0  0  0  0  0  0
    0.9529   -5.0821   26.3904 C   0  0  0  0  0  0  0  0  0  0  0  0
    4.4345   -8.1969   16.7620 C   0  0  0  0  0  0  0  0  0  0  0  0
   -1.5024   -3.9795   26.9874 N   0  0  0  0  0  0  0  0  0  0  0  0
   -1.2289   -5.1033   27.5817 C   0  0  0  0  0  0  0  0  0  0  0  0
    1.8203   -9.0780   16.5291 C   0  0  0  0  0  0  0  0  0  0  0  0
    4.0723   -9.4662   17.3343 C   0  0  0  0  0  0  0  0  0  0  0  0
   -1.9923   -5.6546   28.3798 O   0  0  0  0  0  0  0  0  0  0  0  0
   10.5273   -5.3531   28.3353 C   0  0  0  0  0  0  0  0  0  0  0  0
    6.5850   -5.9261   26.9437 C   0  0  0  0  0  0  0  0  0  0  0  0
    2.3764   -6.9969   26.5177 N   0  0  0  0  0  0  0  0  0  0  0  0
    9.1569   -5.5370   27.8177 C   0  0  0  0  0  0  0  0  0  0  0  0
    0.5329   -9.4766   16.4952 O   0  0  0  0  0  0  0  0  0  0  0  0
    1.4937   -7.6429   27.3244 C   0  0  0  0  0  0  0  0  0  0  0  0
    8.7109   -6.7668   27.7260 N   0  0  0  0  0  0  0  0  0  0  0  0
    7.0003   -8.2988   27.1019 C   0  0  0  0  0  0  0  0  0  0  0  0
    3.4857   -7.4391   16.0577 C   0  0  0  0  0  0  0  0  0  0  0  0
    2.7192   -9.9054   17.2035 C   0  0  0  0  0  0  0  0  0  0  0  0
    5.3044   -6.1974   26.6043 C   0  0  0  0  0  0  0  0  0  0  0  0
    7.4566   -6.9957   27.2694 C   0  0  0  0  0  0  0  0  0  0  0  0
    0.0350   -5.7431   27.2359 C   0  0  0  0  0  0  0  0  0  0  0  0
    3.4753   -7.7375   26.0447 C   0  0  0  0  0  0  0  0  0  0  0  0
  1  4  4  0
  1 22  4  0
  2 20  4  0
  2 27  4  0
  3 12  4  0
  3 23  4  0
  4 25  4  0
  4 28  1  0
  5  8  4  0
  5 17  4  0
  6  7  4  0
  6 16  4  0
  7 18  4  0
  8 27  4  0
  9 13  4  0
  9 23  4  0
 10 11  1  0
 11 14  2  0
 11 27  1  0
 12 19  1  0
 12 24  4  0
 13 24  4  0
 15 18  1  0
 16 25  4  0
 16 26  4  0
 17 20  4  0
 17 28  1  0
 18 21  4  0
 21 26  4  0
 22 26  4  0
M  END
$$$$

 Created by Python create_sdf_string function

 28 41  0  0  0  0  0  0  0  0999 V2000
    5.7108   -8.5218   26.7371 C   0  0  0  0  0  0  0  0  0  0  0  0
    0.3050   -6.9771   27.6951 C   0  0  0  0  0  0  0  0  0  0  0  0
    2.1816   -7.9305   15.8430 C   0  0  0  0  0  0  0  0  0  0  0  0
    4.9131   -7.4386   26.4307 O   0  0  0  0  0  0  0  0  0  0  0  0
    2.1050   -5.6412   26.0723 C   0  0  0  0  0  0  0  0  0  0  0  0
    7.1154   -4.6606   26.9993 C   0  0  0  0  0  0  0  0  0  0  0  0
    8.3360   -4.5265   27.3773 C   0  0  0  0  0  0  0  0  0  0  0  0
    0.9589   -5.0862   26.3314 C   0  0  0  0  0  0  0  0  0  0  0  0
    4.3789   -8.1743   16.7981 C   0  0  0  0  0  0  0  0  0  0  0  0
   -1.5835   -4.0446   27.0606 N   0  0  0  0  0  0  0  0  0  0  0  0
   -1.3001   -4.9372   27.5575 C   0  0  0  0  0  0  0  0  0  0  0  0
    1.8737   -8.9821   16.5207 C   0  0  0  0  0  0  0  0  0  0  0  0
    4.0562   -9.4196   17.2745 C   0  0  0  0  0  0  0  0  0  0  0  0
   -1.9866   -5.6060   28.3462 O   0  0  0  0  0  0  0  0  0  0  0  0
   10.5376   -5.2406   28.3305 C   0  0  0  0  0  0  0  0  0  0  0  0
    6.6640   -5.9512   26.9590 C   0  0  0  0  0  0  0  0  0  0  0  0
    2.4980   -6.9652   26.5411 N   0  0  0  0  0  0  0  0  0  0  0  0
    9.1273   -5.5460   27.8304 C   0  0  0  0  0  0  0  0  0  0  0  0
    0.5022   -9.4715   16.4671 O   0  0  0  0  0  0  0  0  0  0  0  0
    1.5125   -7.6125   27.3156 C   0  0  0  0  0  0  0  0  0  0  0  0
    8.7613   -6.8270   27.7028 N   0  0  0  0  0  0  0  0  0  0  0  0
    7.1054   -8.2992   27.0982 C   0  0  0  0  0  0  0  0  0  0  0  0
    3.4239   -7.4365   16.0888 C   0  0  0  0  0  0  0  0  0  0  0  0
    2.7470   -9.9448   17.1620 C   0  0  0  0  0  0  0  0  0  0  0  0
    5.3236   -6.2274   26.5857 C   0  0  0  0  0  0  0  0  0  0  0  0
    7.4576   -7.0070   27.2780 C   0  0  0  0  0  0  0  0  0  0  0  0
    0.0777   -5.6300   27.2678 C   0  0  0  0  0  0  0  0  0  0  0  0
    3.4173   -7.7128   26.0721 C   0  0  0  0  0  0  0  0  0  0  0  0
  1  4  4  0
  1  6  3  0
  1  9  1  0
  1 22  4  0
  2 20  4  0
  2 27  4  0
  3 12  4  0
  3 23  4  0
  4 22  3  0
  4 25  4  0
  4 28  1  0
  5  8  4  0
  5 17  4  0
  6  7  4  0
  6 16  4  0
  7 11  1  0
  7 18  4  0
  8 27  4  0
  9 13  4  0
  9 23  4  0
 10 11  1  0
 10 28  1  0
 11 14  2  0
 11 27  1  0
 12 17  1  0
 12 19  1  0
 12 24  4  0
 13 17  1  0
 13 24  4  0
 14 15  3  0
 14 19  1  0
 14 28  4  0
 15 18  1  0
 16 25  4  0
 16 26  4  0
 17 20  4  0
 17 28  1  0
 18 21  4  0
 20 22  3  0
 21 26  4  0
 22 26  4  0
M  END
$$$$

 Created by Python create_sdf_string function

 28 30  0  0  0  0  0  0  0  0999 V2000
    5.7060   -8.4939   26.7059 C   0  0  0  0  0  0  0  0  0  0  0  0
    0.3319   -6.9677   27.7039 C   0  0  0  0  0  0  0  0  0  0  0  0
    2.2032   -7.8708   15.8796 C   0  0  0  0  0  0  0  0  0  0  0  0
    4.8642   -7.4564   26.4767 C   0  0  0  0  0  0  0  0  0  0  0  0
    2.1579   -5.6893   26.0720 C   0  0  0  0  0  0  0  0  0  0  0  0
    7.1089   -4.6781   27.0064 C   0  0  0  0  0  0  0  0  0  0  0  0
    8.3731   -4.4614   27.4244 C   0  0  0  0  0  0  0  0  0  0  0  0
    0.9547   -5.0462   26.3821 C   0  0  0  0  0  0  0  0  0  0  0  0
    4.4183   -8.1662   16.7917 C   0  0  0  0  0  0  0  0  0  0  0  0
   -1.5478   -3.9305   26.9985 N   0  0  0  0  0  0  0  0  0  0  0  0
   -1.2209   -5.0567   27.5631 C   0  0  0  0  0  0  0  0  0  0  0  0
    1.8602   -9.0655   16.5194 C   0  0  0  0  0  0  0  0  0  0  0  0
    4.0885   -9.4289   17.3056 C   0  0  0  0  0  0  0  0  0  0  0  0
   -1.9744   -5.6187   28.3605 O   0  0  0  0  0  0  0  0  0  0  0  0
   10.5085   -5.2580   28.3161 C   0  0  0  0  0  0  0  0  0  0  0  0
    6.6090   -5.9497   26.9340 C   0  0  0  0  0  0  0  0  0  0  0  0
    2.4102   -6.9636   26.5243 N   0  0  0  0  0  0  0  0  0  0  0  0
    9.1754   -5.5129   27.8062 C   0  0  0  0  0  0  0  0  0  0  0  0
    0.5526   -9.4564   16.4624 O   0  0  0  0  0  0  0  0  0  0  0  0
    1.5022   -7.6119   27.3179 C   0  0  0  0  0  0  0  0  0  0  0  0
    8.7463   -6.7720   27.7079 N   0  0  0  0  0  0  0  0  0  0  0  0
    7.0149   -8.3162   27.1269 C   0  0  0  0  0  0  0  0  0  0  0  0
    3.4909   -7.4182   16.0775 C   0  0  0  0  0  0  0  0  0  0  0  0
    2.7783   -9.8892   17.1747 C   0  0  0  0  0  0  0  0  0  0  0  0
    5.3452   -6.2175   26.5787 C   0  0  0  0  0  0  0  0  0  0  0  0
    7.4855   -7.0109   27.2614 C   0  0  0  0  0  0  0  0  0  0  0  0
    0.0478   -5.6961   27.2170 C   0  0  0  0  0  0  0  0  0  0  0  0
    3.5176   -7.7203   26.0669 C   0  0  0  0  0  0  0  0  0  0  0  0
  1  4  4  0
  1 22  4  0
  2 20  4  0
  2 27  4  0
  3 12  4  0
  3 23  4  0
  4 25  4  0
  4 28  1  0
  5  8  4  0
  5 17  4  0
  6  7  4  0
  6 16  4  0
  7 18  4  0
  8 27  4  0
  9 13  4  0
  9 23  4  0
 10 11  1  0
 11 14  2  0
 11 27  1  0
 12 19  1  0
 12 24  4  0
 13 24  4  0
 15 18  1  0
 16 25  4  0
 16 26  4  0
 17 20  4  0
 17 28  1  0
 18 21  4  0
 21 26  4  0
 22 26  4  0
M  END
$$$$

 Created by Python create_sdf_string function

 28 30  0  0  0  0  0  0  0  0999 V2000
    5.7113   -8.4229   26.7007 C   0  0  0  0  0  0  0  0  0  0  0  0
    0.3027   -6.8596   27.6857 C   0  0  0  0  0  0  0  0  0  0  0  0
    2.2632   -7.9016   15.8598 C   0  0  0  0  0  0  0  0  0  0  0  0
    4.8503   -7.4338   26.4736 C   0  0  0  0  0  0  0  0  0  0  0  0
    2.1403   -5.6768   26.0756 C   0  0  0  0  0  0  0  0  0  0  0  0
    7.0643   -4.6068   26.9728 C   0  0  0  0  0  0  0  0  0  0  0  0
    8.3880   -4.4661   27.4563 C   0  0  0  0  0  0  0  0  0  0  0  0
    0.9061   -5.0645   26.4018 C   0  0  0  0  0  0  0  0  0  0  0  0
   -1.4473   -3.9072   26.9952 O   0  0  0  0  0  0  0  0  0  0  0  0
   -1.2565   -5.0036   27.6367 C   0  0  0  0  0  0  0  0  0  0  0  0
    1.8761   -9.0789   16.5618 P   0  0  0  0  0  0  0  0  0  0  0  0
    4.1054   -9.4366   17.2681 C   0  0  0  0  0  0  0  0  0  0  0  0
   -1.9867   -5.6188   28.3745 O   0  0  0  0  0  0  0  0  0  0  0  0
   10.5188   -5.2312   28.3638 C   0  0  0  0  0  0  0  0  0  0  0  0
    6.6080   -5.9648   26.8900 C   0  0  0  0  0  0  0  0  0  0  0  0
    2.4409   -6.9908   26.4855 N   0  0  0  0  0  0  0  0  0  0  0  0
    9.1515   -5.5320   27.8751 C   0  0  0  0  0  0  0  0  0  0  0  0
    0.4916   -9.4783   16.5513 O   0  0  0  0  0  0  0  0  0  0  0  0
    1.4893   -7.6943   27.3048 C   0  0  0  0  0  0  0  0  0  0  0  0
    8.7894   -6.7477   27.7651 N   0  0  0  0  0  0  0  0  0  0  0  0
    7.0136   -8.3148   27.1368 C   0  0  0  0  0  0  0  0  0  0  0  0
    3.5528   -7.4051   16.0380 C   0  0  0  0  0  0  0  0  0  0  0  0
    2.7952   -9.9175   17.1342 C   0  0  0  0  0  0  0  0  0  0  0  0
    5.3229   -6.2121   26.5196 C   0  0  0  0  0  0  0  0  0  0  0  0
    7.4695   -7.0493   27.2233 C   0  0  0  0  0  0  0  0  0  0  0  0
    0.0234   -5.6938   27.2402 C   0  0  0  0  0  0  0  0  0  0  0  0
    3.5261   -7.7661   26.0202 C   0  0  0  0  0  0  0  0  0  0  0  0
    4.5344   -8.1522   16.7559 He  0  0  0  0  0  0  0  0  0  0  0  0
  1  4  4  0
  1 19  4  0
  1 21  1  0
  2 19  4  0
  3 11  4  0
  3 22  4  0
  4 24  4  0
  4 27  1  0
  5  8  4  0
  5 16  4  0
  6  7  4  0
  6 15  4  0
  7 17  4  0
  8 26  4  0
  9 10  1  0
 10 13  2  0
 10 26  1  0
 11 18  1  0
 11 23  4  0
 12 23  4  0
 13 14  3  0
 14 17  1  0
 15 24  4  0
 15 25  4  0
 16 19  4  0
 16 27  1  0
 17 20  4  0
 20 25  4  0
 21 25  4  0
 22 26  4  0
M  END
$$$$

 Created by Python create_sdf_string function

 28 30  0  0  0  0  0  0  0  0999 V2000
    5.6926   -8.4939   26.6962 C   0  0  0  0  0  0  0  0  0  0  0  0
    0.3367   -6.9785   27.6976 C   0  0  0  0  0  0  0  0  0  0  0  0
    2.2739   -7.8695   15.8971 C   0  0  0  0  0  0  0  0  0  0  0  0
    4.8407   -7.4547   26.4473 C   0  0  0  0  0  0  0  0  0  0  0  0
    2.1572   -5.6960   26.0688 C   0  0  0  0  0  0  0  0  0  0  0  0
    7.1029   -4.6390   26.9827 C   0  0  0  0  0  0  0  0  0  0  0  0
    8.3605   -4.4297   27.4510 C   0  0  0  0  0  0  0  0  0  0  0  0
    0.9494   -5.0446   26.3893 C   0  0  0  0  0  0  0  0  0  0  0  0
    4.5146   -8.1703   16.7476 C   0  0  0  0  0  0  0  0  0  0  0  0
   -1.4310   -3.9259   27.0167 O   0  0  0  0  0  0  0  0  0  0  0  0
   -1.2002   -5.0457   27.5815 C   0  0  0  0  0  0  0  0  0  0  0  0
    1.8998   -9.0653   16.5416 C   0  0  0  0  0  0  0  0  0  0  0  0
    4.1496   -9.4263   17.2810 C   0  0  0  0  0  0  0  0  0  0  0  0
   -1.9731   -5.5976   28.3630 O   0  0  0  0  0  0  0  0  0  0  0  0
   10.4979   -5.2493   28.3626 C   0  0  0  0  0  0  0  0  0  0  0  0
    6.5994   -5.9396   26.8991 C   0  0  0  0  0  0  0  0  0  0  0  0
    2.4087   -6.9822   26.5051 N   0  0  0  0  0  0  0  0  0  0  0  0
    9.1682   -5.4923   27.8463 C   0  0  0  0  0  0  0  0  0  0  0  0
    0.5842   -9.4537   16.5384 O   0  0  0  0  0  0  0  0  0  0  0  0
    1.4837   -7.6289   27.2861 C   0  0  0  0  0  0  0  0  0  0  0  0
    8.7166   -6.7548   27.7217 N   0  0  0  0  0  0  0  0  0  0  0  0
    7.0095   -8.3131   27.1401 C   0  0  0  0  0  0  0  0  0  0  0  0
    3.5777   -7.4076   16.0335 C   0  0  0  0  0  0  0  0  0  0  0  0
    2.8453   -9.8750   17.1654 C   0  0  0  0  0  0  0  0  0  0  0  0
    5.3371   -6.2106   26.5236 C   0  0  0  0  0  0  0  0  0  0  0  0
    7.4726   -6.9954   27.2576 C   0  0  0  0  0  0  0  0  0  0  0  0
    0.0424   -5.7078   27.2326 C   0  0  0  0  0  0  0  0  0  0  0  0
    3.4987   -7.7395   26.0473 C   0  0  0  0  0  0  0  0  0  0  0  0
  1  4  4  0
  1 22  4  0
  2 20  4  0
  2 27  4  0
  3 12  4  0
  3 23  4  0
  4 25  4  0
  4 28  1  0
  5  8  4  0
  5 17  4  0
  6  7  4  0
  6 16  4  0
  7 18  4  0
  8 27  4  0
  9 13  4  0
  9 23  4  0
 10 11  1  0
 11 14  2  0
 11 27  1  0
 12 19  1  0
 12 24  4  0
 13 24  4  0
 15 18  1  0
 16 25  4  0
 16 26  4  0
 17 20  4  0
 17 28  1  0
 18 21  4  0
 21 26  4  0
 22 26  4  0
M  END
$$$$

 Created by Python create_sdf_string function

 28 37  0  0  0  0  0  0  0  0999 V2000
    5.6814   -8.4939   26.7385 C   0  0  0  0  0  0  0  0  0  0  0  0
    0.2682   -6.8801   27.6645 C   0  0  0  0  0  0  0  0  0  0  0  0
    2.2395   -7.7905   15.8934 C   0  0  0  0  0  0  0  0  0  0  0  0
    4.8760   -7.3959   26.3628 C   0  0  0  0  0  0  0  0  0  0  0  0
    2.1516   -5.6949   26.0533 C   0  0  0  0  0  0  0  0  0  0  0  0
    7.0798   -4.7244   27.0233 C   0  0  0  0  0  0  0  0  0  0  0  0
    8.3945   -4.4349   27.4802 C   0  0  0  0  0  0  0  0  0  0  0  0
    0.9381   -5.0344   26.4265 C   0  0  0  0  0  0  0  0  0  0  0  0
    4.5294   -8.1599   16.7856 C   0  0  0  0  0  0  0  0  0  0  0  0
   -1.4900   -3.8777   26.9946 O   0  0  0  0  0  0  0  0  0  0  0  0
   -1.1968   -5.0323   27.5623 C   0  0  0  0  0  0  0  0  0  0  0  0
    1.8838   -9.0617   16.5426 C   0  0  0  0  0  0  0  0  0  0  0  0
    4.1518   -9.4875   17.1793 C   0  0  0  0  0  0  0  0  0  0  0  0
   -1.9458   -5.5623   28.4072 O   0  0  0  0  0  0  0  0  0  0  0  0
   10.4753   -5.2461   28.3136 C   0  0  0  0  0  0  0  0  0  0  0  0
    6.5920   -5.9108   26.9279 C   0  0  0  0  0  0  0  0  0  0  0  0
    2.4234   -7.0067   26.5095 N   0  0  0  0  0  0  0  0  0  0  0  0
    9.1884   -5.5274   27.8611 C   0  0  0  0  0  0  0  0  0  0  0  0
    0.6019   -9.4471   16.5212 O   0  0  0  0  0  0  0  0  0  0  0  0
    1.4851   -7.5882   27.2658 C   0  0  0  0  0  0  0  0  0  0  0  0
    8.6882   -6.7229   27.7070 N   0  0  0  0  0  0  0  0  0  0  0  0
    7.0068   -8.2529   27.0824 C   0  0  0  0  0  0  0  0  0  0  0  0
    3.5610   -7.4855   16.0445 C   0  0  0  0  0  0  0  0  0  0  0  0
    2.7283   -9.8345   17.2059 C   0  0  0  0  0  0  0  0  0  0  0  0
    5.3220   -6.2624   26.5159 C   0  0  0  0  0  0  0  0  0  0  0  0
    7.5054   -6.9788   27.3128 C   0  0  0  0  0  0  0  0  0  0  0  0
    0.1105   -5.7838   27.1854 C   0  0  0  0  0  0  0  0  0  0  0  0
    3.5254   -7.6858   26.0457 C   0  0  0  0  0  0  0  0  0  0  0  0
  1  4  4  0
  1 22  4  0
  2 20  4  0
  2 27  4  0
  3 12  4  0
  3 23  4  0
  4 15  2  0
  4 25  4  0
  4 28  1  0
  5  8  4  0
  5 17  4  0
  6  7  4  0
  6 16  4  0
  7 18  4  0
  8 27  4  0
  9 13  4  0
  9 14  4  0
  9 23  4  0
 10 11  1  0
 11 14  2  0
 11 21  4  0
 11 22  3  0
 11 27  1  0
 12 19  1  0
 12 24  4  0
 13 24  4  0
 15 18  1  0
 16 25  4  0
 16 26  4  0
 17 20  4  0
 17 28  1  0
 18 21  4  0
 21 23  3  0
 21 26  4  0
 21 28  4  0
 22 26  4  0
 25 26  2  0
M  END
$$$$

 Created by Python create_sdf_string function

 28 30  0  0  0  0  0  0  0  0999 V2000
    5.6962   -8.4820   26.6917 C   0  0  0  0  0  0  0  0  0  0  0  0
    0.3378   -6.9899   27.6631 C   0  0  0  0  0  0  0  0  0  0  0  0
    2.2740   -7.8078   15.9211 C   0  0  0  0  0  0  0  0  0  0  0  0
    4.8416   -7.4453   26.4225 C   0  0  0  0  0  0  0  0  0  0  0  0
    2.1710   -5.6826   26.0509 C   0  0  0  0  0  0  0  0  0  0  0  0
    7.1024   -4.6640   27.0353 C   0  0  0  0  0  0  0  0  0  0  0  0
    8.3631   -4.4260   27.4777 C   0  0  0  0  0  0  0  0  0  0  0  0
    0.9813   -5.0280   26.3812 C   0  0  0  0  0  0  0  0  0  0  0  0
    4.5358   -8.1866   16.7457 C   0  0  0  0  0  0  0  0  0  0  0  0
   -1.4637   -3.9069   26.9980 O   0  0  0  0  0  0  0  0  0  0  0  0
   -1.1801   -5.0342   27.5534 C   0  0  0  0  0  0  0  0  0  0  0  0
    1.9146   -9.0238   16.5491 C   0  0  0  0  0  0  0  0  0  0  0  0
    4.1699   -9.4728   17.2410 C   0  0  0  0  0  0  0  0  0  0  0  0
   -1.9284   -5.5657   28.3784 O   0  0  0  0  0  0  0  0  0  0  0  0
   10.4877   -5.2615   28.3187 C   0  0  0  0  0  0  0  0  0  0  0  0
    6.5992   -5.9273   26.9227 C   0  0  0  0  0  0  0  0  0  0  0  0
    2.3976   -6.9685   26.4921 N   0  0  0  0  0  0  0  0  0  0  0  0
    9.1743   -5.5021   27.8374 C   0  0  0  0  0  0  0  0  0  0  0  0
    0.6264   -9.4213   16.5058 O   0  0  0  0  0  0  0  0  0  0  0  0
    1.4896   -7.6143   27.2636 C   0  0  0  0  0  0  0  0  0  0  0  0
    8.7034   -6.7339   27.7163 N   0  0  0  0  0  0  0  0  0  0  0  0
    6.9935   -8.2666   27.1313 C   0  0  0  0  0  0  0  0  0  0  0  0
    3.6015   -7.4258   16.0492 C   0  0  0  0  0  0  0  0  0  0  0  0
    2.8118   -9.8558   17.2073 C   0  0  0  0  0  0  0  0  0  0  0  0
    5.3417   -6.1942   26.5219 C   0  0  0  0  0  0  0  0  0  0  0  0
    7.4695   -6.9700   27.2662 C   0  0  0  0  0  0  0  0  0  0  0  0
    0.0642   -5.7043   27.2020 C   0  0  0  0  0  0  0  0  0  0  0  0
    3.4886   -7.7085   26.0366 C   0  0  0  0  0  0  0  0  0  0  0  0
  1  4  4  0
  1 22  4  0
  2 20  4  0
  2 27  4  0
  3 12  4  0
  3 23  4  0
  4 25  4  0
  4 28  1  0
  5  8  4  0
  5 17  4  0
  6  7  4  0
  6 16  4  0
  7 18  4  0
  8 27  4  0
  9 13  4  0
  9 23  4  0
 10 11  1  0
 11 14  2  0
 11 27  1  0
 12 19  1  0
 12 24  4  0
 13 24  4  0
 15 18  1  0
 16 25  4  0
 16 26  4  0
 17 20  4  0
 17 28  1  0
 18 21  4  0
 21 26  4  0
 22 26  4  0
M  END
$$$$

 Created by Python create_sdf_string function

 28 32  0  0  0  0  0  0  0  0999 V2000
    5.6491   -8.4506   26.6127 C   0  0  0  0  0  0  0  0  0  0  0  0
    0.3462   -7.0084   27.6306 C   0  0  0  0  0  0  0  0  0  0  0  0
    2.3361   -7.8495   15.9599 C   0  0  0  0  0  0  0  0  0  0  0  0
    4.8053   -7.4866   26.4883 C   0  0  0  0  0  0  0  0  0  0  0  0
    2.1464   -5.6539   26.0833 F   0  0  0  0  0  0  0  0  0  0  0  0
    7.1429   -4.6669   27.0195 C   0  0  0  0  0  0  0  0  0  0  0  0
    8.3979   -4.4409   27.4853 C   0  0  0  0  0  0  0  0  0  0  0  0
    4.5393   -8.2061   16.7237 C   0  0  0  0  0  0  0  0  0  0  0  0
   -1.4674   -3.9189   27.0645 Cl  0  0  0  0  0  0  0  0  0  0  0  0
   -1.1556   -5.0466   27.5969 C   0  0  0  0  0  0  0  0  0  0  0  0
    1.9190   -8.9745   16.5816 C   0  0  0  0  0  0  0  0  0  0  0  0
    4.1125   -9.4911   17.2506 C   0  0  0  0  0  0  0  0  0  0  0  0
   -1.9922   -5.5273   28.3715 O   0  0  0  0  0  0  0  0  0  0  0  0
   10.4278   -5.2354   28.3396 C   0  0  0  0  0  0  0  0  0  0  0  0
    6.6002   -5.8972   26.9898 C   0  0  0  0  0  0  0  0  0  0  0  0
    2.4011   -7.0013   26.4242 N   0  0  0  0  0  0  0  0  0  0  0  0
    9.1723   -5.4822   27.8377 C   0  0  0  0  0  0  0  0  0  0  0  0
    0.6136   -9.4407   16.5216 O   0  0  0  0  0  0  0  0  0  0  0  0
    1.4064   -7.5697   27.3225 C   0  0  0  0  0  0  0  0  0  0  0  0
    8.6913   -6.7121   27.7374 N   0  0  0  0  0  0  0  0  0  0  0  0
    7.0429   -8.2876   27.1616 C   0  0  0  0  0  0  0  0  0  0  0  0
    3.5692   -7.4476   16.0616 C   0  0  0  0  0  0  0  0  0  0  0  0
    2.7547   -9.8378   17.2083 C   0  0  0  0  0  0  0  0  0  0  0  0
    5.3712   -6.1216   26.5437 C   0  0  0  0  0  0  0  0  0  0  0  0
    7.4474   -6.9708   27.3458 C   0  0  0  0  0  0  0  0  0  0  0  0
    0.1099   -5.7314   27.1384 C   0  0  0  0  0  0  0  0  0  0  0  0
    3.4538   -7.7126   25.9623 C   0  0  0  0  0  0  0  0  0  0  0  0
    0.9708   -5.0505   26.3752 He  0  0  0  0  0  0  0  0  0  0  0  0
  1  4  4  0
  1 21  4  0
  2 17  2  0
  2 19  4  0
  2 26  4  0
  3 11  4  0
  3 22  4  0
  4 24  4  0
  4 27  1  0
  5 16  1  0
  6  7  4  0
  6 15  4  0
  7 17  4  0
  8 12  4  0
  8 22  4  0
  9 10  1  0
 10 26  1  0
 11 18  1  0
 11 23  4  0
 12 23  4  0
 14 17  1  0
 14 21  1  0
 15 17  2  0
 15 24  4  0
 15 25  4  0
 16 19  4  0
 16 27  1  0
 17 19  4  0
 17 20  4  0
 19 23  2  0
 20 25  4  0
 21 25  4  0
M  END
$$$$

 Created by Python create_sdf_string function

 28 30  0  0  0  0  0  0  0  0999 V2000
    5.6925   -8.4665   26.6778 C   0  0  0  0  0  0  0  0  0  0  0  0
    0.3287   -6.9941   27.6425 C   0  0  0  0  0  0  0  0  0  0  0  0
    2.3006   -7.7923   15.9526 C   0  0  0  0  0  0  0  0  0  0  0  0
    4.8331   -7.4152   26.4348 C   0  0  0  0  0  0  0  0  0  0  0  0
    2.1537   -5.6873   26.0707 C   0  0  0  0  0  0  0  0  0  0  0  0
    7.1047   -4.6296   27.0395 C   0  0  0  0  0  0  0  0  0  0  0  0
    8.3732   -4.4022   27.4718 C   0  0  0  0  0  0  0  0  0  0  0  0
    0.9832   -5.0429   26.3850 C   0  0  0  0  0  0  0  0  0  0  0  0
    4.5570   -8.2343   16.7235 C   0  0  0  0  0  0  0  0  0  0  0  0
   -1.3851   -3.8967   27.0082 O   0  0  0  0  0  0  0  0  0  0  0  0
   -1.1696   -5.0344   27.5600 C   0  0  0  0  0  0  0  0  0  0  0  0
    1.9203   -9.0001   16.5704 C   0  0  0  0  0  0  0  0  0  0  0  0
    4.1587   -9.4685   17.2803 C   0  0  0  0  0  0  0  0  0  0  0  0
   -1.9449   -5.5513   28.3450 O   0  0  0  0  0  0  0  0  0  0  0  0
   10.4634   -5.2527   28.3359 C   0  0  0  0  0  0  0  0  0  0  0  0
    6.5910   -5.8979   26.9514 C   0  0  0  0  0  0  0  0  0  0  0  0
    2.3835   -6.9711   26.4872 N   0  0  0  0  0  0  0  0  0  0  0  0
    9.1580   -5.4888   27.8435 C   0  0  0  0  0  0  0  0  0  0  0  0
    0.6357   -9.4027   16.5202 O   0  0  0  0  0  0  0  0  0  0  0  0
    1.4896   -7.6259   27.2515 C   0  0  0  0  0  0  0  0  0  0  0  0
    8.6981   -6.7239   27.7511 N   0  0  0  0  0  0  0  0  0  0  0  0
    6.9866   -8.2824   27.1623 C   0  0  0  0  0  0  0  0  0  0  0  0
    3.6365   -7.4137   16.0487 C   0  0  0  0  0  0  0  0  0  0  0  0
    2.8118   -9.8295   17.2107 C   0  0  0  0  0  0  0  0  0  0  0  0
    5.3298   -6.1625   26.5691 C   0  0  0  0  0  0  0  0  0  0  0  0
    7.4580   -6.9661   27.3015 C   0  0  0  0  0  0  0  0  0  0  0  0
    0.0660   -5.7183   27.1987 C   0  0  0  0  0  0  0  0  0  0  0  0
    3.4904   -7.7043   25.9906 C   0  0  0  0  0  0  0  0  0  0  0  0
  1  4  4  0
  1 22  4  0
  2 20  4  0
  2 27  4  0
  3 12  4  0
  3 23  4  0
  4 25  4  0
  4 28  1  0
  5  8  4  0
  5 17  4  0
  6  7  4  0
  6 16  4  0
  7 18  4  0
  8 27  4  0
  9 13  4  0
  9 23  4  0
 10 11  1  0
 11 14  2  0
 11 27  1  0
 12 19  1  0
 12 24  4  0
 13 24  4  0
 15 18  1  0
 16 25  4  0
 16 26  4  0
 17 20  4  0
 17 28  1  0
 18 21  4  0
 21 26  4  0
 22 26  4  0
M  END
$$$$

 Created by Python create_sdf_string function

 28 32  0  0  0  0  0  0  0  0999 V2000
    5.6705   -8.4675   26.6668 C   0  0  0  0  0  0  0  0  0  0  0  0
    0.3668   -6.9762   27.6107 C   0  0  0  0  0  0  0  0  0  0  0  0
    2.2460   -7.7364   16.0036 C   0  0  0  0  0  0  0  0  0  0  0  0
    4.8575   -7.3773   26.4171 C   0  0  0  0  0  0  0  0  0  0  0  0
    2.1197   -5.6876   26.0134 C   0  0  0  0  0  0  0  0  0  0  0  0
    7.1646   -4.6358   26.9945 C   0  0  0  0  0  0  0  0  0  0  0  0
    8.3298   -4.4214   27.4812 C   0  0  0  0  0  0  0  0  0  0  0  0
    1.0544   -4.9645   26.3632 C   0  0  0  0  0  0  0  0  0  0  0  0
    4.5703   -8.2272   16.6628 C   0  0  0  0  0  0  0  0  0  0  0  0
   -1.3355   -3.9019   26.9997 O   0  0  0  0  0  0  0  0  0  0  0  0
   -1.1415   -4.9588   27.6078 C   0  0  0  0  0  0  0  0  0  0  0  0
    1.9046   -9.0140   16.5713 C   0  0  0  0  0  0  0  0  0  0  0  0
    4.1794   -9.3842   17.3095 C   0  0  0  0  0  0  0  0  0  0  0  0
   -1.9846   -5.6036   28.3511 O   0  0  0  0  0  0  0  0  0  0  0  0
   10.4512   -5.2334   28.3880 C   0  0  0  0  0  0  0  0  0  0  0  0
    6.5346   -5.9316   26.9241 C   0  0  0  0  0  0  0  0  0  0  0  0
    2.4277   -7.0104   26.4746 N   0  0  0  0  0  0  0  0  0  0  0  0
    9.1062   -5.4920   27.7747 C   0  0  0  0  0  0  0  0  0  0  0  0
    0.6091   -9.4376   16.5423 O   0  0  0  0  0  0  0  0  0  0  0  0
    1.4408   -7.5745   27.2408 C   0  0  0  0  0  0  0  0  0  0  0  0
    8.6900   -6.6501   27.7684 N   0  0  0  0  0  0  0  0  0  0  0  0
    7.0190   -8.2940   27.1960 C   0  0  0  0  0  0  0  0  0  0  0  0
    3.5700   -7.4228   16.0823 C   0  0  0  0  0  0  0  0  0  0  0  0
    2.8248   -9.8451   17.1653 C   0  0  0  0  0  0  0  0  0  0  0  0
    5.2762   -6.1399   26.5656 C   0  0  0  0  0  0  0  0  0  0  0  0
    7.4791   -6.9054   27.3154 C   0  0  0  0  0  0  0  0  0  0  0  0
    0.0866   -5.7091   27.1900 C   0  0  0  0  0  0  0  0  0  0  0  0
    3.5132   -7.7322   25.9422 C   0  0  0  0  0  0  0  0  0  0  0  0
  1  4  4  0
  1 19  2  0
  1 22  4  0
  2 20  4  0
  2 27  4  0
  3 12  4  0
  3 23  4  0
  4 25  4  0
  4 28  1  0
  5  8  4  0
  5 17  4  0
  6  7  4  0
  6 16  4  0
  7 18  4  0
  7 20  1  0
  8 27  4  0
  9 13  4  0
  9 23  4  0
 10 11  1  0
 11 14  2  0
 11 27  1  0
 12 19  1  0
 12 24  4  0
 15 18  1  0
 15 19  2  0
 16 25  4  0
 16 26  4  0
 17 20  4  0
 17 28  1  0
 18 21  4  0
 21 26  4  0
 22 26  4  0
M  END
$$$$

 Created by Python create_sdf_string function

 28 30  0  0  0  0  0  0  0  0999 V2000
    5.7169   -8.4688   26.6942 C   0  0  0  0  0  0  0  0  0  0  0  0
    0.3508   -6.9719   27.6185 C   0  0  0  0  0  0  0  0  0  0  0  0
    2.2812   -7.7469   16.0134 C   0  0  0  0  0  0  0  0  0  0  0  0
    4.8564   -7.4305   26.4235 C   0  0  0  0  0  0  0  0  0  0  0  0
    2.1847   -5.6921   26.0140 C   0  0  0  0  0  0  0  0  0  0  0  0
    7.0997   -4.6297   27.0064 C   0  0  0  0  0  0  0  0  0  0  0  0
    8.3470   -4.3945   27.4547 C   0  0  0  0  0  0  0  0  0  0  0  0
    1.0281   -4.9981   26.3728 C   0  0  0  0  0  0  0  0  0  0  0  0
    4.5740   -8.1885   16.6791 C   0  0  0  0  0  0  0  0  0  0  0  0
   -1.3279   -3.8898   27.0184 O   0  0  0  0  0  0  0  0  0  0  0  0
   -1.1336   -5.0212   27.5627 C   0  0  0  0  0  0  0  0  0  0  0  0
    1.9429   -8.9949   16.5827 C   0  0  0  0  0  0  0  0  0  0  0  0
    4.1975   -9.4031   17.2921 C   0  0  0  0  0  0  0  0  0  0  0  0
   -1.9425   -5.5819   28.3270 O   0  0  0  0  0  0  0  0  0  0  0  0
   10.4651   -5.2262   28.3676 C   0  0  0  0  0  0  0  0  0  0  0  0
    6.5825   -5.9023   26.9326 C   0  0  0  0  0  0  0  0  0  0  0  0
    2.4009   -6.9743   26.4475 N   0  0  0  0  0  0  0  0  0  0  0  0
    9.1496   -5.4498   27.8379 C   0  0  0  0  0  0  0  0  0  0  0  0
    0.6514   -9.4107   16.5364 O   0  0  0  0  0  0  0  0  0  0  0  0
    1.4860   -7.6187   27.2172 C   0  0  0  0  0  0  0  0  0  0  0  0
    8.6876   -6.6875   27.7474 N   0  0  0  0  0  0  0  0  0  0  0  0
    7.0061   -8.2747   27.1869 C   0  0  0  0  0  0  0  0  0  0  0  0
    3.6224   -7.3822   16.0670 C   0  0  0  0  0  0  0  0  0  0  0  0
    2.8758   -9.8230   17.1951 C   0  0  0  0  0  0  0  0  0  0  0  0
    5.3261   -6.1619   26.5451 C   0  0  0  0  0  0  0  0  0  0  0  0
    7.4519   -6.9474   27.2997 C   0  0  0  0  0  0  0  0  0  0  0  0
    0.0966   -5.6874   27.1971 C   0  0  0  0  0  0  0  0  0  0  0  0
    3.5049   -7.7189   25.9811 C   0  0  0  0  0  0  0  0  0  0  0  0
  1  4  4  0
  1 22  4  0
  2 20  4  0
  2 27  4  0
  3 12  4  0
  3 23  4  0
  4 25  4  0
  4 28  1  0
  5  8  4  0
  5 17  4  0
  6  7  4  0
  6 16  4  0
  7 18  4  0
  8 27  4  0
  9 13  4  0
  9 23  4  0
 10 11  1  0
 11 14  2  0
 11 27  1  0
 12 19  1  0
 12 24  4  0
 13 24  4  0
 15 18  1  0
 16 25  4  0
 16 26  4  0
 17 20  4  0
 17 28  1  0
 18 21  4  0
 21 26  4  0
 22 26  4  0
M  END
$$$$

 Created by Python create_sdf_string function

 28 29  0  0  0  0  0  0  0  0999 V2000
    5.6802   -8.4857   26.7164 C   0  0  0  0  0  0  0  0  0  0  0  0
    0.3463   -7.0033   27.6275 C   0  0  0  0  0  0  0  0  0  0  0  0
    2.2250   -7.7556   15.9849 C   0  0  0  0  0  0  0  0  0  0  0  0
    4.8237   -7.4463   26.4052 C   0  0  0  0  0  0  0  0  0  0  0  0
    2.1839   -5.6916   26.0625 C   0  0  0  0  0  0  0  0  0  0  0  0
    7.0826   -4.5668   27.0155 C   0  0  0  0  0  0  0  0  0  0  0  0
    8.3544   -4.4328   27.4744 C   0  0  0  0  0  0  0  0  0  0  0  0
    1.0310   -5.0046   26.3818 C   0  0  0  0  0  0  0  0  0  0  0  0
    4.6023   -8.1625   16.6439 C   0  0  0  0  0  0  0  0  0  0  0  0
   -1.3483   -3.9018   26.9930 O   0  0  0  0  0  0  0  0  0  0  0  0
   -1.0768   -5.0256   27.5176 C   0  0  0  0  0  0  0  0  0  0  0  0
    1.9537   -8.9914   16.5772 C   0  0  0  0  0  0  0  0  0  0  0  0
    4.1838   -9.4291   17.3085 C   0  0  0  0  0  0  0  0  0  0  0  0
   -1.9449   -5.5328   28.2968 O   0  0  0  0  0  0  0  0  0  0  0  0
   10.4557   -5.2242   28.3800 C   0  0  0  0  0  0  0  0  0  0  0  0
    6.5594   -5.9470   26.9035 C   0  0  0  0  0  0  0  0  0  0  0  0
    2.4589   -7.0065   26.4338 N   0  0  0  0  0  0  0  0  0  0  0  0
    9.1736   -5.4464   27.8504 C   0  0  0  0  0  0  0  0  0  0  0  0
    0.6530   -9.4326   16.5388 O   0  0  0  0  0  0  0  0  0  0  0  0
    1.5566   -7.6118   27.1770 C   0  0  0  0  0  0  0  0  0  0  0  0
    7.0092   -8.3182   27.1880 C   0  0  0  0  0  0  0  0  0  0  0  0
    3.6213   -7.3643   16.0662 C   0  0  0  0  0  0  0  0  0  0  0  0
    2.8871   -9.8330   17.2067 C   0  0  0  0  0  0  0  0  0  0  0  0
    5.3377   -6.2381   26.5283 C   0  0  0  0  0  0  0  0  0  0  0  0
    7.4617   -6.9460   27.3098 C   0  0  0  0  0  0  0  0  0  0  0  0
    0.0585   -5.6652   27.1771 C   0  0  0  0  0  0  0  0  0  0  0  0
    3.5192   -7.6920   25.9952 C   0  0  0  0  0  0  0  0  0  0  0  0
    8.6331   -6.6913   27.7757 He  0  0  0  0  0  0  0  0  0  0  0  0
  1  4  4  0
  1 21  4  0
  2 20  4  0
  2 26  4  0
  3 12  4  0
  3 22  4  0
  4 24  4  0
  4 27  1  0
  5  8  4  0
  6  7  4  0
  6 12  1  0
  6 16  4  0
  7 18  4  0
  8  9  2  0
  8 26  4  0
  9 13  4  0
  9 22  4  0
 10 11  1  0
 11 14  2  0
 11 26  1  0
 12 19  1  0
 12 23  4  0
 13 23  4  0
 15 18  1  0
 16 24  4  0
 16 25  4  0
 17 20  4  0
 17 27  1  0
 21 25  4  0
M  END
$$$$

 Created by Python create_sdf_string function

 28 30  0  0  0  0  0  0  0  0999 V2000
    5.6959   -8.4841   26.7121 C   0  0  0  0  0  0  0  0  0  0  0  0
    0.3654   -7.0153   27.6087 C   0  0  0  0  0  0  0  0  0  0  0  0
    2.2884   -7.7498   15.9997 C   0  0  0  0  0  0  0  0  0  0  0  0
    4.8499   -7.4576   26.4205 C   0  0  0  0  0  0  0  0  0  0  0  0
    2.2078   -5.6813   26.0465 C   0  0  0  0  0  0  0  0  0  0  0  0
    7.0677   -4.5983   27.0047 C   0  0  0  0  0  0  0  0  0  0  0  0
    8.3376   -4.3988   27.4653 C   0  0  0  0  0  0  0  0  0  0  0  0
    1.0403   -5.0097   26.3745 C   0  0  0  0  0  0  0  0  0  0  0  0
    4.6098   -8.1564   16.6684 C   0  0  0  0  0  0  0  0  0  0  0  0
   -1.3318   -3.8974   26.9916 O   0  0  0  0  0  0  0  0  0  0  0  0
   -1.1117   -5.0353   27.5194 C   0  0  0  0  0  0  0  0  0  0  0  0
    1.9732   -8.9933   16.5908 C   0  0  0  0  0  0  0  0  0  0  0  0
    4.2389   -9.3970   17.2885 C   0  0  0  0  0  0  0  0  0  0  0  0
   -1.9239   -5.5487   28.2876 O   0  0  0  0  0  0  0  0  0  0  0  0
   10.4554   -5.2136   28.3661 C   0  0  0  0  0  0  0  0  0  0  0  0
    6.5731   -5.9277   26.9227 C   0  0  0  0  0  0  0  0  0  0  0  0
    2.4365   -6.9745   26.4391 N   0  0  0  0  0  0  0  0  0  0  0  0
    9.1521   -5.4516   27.8582 C   0  0  0  0  0  0  0  0  0  0  0  0
    0.6972   -9.4164   16.5428 O   0  0  0  0  0  0  0  0  0  0  0  0
    1.5163   -7.6324   27.1931 C   0  0  0  0  0  0  0  0  0  0  0  0
    8.6777   -6.7126   27.7622 N   0  0  0  0  0  0  0  0  0  0  0  0
    6.9814   -8.2958   27.1833 C   0  0  0  0  0  0  0  0  0  0  0  0
    3.6373   -7.3434   16.0519 C   0  0  0  0  0  0  0  0  0  0  0  0
    2.9097   -9.8141   17.2168 C   0  0  0  0  0  0  0  0  0  0  0  0
    5.3307   -6.2031   26.5151 C   0  0  0  0  0  0  0  0  0  0  0  0
    7.4484   -6.9732   27.3033 C   0  0  0  0  0  0  0  0  0  0  0  0
    0.1096   -5.7056   27.1736 C   0  0  0  0  0  0  0  0  0  0  0  0
    3.5100   -7.7237   25.9803 C   0  0  0  0  0  0  0  0  0  0  0  0
  1  4  4  0
  1 22  4  0
  2 20  4  0
  2 27  4  0
  3 12  4  0
  3 23  4  0
  4 25  4  0
  4 28  1  0
  5  8  4  0
  5 17  4  0
  6  7  4  0
  6 16  4  0
  7 18  4  0
  8 27  4  0
  9 13  4  0
  9 23  4  0
 10 11  1  0
 11 14  2  0
 11 27  1  0
 12 19  1  0
 12 24  4  0
 13 24  4  0
 15 18  1  0
 16 25  4  0
 16 26  4  0
 17 20  4  0
 17 28  1  0
 18 21  4  0
 21 26  4  0
 22 26  4  0
M  END
$$$$

 Created by Python create_sdf_string function

 28 31  0  0  0  0  0  0  0  0999 V2000
    5.6822   -8.4518   26.7338 C   0  0  0  0  0  0  0  0  0  0  0  0
    0.3397   -7.0956   27.5892 C   0  0  0  0  0  0  0  0  0  0  0  0
    2.2997   -7.7751   16.0078 C   0  0  0  0  0  0  0  0  0  0  0  0
    4.8467   -7.4305   26.4320 C   0  0  0  0  0  0  0  0  0  0  0  0
    2.1951   -5.6738   26.0566 C   0  0  0  0  0  0  0  0  0  0  0  0
    7.0563   -4.5758   26.9973 C   0  0  0  0  0  0  0  0  0  0  0  0
    8.3335   -4.3728   27.4295 C   0  0  0  0  0  0  0  0  0  0  0  0
    1.0519   -4.9749   26.3563 C   0  0  0  0  0  0  0  0  0  0  0  0
    4.6335   -8.1508   16.7062 C   0  0  0  0  0  0  0  0  0  0  0  0
   -1.3192   -3.8779   26.9859 F   0  0  0  0  0  0  0  0  0  0  0  0
   -1.1371   -5.0084   27.5229 C   0  0  0  0  0  0  0  0  0  0  0  0
    1.9849   -8.9984   16.5625 C   0  0  0  0  0  0  0  0  0  0  0  0
    4.2273   -9.4007   17.2768 C   0  0  0  0  0  0  0  0  0  0  0  0
   -1.9186   -5.5688   28.2591 O   0  0  0  0  0  0  0  0  0  0  0  0
   10.4840   -5.1945   28.3475 C   0  0  0  0  0  0  0  0  0  0  0  0
    6.6455   -5.9151   26.9582 C   0  0  0  0  0  0  0  0  0  0  0  0
    2.3871   -6.9897   26.4469 N   0  0  0  0  0  0  0  0  0  0  0  0
    9.1428   -5.4566   27.8739 C   0  0  0  0  0  0  0  0  0  0  0  0
    0.7062   -9.4283   16.5895 O   0  0  0  0  0  0  0  0  0  0  0  0
    1.5342   -7.6235   27.1818 C   0  0  0  0  0  0  0  0  0  0  0  0
    8.7204   -6.7072   27.8009 N   0  0  0  0  0  0  0  0  0  0  0  0
    6.9670   -8.2893   27.1835 C   0  0  0  0  0  0  0  0  0  0  0  0
    3.6387   -7.3329   16.0301 C   0  0  0  0  0  0  0  0  0  0  0  0
    2.9249   -9.7623   17.1496 C   0  0  0  0  0  0  0  0  0  0  0  0
    5.3567   -6.1968   26.5646 C   0  0  0  0  0  0  0  0  0  0  0  0
    7.4700   -6.9447   27.2671 C   0  0  0  0  0  0  0  0  0  0  0  0
    0.0784   -5.6823   27.1719 C   0  0  0  0  0  0  0  0  0  0  0  0
    3.5186   -7.7513   25.9444 C   0  0  0  0  0  0  0  0  0  0  0  0
  1  4  4  0
  1 22  4  0
  1 25  2  0
  2 20  4  0
  2 27  4  0
  3 12  4  0
  3 23  4  0
  4 25  4  0
  4 28  1  0
  5  7  4  0
  5  8  4  0
  5 17  4  0
  6  7  4  0
  6 16  4  0
  7 18  4  0
  7 25  2  0
  8 27  4  0
  9 13  4  0
  9 23  4  0
 10 11  1  0
 11 14  2  0
 11 27  1  0
 12 19  1  0
 12 24  4  0
 15 18  1  0
 16 26  4  0
 17 20  4  0
 17 28  1  0
 18 21  4  0
 21 26  4  0
 22 26  4  0
M  END
$$$$

 Created by Python create_sdf_string function

 28 30  0  0  0  0  0  0  0  0999 V2000
    5.6948   -8.4547   26.7257 C   0  0  0  0  0  0  0  0  0  0  0  0
    0.3344   -7.0387   27.5796 C   0  0  0  0  0  0  0  0  0  0  0  0
    2.3403   -7.7369   15.9962 C   0  0  0  0  0  0  0  0  0  0  0  0
    4.8439   -7.4315   26.4375 C   0  0  0  0  0  0  0  0  0  0  0  0
    2.2245   -5.6682   26.0423 C   0  0  0  0  0  0  0  0  0  0  0  0
    7.0824   -4.6074   27.0048 C   0  0  0  0  0  0  0  0  0  0  0  0
    8.3381   -4.3751   27.4453 C   0  0  0  0  0  0  0  0  0  0  0  0
    1.0545   -5.0075   26.3712 C   0  0  0  0  0  0  0  0  0  0  0  0
    4.6431   -8.1194   16.6946 C   0  0  0  0  0  0  0  0  0  0  0  0
   -1.3070   -3.8659   26.9814 O   0  0  0  0  0  0  0  0  0  0  0  0
   -1.1128   -5.0395   27.5094 C   0  0  0  0  0  0  0  0  0  0  0  0
    2.0291   -8.9699   16.5785 C   0  0  0  0  0  0  0  0  0  0  0  0
    4.2700   -9.3661   17.2682 C   0  0  0  0  0  0  0  0  0  0  0  0
   -1.8992   -5.5714   28.2410 O   0  0  0  0  0  0  0  0  0  0  0  0
   10.4651   -5.2038   28.3437 C   0  0  0  0  0  0  0  0  0  0  0  0
    6.5989   -5.9011   26.9341 C   0  0  0  0  0  0  0  0  0  0  0  0
    2.4091   -6.9701   26.4398 N   0  0  0  0  0  0  0  0  0  0  0  0
    9.1419   -5.4336   27.8483 C   0  0  0  0  0  0  0  0  0  0  0  0
    0.7636   -9.3984   16.5737 O   0  0  0  0  0  0  0  0  0  0  0  0
    1.4976   -7.6446   27.1806 C   0  0  0  0  0  0  0  0  0  0  0  0
    8.6954   -6.6980   27.7633 N   0  0  0  0  0  0  0  0  0  0  0  0
    6.9914   -8.2665   27.1860 C   0  0  0  0  0  0  0  0  0  0  0  0
    3.6736   -7.3164   16.0379 C   0  0  0  0  0  0  0  0  0  0  0  0
    2.9683   -9.7748   17.1786 C   0  0  0  0  0  0  0  0  0  0  0  0
    5.3465   -6.1935   26.5398 C   0  0  0  0  0  0  0  0  0  0  0  0
    7.4644   -6.9534   27.3036 C   0  0  0  0  0  0  0  0  0  0  0  0
    0.1073   -5.7121   27.1543 C   0  0  0  0  0  0  0  0  0  0  0  0
    3.5097   -7.7289   25.9707 C   0  0  0  0  0  0  0  0  0  0  0  0
  1  4  4  0
  1 22  4  0
  2 20  4  0
  2 27  4  0
  3 12  4  0
  3 23  4  0
  4 25  4  0
  4 28  1  0
  5  8  4  0
  5 17  4  0
  6  7  4  0
  6 16  4  0
  7 18  4  0
  8 27  4  0
  9 13  4  0
  9 23  4  0
 10 11  1  0
 11 14  2  0
 11 27  1  0
 12 19  1  0
 12 24  4  0
 13 24  4  0
 15 18  1  0
 16 25  4  0
 16 26  4  0
 17 20  4  0
 17 28  1  0
 18 21  4  0
 21 26  4  0
 22 26  4  0
M  END
$$$$

 Created by Python create_sdf_string function

 28 33  0  0  0  0  0  0  0  0999 V2000
    5.6654   -8.4208   26.7516 C   0  0  0  0  0  0  0  0  0  0  0  0
    0.3443   -7.0704   27.5751 C   0  0  0  0  0  0  0  0  0  0  0  0
    2.3506   -7.7537   15.9724 C   0  0  0  0  0  0  0  0  0  0  0  0
    4.8357   -7.4307   26.4433 C   0  0  0  0  0  0  0  0  0  0  0  0
    2.2029   -5.6657   26.0476 C   0  0  0  0  0  0  0  0  0  0  0  0
    7.0626   -4.6120   27.0014 C   0  0  0  0  0  0  0  0  0  0  0  0
    8.3565   -4.4099   27.4707 C   0  0  0  0  0  0  0  0  0  0  0  0
    1.0733   -5.0118   26.3809 C   0  0  0  0  0  0  0  0  0  0  0  0
    4.6712   -8.1242   16.6635 C   0  0  0  0  0  0  0  0  0  0  0  0
   -1.2881   -3.8929   26.9519 O   0  0  0  0  0  0  0  0  0  0  0  0
   -1.1134   -5.0526   27.4824 C   0  0  0  0  0  0  0  0  0  0  0  0
    2.0152   -8.9728   16.5773 C   0  0  0  0  0  0  0  0  0  0  0  0
    4.2835   -9.3583   17.2711 C   0  0  0  0  0  0  0  0  0  0  0  0
   -1.9065   -5.5342   28.2452 O   0  0  0  0  0  0  0  0  0  0  0  0
   10.4073   -5.1941   28.3184 C   0  0  0  0  0  0  0  0  0  0  0  0
    6.5721   -5.9173   26.9337 C   0  0  0  0  0  0  0  0  0  0  0  0
    2.4087   -6.9904   26.4227 N   0  0  0  0  0  0  0  0  0  0  0  0
    9.1648   -5.4495   27.8742 C   0  0  0  0  0  0  0  0  0  0  0  0
    0.8054   -9.4166   16.6054 O   0  0  0  0  0  0  0  0  0  0  0  0
    1.4800   -7.6164   27.1936 C   0  0  0  0  0  0  0  0  0  0  0  0
    8.6866   -6.6896   27.7958 N   0  0  0  0  0  0  0  0  0  0  0  0
    7.0000   -8.2714   27.2122 C   0  0  0  0  0  0  0  0  0  0  0  0
    3.6415   -7.2999   16.0414 C   0  0  0  0  0  0  0  0  0  0  0  0
    2.9771   -9.7676   17.1957 C   0  0  0  0  0  0  0  0  0  0  0  0
    5.3496   -6.2394   26.5299 C   0  0  0  0  0  0  0  0  0  0  0  0
    7.4425   -7.0025   27.3176 C   0  0  0  0  0  0  0  0  0  0  0  0
    0.1049   -5.6924   27.1784 C   0  0  0  0  0  0  0  0  0  0  0  0
    3.4984   -7.7123   25.9651 C   0  0  0  0  0  0  0  0  0  0  0  0
  1  4  4  0
  1 22  4  0
  2  4  3  0
  2 20  4  0
  2 25  3  0
  2 27  4  0
  3  5  4  0
  3 12  4  0
  3 23  4  0
  4 25  4  0
  4 28  1  0
  5  8  4  0
  5 17  4  0
  6  7  4  0
  6 16  4  0
  7 18  4  0
  9 13  4  0
  9 23  4  0
 10 11  1  0
 11 14  2  0
 11 18  4  0
 11 27  1  0
 12 19  1  0
 12 24  4  0
 13 24  4  0
 14 20  2  0
 15 18  1  0
 16 25  4  0
 16 26  4  0
 17 20  4  0
 17 28  1  0
 18 21  4  0
 22 26  4  0
M  END
$$$$

 Created by Python create_sdf_string function

 28 30  0  0  0  0  0  0  0  0999 V2000
    5.6848   -8.4616   26.7483 C   0  0  0  0  0  0  0  0  0  0  0  0
    0.3480   -7.0355   27.5691 C   0  0  0  0  0  0  0  0  0  0  0  0
    2.3761   -7.7375   15.9834 C   0  0  0  0  0  0  0  0  0  0  0  0
    4.8439   -7.4409   26.4337 C   0  0  0  0  0  0  0  0  0  0  0  0
    2.2390   -5.6692   26.0405 C   0  0  0  0  0  0  0  0  0  0  0  0
    7.0804   -4.6205   27.0084 C   0  0  0  0  0  0  0  0  0  0  0  0
    8.3350   -4.3812   27.4615 C   0  0  0  0  0  0  0  0  0  0  0  0
    1.0733   -5.0147   26.3786 C   0  0  0  0  0  0  0  0  0  0  0  0
    4.6836   -8.0983   16.6690 C   0  0  0  0  0  0  0  0  0  0  0  0
   -1.2923   -3.8898   26.9539 O   0  0  0  0  0  0  0  0  0  0  0  0
   -1.1027   -5.0438   27.4889 C   0  0  0  0  0  0  0  0  0  0  0  0
    2.0657   -8.9664   16.5955 C   0  0  0  0  0  0  0  0  0  0  0  0
    4.3283   -9.3378   17.2664 C   0  0  0  0  0  0  0  0  0  0  0  0
   -1.9128   -5.5586   28.2443 O   0  0  0  0  0  0  0  0  0  0  0  0
   10.4283   -5.2025   28.3276 C   0  0  0  0  0  0  0  0  0  0  0  0
    6.5812   -5.9034   26.9296 C   0  0  0  0  0  0  0  0  0  0  0  0
    2.4153   -6.9811   26.4322 N   0  0  0  0  0  0  0  0  0  0  0  0
    9.1443   -5.4436   27.8570 C   0  0  0  0  0  0  0  0  0  0  0  0
    0.8141   -9.3954   16.5908 O   0  0  0  0  0  0  0  0  0  0  0  0
    1.4958   -7.6486   27.1690 C   0  0  0  0  0  0  0  0  0  0  0  0
    8.6777   -6.6881   27.7733 N   0  0  0  0  0  0  0  0  0  0  0  0
    6.9749   -8.2606   27.2127 C   0  0  0  0  0  0  0  0  0  0  0  0
    3.6997   -7.2957   16.0369 C   0  0  0  0  0  0  0  0  0  0  0  0
    3.0110   -9.7729   17.2171 C   0  0  0  0  0  0  0  0  0  0  0  0
    5.3351   -6.1871   26.5211 C   0  0  0  0  0  0  0  0  0  0  0  0
    7.4457   -6.9499   27.3166 C   0  0  0  0  0  0  0  0  0  0  0  0
    0.1236   -5.7242   27.1517 C   0  0  0  0  0  0  0  0  0  0  0  0
    3.5146   -7.7230   25.9740 C   0  0  0  0  0  0  0  0  0  0  0  0
  1  4  4  0
  1 22  4  0
  2 20  4  0
  2 27  4  0
  3 12  4  0
  3 23  4  0
  4 25  4  0
  4 28  1  0
  5  8  4  0
  5 17  4  0
  6  7  4  0
  6 16  4  0
  7 18  4  0
  8 27  4  0
  9 13  4  0
  9 23  4  0
 10 11  1  0
 11 14  2  0
 11 27  1  0
 12 19  1  0
 12 24  4  0
 13 24  4  0
 15 18  1  0
 16 25  4  0
 16 26  4  0
 17 20  4  0
 17 28  1  0
 18 21  4  0
 21 26  4  0
 22 26  4  0
M  END
$$$$

 Created by Python create_sdf_string function

 28 31  0  0  0  0  0  0  0  0999 V2000
    5.6951   -8.4397   26.7384 C   0  0  0  0  0  0  0  0  0  0  0  0
    0.3725   -7.0569   27.5694 C   0  0  0  0  0  0  0  0  0  0  0  0
    2.3630   -7.7129   15.9899 C   0  0  0  0  0  0  0  0  0  0  0  0
    4.8865   -7.4127   26.4176 C   0  0  0  0  0  0  0  0  0  0  0  0
    2.2065   -5.6858   26.0275 C   0  0  0  0  0  0  0  0  0  0  0  0
    7.0667   -4.6293   26.9839 C   0  0  0  0  0  0  0  0  0  0  0  0
    8.3314   -4.3543   27.4729 C   0  0  0  0  0  0  0  0  0  0  0  0
    1.0775   -5.0297   26.3905 C   0  0  0  0  0  0  0  0  0  0  0  0
    4.7018   -8.1061   16.6704 C   0  0  0  0  0  0  0  0  0  0  0  0
   -1.2750   -3.9109   26.9497 O   0  0  0  0  0  0  0  0  0  0  0  0
   -1.1227   -5.0556   27.5079 C   0  0  0  0  0  0  0  0  0  0  0  0
    2.0752   -8.9974   16.6194 C   0  0  0  0  0  0  0  0  0  0  0  0
    4.3177   -9.3570   17.2746 C   0  0  0  0  0  0  0  0  0  0  0  0
   -1.9074   -5.5608   28.2747 O   0  0  0  0  0  0  0  0  0  0  0  0
   10.4020   -5.1615   28.3016 C   0  0  0  0  0  0  0  0  0  0  0  0
    6.5708   -5.8760   26.9591 C   0  0  0  0  0  0  0  0  0  0  0  0
    2.4520   -6.9919   26.4019 N   0  0  0  0  0  0  0  0  0  0  0  0
    9.1572   -5.4390   27.8429 C   0  0  0  0  0  0  0  0  0  0  0  0
    0.7960   -9.3976   16.5951 O   0  0  0  0  0  0  0  0  0  0  0  0
    1.4568   -7.6416   27.1774 C   0  0  0  0  0  0  0  0  0  0  0  0
    8.6941   -6.7146   27.7520 N   0  0  0  0  0  0  0  0  0  0  0  0
    6.9562   -8.2710   27.2266 C   0  0  0  0  0  0  0  0  0  0  0  0
    3.6932   -7.3147   16.0257 C   0  0  0  0  0  0  0  0  0  0  0  0
    3.0029   -9.7715   17.2260 C   0  0  0  0  0  0  0  0  0  0  0  0
    5.3489   -6.1866   26.5120 C   0  0  0  0  0  0  0  0  0  0  0  0
    7.4708   -6.9322   27.3045 C   0  0  0  0  0  0  0  0  0  0  0  0
    0.1303   -5.7225   27.1834 C   0  0  0  0  0  0  0  0  0  0  0  0
    3.4992   -7.6985   25.9789 He  0  0  0  0  0  0  0  0  0  0  0  0
  1  4  4  0
  1 22  4  0
  2 20  4  0
  2 27  4  0
  3 12  4  0
  3 23  4  0
  4 16  3  0
  4 25  4  0
  5  8  4  0
  5 17  4  0
  6  7  4  0
  6 16  4  0
  7 15  1  0
  7 18  4  0
  8 27  4  0
  9 13  4  0
  9 23  4  0
 10 11  1  0
 11 14  2  0
 11 27  1  0
 12 19  1  0
 12 24  4  0
 13 24  4  0
 14 26  4  0
 15 18  1  0
 16 25  4  0
 16 26  4  0
 17 20  4  0
 18 21  4  0
 21 26  4  0
 22 26  4  0
M  END
$$$$

 Created by Python create_sdf_string function

 28 30  0  0  0  0  0  0  0  0999 V2000
    5.6817   -8.4530   26.7315 C   0  0  0  0  0  0  0  0  0  0  0  0
    0.3658   -7.0405   27.5628 C   0  0  0  0  0  0  0  0  0  0  0  0
    2.4011   -7.7230   16.0050 C   0  0  0  0  0  0  0  0  0  0  0  0
    4.8486   -7.4270   26.4207 C   0  0  0  0  0  0  0  0  0  0  0  0
    2.2471   -5.6834   26.0248 C   0  0  0  0  0  0  0  0  0  0  0  0
    7.0712   -4.6191   27.0043 C   0  0  0  0  0  0  0  0  0  0  0  0
    8.3182   -4.3679   27.4583 C   0  0  0  0  0  0  0  0  0  0  0  0
    1.0733   -5.0316   26.3816 C   0  0  0  0  0  0  0  0  0  0  0  0
    4.7144   -8.0946   16.6737 C   0  0  0  0  0  0  0  0  0  0  0  0
   -1.2759   -3.9114   26.9564 O   0  0  0  0  0  0  0  0  0  0  0  0
   -1.0875   -5.0616   27.5012 C   0  0  0  0  0  0  0  0  0  0  0  0
    2.1039   -8.9583   16.6185 C   0  0  0  0  0  0  0  0  0  0  0  0
    4.3688   -9.3321   17.2795 C   0  0  0  0  0  0  0  0  0  0  0  0
   -1.8950   -5.5775   28.2640 O   0  0  0  0  0  0  0  0  0  0  0  0
   10.4237   -5.1688   28.3054 C   0  0  0  0  0  0  0  0  0  0  0  0
    6.5782   -5.8983   26.9225 C   0  0  0  0  0  0  0  0  0  0  0  0
    2.4400   -6.9918   26.4177 N   0  0  0  0  0  0  0  0  0  0  0  0
    9.1401   -5.4322   27.8348 C   0  0  0  0  0  0  0  0  0  0  0  0
    0.8339   -9.3849   16.5972 O   0  0  0  0  0  0  0  0  0  0  0  0
    1.5105   -7.6751   27.1504 C   0  0  0  0  0  0  0  0  0  0  0  0
    8.6882   -6.6902   27.7480 N   0  0  0  0  0  0  0  0  0  0  0  0
    6.9701   -8.2553   27.2139 C   0  0  0  0  0  0  0  0  0  0  0  0
    3.7347   -7.3072   16.0338 C   0  0  0  0  0  0  0  0  0  0  0  0
    3.0519   -9.7640   17.2405 C   0  0  0  0  0  0  0  0  0  0  0  0
    5.3312   -6.1718   26.5098 C   0  0  0  0  0  0  0  0  0  0  0  0
    7.4428   -6.9452   27.3069 C   0  0  0  0  0  0  0  0  0  0  0  0
    0.1364   -5.7378   27.1572 C   0  0  0  0  0  0  0  0  0  0  0  0
    3.5260   -7.7164   25.9983 C   0  0  0  0  0  0  0  0  0  0  0  0
  1  4  4  0
  1 22  4  0
  2 20  4  0
  2 27  4  0
  3 12  4  0
  3 23  4  0
  4 25  4  0
  4 28  1  0
  5  8  4  0
  5 17  4  0
  6  7  4  0
  6 16  4  0
  7 18  4  0
  8 27  4  0
  9 13  4  0
  9 23  4  0
 10 11  1  0
 11 14  2  0
 11 27  1  0
 12 19  1  0
 12 24  4  0
 13 24  4  0
 15 18  1  0
 16 25  4  0
 16 26  4  0
 17 20  4  0
 17 28  1  0
 18 21  4  0
 21 26  4  0
 22 26  4  0
M  END
$$$$

 Created by Python create_sdf_string function

 28 28  0  0  0  0  0  0  0  0999 V2000
    5.6869   -8.4435   26.7694 C   0  0  0  0  0  0  0  0  0  0  0  0
    0.3600   -7.0501   27.5615 C   0  0  0  0  0  0  0  0  0  0  0  0
    2.4308   -7.7106   15.9844 C   0  0  0  0  0  0  0  0  0  0  0  0
    4.8435   -7.4211   26.4466 C   0  0  0  0  0  0  0  0  0  0  0  0
    2.2586   -5.6644   26.0665 C   0  0  0  0  0  0  0  0  0  0  0  0
    7.0838   -4.6324   26.9784 C   0  0  0  0  0  0  0  0  0  0  0  0
    8.3102   -4.3528   27.4555 C   0  0  0  0  0  0  0  0  0  0  0  0
    1.0631   -5.0350   26.3846 C   0  0  0  0  0  0  0  0  0  0  0  0
   -1.2790   -3.9145   26.9372 O   0  0  0  0  0  0  0  0  0  0  0  0
   -1.0819   -5.0307   27.4977 C   0  0  0  0  0  0  0  0  0  0  0  0
    2.1122   -8.9621   16.6106 C   0  0  0  0  0  0  0  0  0  0  0  0
    4.3389   -9.3345   17.2819 C   0  0  0  0  0  0  0  0  0  0  0  0
   -1.8939   -5.5656   28.2795 O   0  0  0  0  0  0  0  0  0  0  0  0
   10.4663   -5.1767   28.3248 C   0  0  0  0  0  0  0  0  0  0  0  0
    6.5837   -5.8821   26.9428 C   0  0  0  0  0  0  0  0  0  0  0  0
    2.4600   -6.9891   26.4334 N   0  0  0  0  0  0  0  0  0  0  0  0
    9.1218   -5.4279   27.8669 C   0  0  0  0  0  0  0  0  0  0  0  0
    0.8348   -9.3917   16.6047 O   0  0  0  0  0  0  0  0  0  0  0  0
    1.5352   -7.6697   27.1716 C   0  0  0  0  0  0  0  0  0  0  0  0
    8.6695   -6.6927   27.7310 N   0  0  0  0  0  0  0  0  0  0  0  0
    3.7421   -7.3152   16.0455 C   0  0  0  0  0  0  0  0  0  0  0  0
    3.0451   -9.7549   17.2208 C   0  0  0  0  0  0  0  0  0  0  0  0
    5.3529   -6.1662   26.4977 C   0  0  0  0  0  0  0  0  0  0  0  0
    7.4450   -6.9084   27.2942 C   0  0  0  0  0  0  0  0  0  0  0  0
    0.1227   -5.7373   27.1654 C   0  0  0  0  0  0  0  0  0  0  0  0
    3.5402   -7.7120   26.0123 C   0  0  0  0  0  0  0  0  0  0  0  0
    4.6963   -8.0812   16.6793 He  0  0  0  0  0  0  0  0  0  0  0  0
    6.9698   -8.2707   27.2010 He  0  0  0  0  0  0  0  0  0  0  0  0
  1  4  4  0
  2 19  4  0
  2 25  4  0
  3 11  4  0
  3 21  4  0
  4 23  4  0
  4 26  1  0
  5  8  4  0
  5 16  4  0
  6  7  4  0
  6 15  4  0
  7 17  4  0
  8 18  1  0
  8 25  4  0
  9 10  1  0
  9 22  2  0
 10 13  2  0
 10 25  1  0
 11 18  1  0
 11 22  4  0
 12 22  4  0
 14 17  1  0
 15 23  4  0
 15 24  4  0
 16 19  4  0
 16 26  1  0
 17 20  4  0
 20 24  4  0
M  END
$$$$

 Created by Python create_sdf_string function

 28 30  0  0  0  0  0  0  0  0999 V2000
    5.6961   -8.4485   26.7562 C   0  0  0  0  0  0  0  0  0  0  0  0
    0.3701   -7.0511   27.5536 C   0  0  0  0  0  0  0  0  0  0  0  0
    2.4469   -7.7091   15.9933 C   0  0  0  0  0  0  0  0  0  0  0  0
    4.8540   -7.4301   26.4382 C   0  0  0  0  0  0  0  0  0  0  0  0
    2.2616   -5.6645   26.0610 C   0  0  0  0  0  0  0  0  0  0  0  0
    7.0929   -4.6122   26.9959 C   0  0  0  0  0  0  0  0  0  0  0  0
    8.3165   -4.3613   27.4548 C   0  0  0  0  0  0  0  0  0  0  0  0
    1.0859   -5.0403   26.3782 C   0  0  0  0  0  0  0  0  0  0  0  0
    4.7110   -8.0839   16.6893 C   0  0  0  0  0  0  0  0  0  0  0  0
   -1.2762   -3.9127   26.9439 O   0  0  0  0  0  0  0  0  0  0  0  0
   -1.0681   -5.0620   27.4903 C   0  0  0  0  0  0  0  0  0  0  0  0
    2.1459   -8.9399   16.6130 C   0  0  0  0  0  0  0  0  0  0  0  0
    4.3925   -9.3043   17.2822 C   0  0  0  0  0  0  0  0  0  0  0  0
   -1.8677   -5.5737   28.2587 O   0  0  0  0  0  0  0  0  0  0  0  0
   10.4540   -5.1847   28.3244 C   0  0  0  0  0  0  0  0  0  0  0  0
    6.5917   -5.8882   26.9164 C   0  0  0  0  0  0  0  0  0  0  0  0
    2.4578   -6.9868   26.4344 N   0  0  0  0  0  0  0  0  0  0  0  0
    9.1265   -5.4198   27.8429 C   0  0  0  0  0  0  0  0  0  0  0  0
    0.8807   -9.3684   16.6003 O   0  0  0  0  0  0  0  0  0  0  0  0
    1.5152   -7.6698   27.1613 C   0  0  0  0  0  0  0  0  0  0  0  0
    8.6775   -6.6869   27.7405 N   0  0  0  0  0  0  0  0  0  0  0  0
    6.9789   -8.2505   27.2027 C   0  0  0  0  0  0  0  0  0  0  0  0
    3.7683   -7.3034   16.0468 C   0  0  0  0  0  0  0  0  0  0  0  0
    3.0873   -9.7477   17.2350 C   0  0  0  0  0  0  0  0  0  0  0  0
    5.3406   -6.1703   26.5055 C   0  0  0  0  0  0  0  0  0  0  0  0
    7.4427   -6.9321   27.2956 C   0  0  0  0  0  0  0  0  0  0  0  0
    0.1461   -5.7403   27.1448 C   0  0  0  0  0  0  0  0  0  0  0  0
    3.5384   -7.7293   25.9925 C   0  0  0  0  0  0  0  0  0  0  0  0
  1  4  4  0
  1 22  4  0
  2 20  4  0
  2 27  4  0
  3 12  4  0
  3 23  4  0
  4 25  4  0
  4 28  1  0
  5  8  4  0
  5 17  4  0
  6  7  4  0
  6 16  4  0
  7 18  4  0
  8 27  4  0
  9 13  4  0
  9 23  4  0
 10 11  1  0
 11 14  2  0
 11 27  1  0
 12 19  1  0
 12 24  4  0
 13 24  4  0
 15 18  1  0
 16 25  4  0
 16 26  4  0
 17 20  4  0
 17 28  1  0
 18 21  4  0
 21 26  4  0
 22 26  4  0
M  END
$$$$

 Created by Python create_sdf_string function

 28 32  0  0  0  0  0  0  0  0999 V2000
    5.6999   -8.4547   26.7400 C   0  0  0  0  0  0  0  0  0  0  0  0
    0.3536   -7.0626   27.5665 C   0  0  0  0  0  0  0  0  0  0  0  0
    2.4474   -7.7114   15.9887 C   0  0  0  0  0  0  0  0  0  0  0  0
    4.8385   -7.4350   26.4376 C   0  0  0  0  0  0  0  0  0  0  0  0
    2.2501   -5.6792   26.0605 C   0  0  0  0  0  0  0  0  0  0  0  0
    7.1001   -4.6114   26.9961 C   0  0  0  0  0  0  0  0  0  0  0  0
    8.3065   -4.3572   27.4529 C   0  0  0  0  0  0  0  0  0  0  0  0
    1.0924   -5.0489   26.3880 C   0  0  0  0  0  0  0  0  0  0  0  0
    4.6945   -8.0823   16.6982 C   0  0  0  0  0  0  0  0  0  0  0  0
   -1.2656   -3.9078   26.9544 O   0  0  0  0  0  0  0  0  0  0  0  0
   -1.0701   -5.0700   27.4886 C   0  0  0  0  0  0  0  0  0  0  0  0
    2.1445   -8.9429   16.6065 C   0  0  0  0  0  0  0  0  0  0  0  0
    4.3878   -9.3131   17.2670 C   0  0  0  0  0  0  0  0  0  0  0  0
   -1.8963   -5.5797   28.2531 O   0  0  0  0  0  0  0  0  0  0  0  0
   10.4604   -5.1633   28.3254 C   0  0  0  0  0  0  0  0  0  0  0  0
    6.5938   -5.9052   26.9156 C   0  0  0  0  0  0  0  0  0  0  0  0
    2.4636   -6.9895   26.4317 N   0  0  0  0  0  0  0  0  0  0  0  0
    9.1347   -5.4161   27.8397 C   0  0  0  0  0  0  0  0  0  0  0  0
    0.8863   -9.3676   16.5831 O   0  0  0  0  0  0  0  0  0  0  0  0
    1.5228   -7.6544   27.1443 C   0  0  0  0  0  0  0  0  0  0  0  0
    8.6862   -6.6859   27.7147 N   0  0  0  0  0  0  0  0  0  0  0  0
    6.9784   -8.2470   27.2028 C   0  0  0  0  0  0  0  0  0  0  0  0
    3.7509   -7.3110   16.0544 C   0  0  0  0  0  0  0  0  0  0  0  0
    3.0945   -9.7481   17.2262 C   0  0  0  0  0  0  0  0  0  0  0  0
    5.3489   -6.1544   26.5111 C   0  0  0  0  0  0  0  0  0  0  0  0
    7.4468   -6.9512   27.3060 C   0  0  0  0  0  0  0  0  0  0  0  0
    0.1563   -5.7484   27.1609 C   0  0  0  0  0  0  0  0  0  0  0  0
    3.5442   -7.7304   25.9947 C   0  0  0  0  0  0  0  0  0  0  0  0
  1  4  4  0
  1 22  4  0
  2 20  4  0
  2 27  4  0
  3 12  4  0
  3 23  4  0
  4 25  4  0
  4 28  1  0
  5  8  4  0
  5 17  4  0
  6  7  4  0
  6 16  4  0
  7 18  4  0
  8 27  4  0
  9 13  4  0
  9 23  4  0
 10 11  1  0
 11 14  2  0
 11 27  1  0
 12 19  1  0
 12 24  4  0
 13 24  4  0
 15 18  1  0
 16 25  4  0
 16 26  4  0
 17 20  4  0
 17 28  1  0
 18 21  4  0
 21 26  4  0
 22 26  4  0
 26 28  1  0
 27 28  2  0
M  END
$$$$

 Created by Python create_sdf_string function

 28 30  0  0  0  0  0  0  0  0999 V2000
    5.7049   -8.4499   26.7332 C   0  0  0  0  0  0  0  0  0  0  0  0
    0.3745   -7.0598   27.5457 C   0  0  0  0  0  0  0  0  0  0  0  0
    2.4706   -7.7054   15.9974 C   0  0  0  0  0  0  0  0  0  0  0  0
    4.8580   -7.4371   26.4258 C   0  0  0  0  0  0  0  0  0  0  0  0
    2.2675   -5.6678   26.0505 C   0  0  0  0  0  0  0  0  0  0  0  0
    7.0918   -4.6171   26.9973 C   0  0  0  0  0  0  0  0  0  0  0  0
    8.3120   -4.3659   27.4490 C   0  0  0  0  0  0  0  0  0  0  0  0
    1.1014   -5.0459   26.3800 C   0  0  0  0  0  0  0  0  0  0  0  0
    4.7364   -8.0674   16.7025 C   0  0  0  0  0  0  0  0  0  0  0  0
   -1.2508   -3.9237   26.9610 O   0  0  0  0  0  0  0  0  0  0  0  0
   -1.0459   -5.0819   27.4800 C   0  0  0  0  0  0  0  0  0  0  0  0
    2.1821   -8.9308   16.6135 C   0  0  0  0  0  0  0  0  0  0  0  0
    4.4263   -9.2964   17.2777 C   0  0  0  0  0  0  0  0  0  0  0  0
   -1.8587   -5.5901   28.2274 O   0  0  0  0  0  0  0  0  0  0  0  0
   10.4458   -5.1670   28.3173 C   0  0  0  0  0  0  0  0  0  0  0  0
    6.6029   -5.8986   26.9174 C   0  0  0  0  0  0  0  0  0  0  0  0
    2.4566   -6.9903   26.4200 N   0  0  0  0  0  0  0  0  0  0  0  0
    9.1353   -5.4099   27.8287 C   0  0  0  0  0  0  0  0  0  0  0  0
    0.9301   -9.3494   16.5840 O   0  0  0  0  0  0  0  0  0  0  0  0
    1.5146   -7.6677   27.1356 C   0  0  0  0  0  0  0  0  0  0  0  0
    8.6929   -6.6819   27.7264 N   0  0  0  0  0  0  0  0  0  0  0  0
    6.9798   -8.2491   27.1949 C   0  0  0  0  0  0  0  0  0  0  0  0
    3.7803   -7.2995   16.0586 C   0  0  0  0  0  0  0  0  0  0  0  0
    3.1213   -9.7424   17.2372 C   0  0  0  0  0  0  0  0  0  0  0  0
    5.3481   -6.1742   26.5060 C   0  0  0  0  0  0  0  0  0  0  0  0
    7.4530   -6.9469   27.2911 C   0  0  0  0  0  0  0  0  0  0  0  0
    0.1581   -5.7474   27.1410 C   0  0  0  0  0  0  0  0  0  0  0  0
    3.5339   -7.7350   25.9727 C   0  0  0  0  0  0  0  0  0  0  0  0
  1  4  4  0
  1 22  4  0
  2 20  4  0
  2 27  4  0
  3 12  4  0
  3 23  4  0
  4 25  4  0
  4 28  1  0
  5  8  4  0
  5 17  4  0
  6  7  4  0
  6 16  4  0
  7 18  4  0
  8 27  4  0
  9 13  4  0
  9 23  4  0
 10 11  1  0
 11 14  2  0
 11 27  1  0
 12 19  1  0
 12 24  4  0
 13 24  4  0
 15 18  1  0
 16 25  4  0
 16 26  4  0
 17 20  4  0
 17 28  1  0
 18 21  4  0
 21 26  4  0
 22 26  4  0
M  END
$$$$

 Created by Python create_sdf_string function

 28 30  0  0  0  0  0  0  0  0999 V2000
    5.6950   -8.4357   26.7329 C   0  0  0  0  0  0  0  0  0  0  0  0
    0.3706   -7.0555   27.5407 C   0  0  0  0  0  0  0  0  0  0  0  0
    2.4727   -7.7039   15.9860 C   0  0  0  0  0  0  0  0  0  0  0  0
    4.8613   -7.4304   26.4257 C   0  0  0  0  0  0  0  0  0  0  0  0
    2.2751   -5.6727   26.0434 C   0  0  0  0  0  0  0  0  0  0  0  0
    7.0956   -4.6133   26.9957 C   0  0  0  0  0  0  0  0  0  0  0  0
    8.3244   -4.3720   27.4579 C   0  0  0  0  0  0  0  0  0  0  0  0
    1.0931   -5.0611   26.3845 C   0  0  0  0  0  0  0  0  0  0  0  0
    4.7311   -8.0707   16.7079 C   0  0  0  0  0  0  0  0  0  0  0  0
   -1.2490   -3.9268   26.9749 O   0  0  0  0  0  0  0  0  0  0  0  0
   -1.0349   -5.0744   27.4757 C   0  0  0  0  0  0  0  0  0  0  0  0
    2.1810   -8.9325   16.6114 C   0  0  0  0  0  0  0  0  0  0  0  0
    4.4213   -9.2940   17.2793 C   0  0  0  0  0  0  0  0  0  0  0  0
   -1.8573   -5.5884   28.2315 O   0  0  0  0  0  0  0  0  0  0  0  0
   10.4434   -5.1715   28.3244 C   0  0  0  0  0  0  0  0  0  0  0  0
    6.5964   -5.8874   26.9230 C   0  0  0  0  0  0  0  0  0  0  0  0
    2.4659   -6.9919   26.4236 N   0  0  0  0  0  0  0  0  0  0  0  0
    9.1331   -5.4082   27.8367 C   0  0  0  0  0  0  0  0  0  0  0  0
    0.9230   -9.3492   16.5950 O   0  0  0  0  0  0  0  0  0  0  0  0
    1.5137   -7.6793   27.1454 C   0  0  0  0  0  0  0  0  0  0  0  0
    8.6893   -6.6922   27.7341 N   0  0  0  0  0  0  0  0  0  0  0  0
    6.9719   -8.2415   27.1866 C   0  0  0  0  0  0  0  0  0  0  0  0
    3.7774   -7.3015   16.0530 C   0  0  0  0  0  0  0  0  0  0  0  0
    3.1201   -9.7369   17.2369 C   0  0  0  0  0  0  0  0  0  0  0  0
    5.3365   -6.1802   26.5142 C   0  0  0  0  0  0  0  0  0  0  0  0
    7.4493   -6.9403   27.2925 C   0  0  0  0  0  0  0  0  0  0  0  0
    0.1716   -5.7449   27.1486 C   0  0  0  0  0  0  0  0  0  0  0  0
    3.5451   -7.7298   25.9835 C   0  0  0  0  0  0  0  0  0  0  0  0
  1  4  4  0
  1 22  4  0
  2 20  4  0
  2 27  4  0
  3 12  4  0
  3 23  4  0
  4 25  4  0
  4 28  1  0
  5  8  4  0
  5 17  4  0
  6  7  4  0
  6 16  4  0
  7 18  4  0
  8 27  4  0
  9 13  4  0
  9 23  4  0
 10 11  1  0
 11 14  2  0
 11 27  1  0
 12 19  1  0
 12 24  4  0
 13 24  4  0
 15 18  1  0
 16 25  4  0
 16 26  4  0
 17 20  4  0
 17 28  1  0
 18 21  4  0
 21 26  4  0
 22 26  4  0
M  END
$$$$

 Created by Python create_sdf_string function

 28 30  0  0  0  0  0  0  0  0999 V2000
    5.7122   -8.4434   26.7283 C   0  0  0  0  0  0  0  0  0  0  0  0
    0.3869   -7.0621   27.5278 C   0  0  0  0  0  0  0  0  0  0  0  0
    2.5009   -7.6985   15.9965 C   0  0  0  0  0  0  0  0  0  0  0  0
    4.8621   -7.4334   26.4213 C   0  0  0  0  0  0  0  0  0  0  0  0
    2.2869   -5.6735   26.0409 C   0  0  0  0  0  0  0  0  0  0  0  0
    7.0927   -4.6151   26.9995 C   0  0  0  0  0  0  0  0  0  0  0  0
    8.3158   -4.3769   27.4497 C   0  0  0  0  0  0  0  0  0  0  0  0
    1.1194   -5.0536   26.3681 C   0  0  0  0  0  0  0  0  0  0  0  0
    4.7700   -8.0513   16.7094 C   0  0  0  0  0  0  0  0  0  0  0  0
   -1.2341   -3.9302   26.9732 O   0  0  0  0  0  0  0  0  0  0  0  0
   -1.0172   -5.0892   27.4711 C   0  0  0  0  0  0  0  0  0  0  0  0
    2.2126   -8.9209   16.6192 C   0  0  0  0  0  0  0  0  0  0  0  0
    4.4583   -9.2813   17.2920 C   0  0  0  0  0  0  0  0  0  0  0  0
   -1.8254   -5.5999   28.2097 O   0  0  0  0  0  0  0  0  0  0  0  0
   10.4365   -5.1733   28.3189 C   0  0  0  0  0  0  0  0  0  0  0  0
    6.6022   -5.8945   26.9177 C   0  0  0  0  0  0  0  0  0  0  0  0
    2.4691   -6.9947   26.4164 N   0  0  0  0  0  0  0  0  0  0  0  0
    9.1367   -5.4090   27.8303 C   0  0  0  0  0  0  0  0  0  0  0  0
    0.9575   -9.3348   16.5947 O   0  0  0  0  0  0  0  0  0  0  0  0
    1.5158   -7.6802   27.1306 C   0  0  0  0  0  0  0  0  0  0  0  0
    8.6895   -6.6823   27.7318 N   0  0  0  0  0  0  0  0  0  0  0  0
    6.9822   -8.2410   27.1830 C   0  0  0  0  0  0  0  0  0  0  0  0
    3.8098   -7.2881   16.0569 C   0  0  0  0  0  0  0  0  0  0  0  0
    3.1507   -9.7298   17.2485 C   0  0  0  0  0  0  0  0  0  0  0  0
    5.3463   -6.1754   26.5094 C   0  0  0  0  0  0  0  0  0  0  0  0
    7.4529   -6.9419   27.2870 C   0  0  0  0  0  0  0  0  0  0  0  0
    0.1778   -5.7519   27.1275 C   0  0  0  0  0  0  0  0  0  0  0  0
    3.5479   -7.7366   25.9767 C   0  0  0  0  0  0  0  0  0  0  0  0
  1  4  4  0
  1 22  4  0
  2 20  4  0
  2 27  4  0
  3 12  4  0
  3 23  4  0
  4 25  4  0
  4 28  1  0
  5  8  4  0
  5 17  4  0
  6  7  4  0
  6 16  4  0
  7 18  4  0
  8 27  4  0
  9 13  4  0
  9 23  4  0
 10 11  1  0
 11 14  2  0
 11 27  1  0
 12 19  1  0
 12 24  4  0
 13 24  4  0
 15 18  1  0
 16 25  4  0
 16 26  4  0
 17 20  4  0
 17 28  1  0
 18 21  4  0
 21 26  4  0
 22 26  4  0
M  END
$$$$

 Created by Python create_sdf_string function

 28 30  0  0  0  0  0  0  0  0999 V2000
    5.7080   -8.4517   26.7253 C   0  0  0  0  0  0  0  0  0  0  0  0
    0.3872   -7.0680   27.5285 C   0  0  0  0  0  0  0  0  0  0  0  0
    2.5034   -7.6976   16.0030 C   0  0  0  0  0  0  0  0  0  0  0  0
    4.8653   -7.4317   26.4170 C   0  0  0  0  0  0  0  0  0  0  0  0
    2.2806   -5.6751   26.0449 C   0  0  0  0  0  0  0  0  0  0  0  0
    7.0945   -4.6148   26.9997 C   0  0  0  0  0  0  0  0  0  0  0  0
    8.3141   -4.3763   27.4478 C   0  0  0  0  0  0  0  0  0  0  0  0
    1.1171   -5.0594   26.3625 C   0  0  0  0  0  0  0  0  0  0  0  0
    4.7676   -8.0544   16.7062 C   0  0  0  0  0  0  0  0  0  0  0  0
   -1.2292   -3.9279   26.9749 O   0  0  0  0  0  0  0  0  0  0  0  0
   -1.0143   -5.0849   27.4624 C   0  0  0  0  0  0  0  0  0  0  0  0
    2.2127   -8.9238   16.6173 C   0  0  0  0  0  0  0  0  0  0  0  0
    4.4600   -9.2747   17.2929 C   0  0  0  0  0  0  0  0  0  0  0  0
   -1.8289   -5.5953   28.2081 O   0  0  0  0  0  0  0  0  0  0  0  0
   10.4391   -5.1795   28.3221 C   0  0  0  0  0  0  0  0  0  0  0  0
    6.5980   -5.8919   26.9236 C   0  0  0  0  0  0  0  0  0  0  0  0
    2.4665   -6.9869   26.4183 N   0  0  0  0  0  0  0  0  0  0  0  0
    9.1365   -5.4141   27.8310 C   0  0  0  0  0  0  0  0  0  0  0  0
    0.9577   -9.3366   16.5991 O   0  0  0  0  0  0  0  0  0  0  0  0
    1.5144   -7.6835   27.1325 C   0  0  0  0  0  0  0  0  0  0  0  0
    8.6915   -6.6808   27.7287 N   0  0  0  0  0  0  0  0  0  0  0  0
    6.9840   -8.2453   27.1858 C   0  0  0  0  0  0  0  0  0  0  0  0
    3.8120   -7.2898   16.0537 C   0  0  0  0  0  0  0  0  0  0  0  0
    3.1535   -9.7275   17.2439 C   0  0  0  0  0  0  0  0  0  0  0  0
    5.3420   -6.1696   26.5129 C   0  0  0  0  0  0  0  0  0  0  0  0
    7.4537   -6.9526   27.2920 C   0  0  0  0  0  0  0  0  0  0  0  0
    0.1758   -5.7547   27.1328 C   0  0  0  0  0  0  0  0  0  0  0  0
    3.5458   -7.7366   25.9767 C   0  0  0  0  0  0  0  0  0  0  0  0
  1  4  4  0
  1 22  4  0
  2 20  4  0
  2 27  4  0
  3 12  4  0
  3 23  4  0
  4 25  4  0
  4 28  1  0
  5  8  4  0
  5 17  4  0
  6  7  4  0
  6 16  4  0
  7 18  4  0
  8 27  4  0
  9 13  4  0
  9 23  4  0
 10 11  1  0
 11 14  2  0
 11 27  1  0
 12 19  1  0
 12 24  4  0
 13 24  4  0
 15 18  1  0
 16 25  4  0
 16 26  4  0
 17 20  4  0
 17 28  1  0
 18 21  4  0
 21 26  4  0
 22 26  4  0
M  END
$$$$

 Created by Python create_sdf_string function

 28 30  0  0  0  0  0  0  0  0999 V2000
    5.7174   -8.4529   26.7190 C   0  0  0  0  0  0  0  0  0  0  0  0
    0.3974   -7.0711   27.5149 C   0  0  0  0  0  0  0  0  0  0  0  0
    2.5338   -7.6891   16.0102 C   0  0  0  0  0  0  0  0  0  0  0  0
    4.8690   -7.4380   26.4151 C   0  0  0  0  0  0  0  0  0  0  0  0
    2.3021   -5.6726   26.0378 C   0  0  0  0  0  0  0  0  0  0  0  0
    7.0880   -4.6163   27.0010 C   0  0  0  0  0  0  0  0  0  0  0  0
    8.3117   -4.3698   27.4436 C   0  0  0  0  0  0  0  0  0  0  0  0
    1.1339   -5.0515   26.3541 C   0  0  0  0  0  0  0  0  0  0  0  0
    4.8080   -8.0362   16.7101 C   0  0  0  0  0  0  0  0  0  0  0  0
   -1.2173   -3.9294   26.9717 O   0  0  0  0  0  0  0  0  0  0  0  0
   -1.0025   -5.0942   27.4586 C   0  0  0  0  0  0  0  0  0  0  0  0
    2.2474   -8.9123   16.6273 C   0  0  0  0  0  0  0  0  0  0  0  0
    4.4957   -9.2636   17.3041 C   0  0  0  0  0  0  0  0  0  0  0  0
   -1.8070   -5.6086   28.1920 O   0  0  0  0  0  0  0  0  0  0  0  0
   10.4296   -5.1799   28.3140 C   0  0  0  0  0  0  0  0  0  0  0  0
    6.6017   -5.9004   26.9187 C   0  0  0  0  0  0  0  0  0  0  0  0
    2.4761   -6.9940   26.4111 N   0  0  0  0  0  0  0  0  0  0  0  0
    9.1353   -5.4053   27.8239 C   0  0  0  0  0  0  0  0  0  0  0  0
    0.9922   -9.3232   16.5995 O   0  0  0  0  0  0  0  0  0  0  0  0
    1.5232   -7.6869   27.1182 C   0  0  0  0  0  0  0  0  0  0  0  0
    8.6878   -6.6715   27.7262 N   0  0  0  0  0  0  0  0  0  0  0  0
    6.9911   -8.2423   27.1808 C   0  0  0  0  0  0  0  0  0  0  0  0
    3.8436   -7.2758   16.0578 C   0  0  0  0  0  0  0  0  0  0  0  0
    3.1882   -9.7190   17.2566 C   0  0  0  0  0  0  0  0  0  0  0  0
    5.3488   -6.1737   26.5092 C   0  0  0  0  0  0  0  0  0  0  0  0
    7.4567   -6.9464   27.2858 C   0  0  0  0  0  0  0  0  0  0  0  0
    0.1921   -5.7592   27.1123 C   0  0  0  0  0  0  0  0  0  0  0  0
    3.5517   -7.7407   25.9711 C   0  0  0  0  0  0  0  0  0  0  0  0
  1  4  4  0
  1 22  4  0
  2 20  4  0
  2 27  4  0
  3 12  4  0
  3 23  4  0
  4 25  4  0
  4 28  1  0
  5  8  4  0
  5 17  4  0
  6  7  4  0
  6 16  4  0
  7 18  4  0
  8 27  4  0
  9 13  4  0
  9 23  4  0
 10 11  1  0
 11 14  2  0
 11 27  1  0
 12 19  1  0
 12 24  4  0
 13 24  4  0
 15 18  1  0
 16 25  4  0
 16 26  4  0
 17 20  4  0
 17 28  1  0
 18 21  4  0
 21 26  4  0
 22 26  4  0
M  END
$$$$

 Created by Python create_sdf_string function

 28 30  0  0  0  0  0  0  0  0999 V2000
    5.7174   -8.4529   26.7190 C   0  0  0  0  0  0  0  0  0  0  0  0
    0.3974   -7.0711   27.5149 C   0  0  0  0  0  0  0  0  0  0  0  0
    2.5338   -7.6891   16.0102 C   0  0  0  0  0  0  0  0  0  0  0  0
    4.8690   -7.4380   26.4151 C   0  0  0  0  0  0  0  0  0  0  0  0
    2.3021   -5.6726   26.0378 C   0  0  0  0  0  0  0  0  0  0  0  0
    7.0880   -4.6163   27.0010 C   0  0  0  0  0  0  0  0  0  0  0  0
    8.3117   -4.3698   27.4436 C   0  0  0  0  0  0  0  0  0  0  0  0
    1.1339   -5.0515   26.3541 C   0  0  0  0  0  0  0  0  0  0  0  0
    4.8080   -8.0362   16.7101 C   0  0  0  0  0  0  0  0  0  0  0  0
   -1.2173   -3.9294   26.9717 O   0  0  0  0  0  0  0  0  0  0  0  0
   -1.0025   -5.0942   27.4586 C   0  0  0  0  0  0  0  0  0  0  0  0
    2.2474   -8.9123   16.6273 C   0  0  0  0  0  0  0  0  0  0  0  0
    4.4957   -9.2636   17.3041 C   0  0  0  0  0  0  0  0  0  0  0  0
   -1.8070   -5.6086   28.1920 O   0  0  0  0  0  0  0  0  0  0  0  0
   10.4296   -5.1799   28.3140 C   0  0  0  0  0  0  0  0  0  0  0  0
    6.6017   -5.9004   26.9187 C   0  0  0  0  0  0  0  0  0  0  0  0
    2.4761   -6.9940   26.4111 N   0  0  0  0  0  0  0  0  0  0  0  0
    9.1353   -5.4053   27.8239 C   0  0  0  0  0  0  0  0  0  0  0  0
    0.9922   -9.3232   16.5995 O   0  0  0  0  0  0  0  0  0  0  0  0
    1.5232   -7.6869   27.1182 C   0  0  0  0  0  0  0  0  0  0  0  0
    8.6878   -6.6715   27.7262 N   0  0  0  0  0  0  0  0  0  0  0  0
    6.9911   -8.2423   27.1808 C   0  0  0  0  0  0  0  0  0  0  0  0
    3.8436   -7.2758   16.0578 C   0  0  0  0  0  0  0  0  0  0  0  0
    3.1882   -9.7190   17.2566 C   0  0  0  0  0  0  0  0  0  0  0  0
    5.3488   -6.1737   26.5092 C   0  0  0  0  0  0  0  0  0  0  0  0
    7.4567   -6.9464   27.2858 C   0  0  0  0  0  0  0  0  0  0  0  0
    0.1921   -5.7592   27.1123 C   0  0  0  0  0  0  0  0  0  0  0  0
    3.5517   -7.7407   25.9711 C   0  0  0  0  0  0  0  0  0  0  0  0
  1  4  4  0
  1 22  4  0
  2 20  4  0
  2 27  4  0
  3 12  4  0
  3 23  4  0
  4 25  4  0
  4 28  1  0
  5  8  4  0
  5 17  4  0
  6  7  4  0
  6 16  4  0
  7 18  4  0
  8 27  4  0
  9 13  4  0
  9 23  4  0
 10 11  1  0
 11 14  2  0
 11 27  1  0
 12 19  1  0
 12 24  4  0
 13 24  4  0
 15 18  1  0
 16 25  4  0
 16 26  4  0
 17 20  4  0
 17 28  1  0
 18 21  4  0
 21 26  4  0
 22 26  4  0
M  END
$$$$

 Created by Python create_sdf_string function

 28 30  0  0  0  0  0  0  0  0999 V2000
    5.7174   -8.4529   26.7190 C   0  0  0  0  0  0  0  0  0  0  0  0
    0.3974   -7.0711   27.5149 C   0  0  0  0  0  0  0  0  0  0  0  0
    2.5338   -7.6891   16.0102 C   0  0  0  0  0  0  0  0  0  0  0  0
    4.8690   -7.4380   26.4151 C   0  0  0  0  0  0  0  0  0  0  0  0
    2.3021   -5.6726   26.0378 C   0  0  0  0  0  0  0  0  0  0  0  0
    7.0880   -4.6163   27.0010 C   0  0  0  0  0  0  0  0  0  0  0  0
    8.3117   -4.3698   27.4436 C   0  0  0  0  0  0  0  0  0  0  0  0
    1.1339   -5.0515   26.3541 C   0  0  0  0  0  0  0  0  0  0  0  0
    4.8080   -8.0362   16.7101 C   0  0  0  0  0  0  0  0  0  0  0  0
   -1.2173   -3.9294   26.9717 O   0  0  0  0  0  0  0  0  0  0  0  0
   -1.0025   -5.0942   27.4586 C   0  0  0  0  0  0  0  0  0  0  0  0
    2.2474   -8.9123   16.6273 C   0  0  0  0  0  0  0  0  0  0  0  0
    4.4957   -9.2636   17.3041 C   0  0  0  0  0  0  0  0  0  0  0  0
   -1.8070   -5.6086   28.1920 O   0  0  0  0  0  0  0  0  0  0  0  0
   10.4296   -5.1799   28.3140 C   0  0  0  0  0  0  0  0  0  0  0  0
    6.6017   -5.9004   26.9187 C   0  0  0  0  0  0  0  0  0  0  0  0
    2.4761   -6.9940   26.4111 N   0  0  0  0  0  0  0  0  0  0  0  0
    9.1353   -5.4053   27.8239 C   0  0  0  0  0  0  0  0  0  0  0  0
    0.9922   -9.3232   16.5995 O   0  0  0  0  0  0  0  0  0  0  0  0
    1.5232   -7.6869   27.1182 C   0  0  0  0  0  0  0  0  0  0  0  0
    8.6878   -6.6715   27.7262 N   0  0  0  0  0  0  0  0  0  0  0  0
    6.9911   -8.2423   27.1808 C   0  0  0  0  0  0  0  0  0  0  0  0
    3.8436   -7.2758   16.0578 C   0  0  0  0  0  0  0  0  0  0  0  0
    3.1882   -9.7190   17.2566 C   0  0  0  0  0  0  0  0  0  0  0  0
    5.3488   -6.1737   26.5092 C   0  0  0  0  0  0  0  0  0  0  0  0
    7.4567   -6.9464   27.2858 C   0  0  0  0  0  0  0  0  0  0  0  0
    0.1921   -5.7592   27.1123 C   0  0  0  0  0  0  0  0  0  0  0  0
    3.5517   -7.7407   25.9711 C   0  0  0  0  0  0  0  0  0  0  0  0
  1  4  4  0
  1 22  4  0
  2 20  4  0
  2 27  4  0
  3 12  4  0
  3 23  4  0
  4 25  4  0
  4 28  1  0
  5  8  4  0
  5 17  4  0
  6  7  4  0
  6 16  4  0
  7 18  4  0
  8 27  4  0
  9 13  4  0
  9 23  4  0
 10 11  1  0
 11 14  2  0
 11 27  1  0
 12 19  1  0
 12 24  4  0
 13 24  4  0
 15 18  1  0
 16 25  4  0
 16 26  4  0
 17 20  4  0
 17 28  1  0
 18 21  4  0
 21 26  4  0
 22 26  4  0
M  END
$$$$

 Created by Python create_sdf_string function

 28 30  0  0  0  0  0  0  0  0999 V2000
    5.7174   -8.4529   26.7190 C   0  0  0  0  0  0  0  0  0  0  0  0
    0.3974   -7.0711   27.5149 C   0  0  0  0  0  0  0  0  0  0  0  0
    2.5338   -7.6891   16.0102 C   0  0  0  0  0  0  0  0  0  0  0  0
    4.8690   -7.4380   26.4151 C   0  0  0  0  0  0  0  0  0  0  0  0
    2.3021   -5.6726   26.0378 C   0  0  0  0  0  0  0  0  0  0  0  0
    7.0880   -4.6163   27.0010 C   0  0  0  0  0  0  0  0  0  0  0  0
    8.3117   -4.3698   27.4436 C   0  0  0  0  0  0  0  0  0  0  0  0
    1.1339   -5.0515   26.3541 C   0  0  0  0  0  0  0  0  0  0  0  0
    4.8080   -8.0362   16.7101 C   0  0  0  0  0  0  0  0  0  0  0  0
   -1.2173   -3.9294   26.9717 O   0  0  0  0  0  0  0  0  0  0  0  0
   -1.0025   -5.0942   27.4586 C   0  0  0  0  0  0  0  0  0  0  0  0
    2.2474   -8.9123   16.6273 C   0  0  0  0  0  0  0  0  0  0  0  0
    4.4957   -9.2636   17.3041 C   0  0  0  0  0  0  0  0  0  0  0  0
   -1.8070   -5.6086   28.1920 O   0  0  0  0  0  0  0  0  0  0  0  0
   10.4296   -5.1799   28.3140 C   0  0  0  0  0  0  0  0  0  0  0  0
    6.6017   -5.9004   26.9187 C   0  0  0  0  0  0  0  0  0  0  0  0
    2.4761   -6.9940   26.4111 N   0  0  0  0  0  0  0  0  0  0  0  0
    9.1353   -5.4053   27.8239 C   0  0  0  0  0  0  0  0  0  0  0  0
    0.9922   -9.3232   16.5995 O   0  0  0  0  0  0  0  0  0  0  0  0
    1.5232   -7.6869   27.1182 C   0  0  0  0  0  0  0  0  0  0  0  0
    8.6878   -6.6715   27.7262 N   0  0  0  0  0  0  0  0  0  0  0  0
    6.9911   -8.2423   27.1808 C   0  0  0  0  0  0  0  0  0  0  0  0
    3.8436   -7.2758   16.0578 C   0  0  0  0  0  0  0  0  0  0  0  0
    3.1882   -9.7190   17.2566 C   0  0  0  0  0  0  0  0  0  0  0  0
    5.3488   -6.1737   26.5092 C   0  0  0  0  0  0  0  0  0  0  0  0
    7.4567   -6.9464   27.2858 C   0  0  0  0  0  0  0  0  0  0  0  0
    0.1921   -5.7592   27.1123 C   0  0  0  0  0  0  0  0  0  0  0  0
    3.5517   -7.7407   25.9711 C   0  0  0  0  0  0  0  0  0  0  0  0
  1  4  4  0
  1 22  4  0
  2 20  4  0
  2 27  4  0
  3 12  4  0
  3 23  4  0
  4 25  4  0
  4 28  1  0
  5  8  4  0
  5 17  4  0
  6  7  4  0
  6 16  4  0
  7 18  4  0
  8 27  4  0
  9 13  4  0
  9 23  4  0
 10 11  1  0
 11 14  2  0
 11 27  1  0
 12 19  1  0
 12 24  4  0
 13 24  4  0
 15 18  1  0
 16 25  4  0
 16 26  4  0
 17 20  4  0
 17 28  1  0
 18 21  4  0
 21 26  4  0
 22 26  4  0
M  END
$$$$

 Created by Python create_sdf_string function

 28 30  0  0  0  0  0  0  0  0999 V2000
    5.7174   -8.4529   26.7190 C   0  0  0  0  0  0  0  0  0  0  0  0
    0.3974   -7.0711   27.5149 C   0  0  0  0  0  0  0  0  0  0  0  0
    2.5338   -7.6891   16.0102 C   0  0  0  0  0  0  0  0  0  0  0  0
    4.8690   -7.4380   26.4151 C   0  0  0  0  0  0  0  0  0  0  0  0
    2.3021   -5.6726   26.0378 C   0  0  0  0  0  0  0  0  0  0  0  0
    7.0880   -4.6163   27.0010 C   0  0  0  0  0  0  0  0  0  0  0  0
    8.3117   -4.3698   27.4436 C   0  0  0  0  0  0  0  0  0  0  0  0
    1.1339   -5.0515   26.3541 C   0  0  0  0  0  0  0  0  0  0  0  0
    4.8080   -8.0362   16.7101 C   0  0  0  0  0  0  0  0  0  0  0  0
   -1.2173   -3.9294   26.9717 O   0  0  0  0  0  0  0  0  0  0  0  0
   -1.0025   -5.0942   27.4586 C   0  0  0  0  0  0  0  0  0  0  0  0
    2.2474   -8.9123   16.6273 C   0  0  0  0  0  0  0  0  0  0  0  0
    4.4957   -9.2636   17.3041 C   0  0  0  0  0  0  0  0  0  0  0  0
   -1.8070   -5.6086   28.1920 O   0  0  0  0  0  0  0  0  0  0  0  0
   10.4296   -5.1799   28.3140 C   0  0  0  0  0  0  0  0  0  0  0  0
    6.6017   -5.9004   26.9187 C   0  0  0  0  0  0  0  0  0  0  0  0
    2.4761   -6.9940   26.4111 N   0  0  0  0  0  0  0  0  0  0  0  0
    9.1353   -5.4053   27.8239 C   0  0  0  0  0  0  0  0  0  0  0  0
    0.9922   -9.3232   16.5995 O   0  0  0  0  0  0  0  0  0  0  0  0
    1.5232   -7.6869   27.1182 C   0  0  0  0  0  0  0  0  0  0  0  0
    8.6878   -6.6715   27.7262 N   0  0  0  0  0  0  0  0  0  0  0  0
    6.9911   -8.2423   27.1808 C   0  0  0  0  0  0  0  0  0  0  0  0
    3.8436   -7.2758   16.0578 C   0  0  0  0  0  0  0  0  0  0  0  0
    3.1882   -9.7190   17.2566 C   0  0  0  0  0  0  0  0  0  0  0  0
    5.3488   -6.1737   26.5092 C   0  0  0  0  0  0  0  0  0  0  0  0
    7.4567   -6.9464   27.2858 C   0  0  0  0  0  0  0  0  0  0  0  0
    0.1921   -5.7592   27.1123 C   0  0  0  0  0  0  0  0  0  0  0  0
    3.5517   -7.7407   25.9711 C   0  0  0  0  0  0  0  0  0  0  0  0
  1  4  4  0
  1 22  4  0
  2 20  4  0
  2 27  4  0
  3 12  4  0
  3 23  4  0
  4 25  4  0
  4 28  1  0
  5  8  4  0
  5 17  4  0
  6  7  4  0
  6 16  4  0
  7 18  4  0
  8 27  4  0
  9 13  4  0
  9 23  4  0
 10 11  1  0
 11 14  2  0
 11 27  1  0
 12 19  1  0
 12 24  4  0
 13 24  4  0
 15 18  1  0
 16 25  4  0
 16 26  4  0
 17 20  4  0
 17 28  1  0
 18 21  4  0
 21 26  4  0
 22 26  4  0
M  END
$$$$

 Created by Python create_sdf_string function

 28 30  0  0  0  0  0  0  0  0999 V2000
    5.7174   -8.4529   26.7190 C   0  0  0  0  0  0  0  0  0  0  0  0
    0.3974   -7.0711   27.5149 C   0  0  0  0  0  0  0  0  0  0  0  0
    2.5338   -7.6891   16.0102 C   0  0  0  0  0  0  0  0  0  0  0  0
    4.8690   -7.4380   26.4151 C   0  0  0  0  0  0  0  0  0  0  0  0
    2.3021   -5.6726   26.0378 C   0  0  0  0  0  0  0  0  0  0  0  0
    7.0880   -4.6163   27.0010 C   0  0  0  0  0  0  0  0  0  0  0  0
    8.3117   -4.3698   27.4436 C   0  0  0  0  0  0  0  0  0  0  0  0
    1.1339   -5.0515   26.3541 C   0  0  0  0  0  0  0  0  0  0  0  0
    4.8080   -8.0362   16.7101 C   0  0  0  0  0  0  0  0  0  0  0  0
   -1.2173   -3.9294   26.9717 O   0  0  0  0  0  0  0  0  0  0  0  0
   -1.0025   -5.0942   27.4586 C   0  0  0  0  0  0  0  0  0  0  0  0
    2.2474   -8.9123   16.6273 C   0  0  0  0  0  0  0  0  0  0  0  0
    4.4957   -9.2636   17.3041 C   0  0  0  0  0  0  0  0  0  0  0  0
   -1.8070   -5.6086   28.1920 O   0  0  0  0  0  0  0  0  0  0  0  0
   10.4296   -5.1799   28.3140 C   0  0  0  0  0  0  0  0  0  0  0  0
    6.6017   -5.9004   26.9187 C   0  0  0  0  0  0  0  0  0  0  0  0
    2.4761   -6.9940   26.4111 N   0  0  0  0  0  0  0  0  0  0  0  0
    9.1353   -5.4053   27.8239 C   0  0  0  0  0  0  0  0  0  0  0  0
    0.9922   -9.3232   16.5995 O   0  0  0  0  0  0  0  0  0  0  0  0
    1.5232   -7.6869   27.1182 C   0  0  0  0  0  0  0  0  0  0  0  0
    8.6878   -6.6715   27.7262 N   0  0  0  0  0  0  0  0  0  0  0  0
    6.9911   -8.2423   27.1808 C   0  0  0  0  0  0  0  0  0  0  0  0
    3.8436   -7.2758   16.0578 C   0  0  0  0  0  0  0  0  0  0  0  0
    3.1882   -9.7190   17.2566 C   0  0  0  0  0  0  0  0  0  0  0  0
    5.3488   -6.1737   26.5092 C   0  0  0  0  0  0  0  0  0  0  0  0
    7.4567   -6.9464   27.2858 C   0  0  0  0  0  0  0  0  0  0  0  0
    0.1921   -5.7592   27.1123 C   0  0  0  0  0  0  0  0  0  0  0  0
    3.5517   -7.7407   25.9711 C   0  0  0  0  0  0  0  0  0  0  0  0
  1  4  4  0
  1 22  4  0
  2 20  4  0
  2 27  4  0
  3 12  4  0
  3 23  4  0
  4 25  4  0
  4 28  1  0
  5  8  4  0
  5 17  4  0
  6  7  4  0
  6 16  4  0
  7 18  4  0
  8 27  4  0
  9 13  4  0
  9 23  4  0
 10 11  1  0
 11 14  2  0
 11 27  1  0
 12 19  1  0
 12 24  4  0
 13 24  4  0
 15 18  1  0
 16 25  4  0
 16 26  4  0
 17 20  4  0
 17 28  1  0
 18 21  4  0
 21 26  4  0
 22 26  4  0
M  END
$$$$

 Created by Python create_sdf_string function

 28 30  0  0  0  0  0  0  0  0999 V2000
    5.7174   -8.4529   26.7190 C   0  0  0  0  0  0  0  0  0  0  0  0
    0.3974   -7.0711   27.5149 C   0  0  0  0  0  0  0  0  0  0  0  0
    2.5338   -7.6891   16.0102 C   0  0  0  0  0  0  0  0  0  0  0  0
    4.8690   -7.4380   26.4151 C   0  0  0  0  0  0  0  0  0  0  0  0
    2.3021   -5.6726   26.0378 C   0  0  0  0  0  0  0  0  0  0  0  0
    7.0880   -4.6163   27.0010 C   0  0  0  0  0  0  0  0  0  0  0  0
    8.3117   -4.3698   27.4436 C   0  0  0  0  0  0  0  0  0  0  0  0
    1.1339   -5.0515   26.3541 C   0  0  0  0  0  0  0  0  0  0  0  0
    4.8080   -8.0362   16.7101 C   0  0  0  0  0  0  0  0  0  0  0  0
   -1.2173   -3.9294   26.9717 O   0  0  0  0  0  0  0  0  0  0  0  0
   -1.0025   -5.0942   27.4586 C   0  0  0  0  0  0  0  0  0  0  0  0
    2.2474   -8.9123   16.6273 C   0  0  0  0  0  0  0  0  0  0  0  0
    4.4957   -9.2636   17.3041 C   0  0  0  0  0  0  0  0  0  0  0  0
   -1.8070   -5.6086   28.1920 O   0  0  0  0  0  0  0  0  0  0  0  0
   10.4296   -5.1799   28.3140 C   0  0  0  0  0  0  0  0  0  0  0  0
    6.6017   -5.9004   26.9187 C   0  0  0  0  0  0  0  0  0  0  0  0
    2.4761   -6.9940   26.4111 N   0  0  0  0  0  0  0  0  0  0  0  0
    9.1353   -5.4053   27.8239 C   0  0  0  0  0  0  0  0  0  0  0  0
    0.9922   -9.3232   16.5995 O   0  0  0  0  0  0  0  0  0  0  0  0
    1.5232   -7.6869   27.1182 C   0  0  0  0  0  0  0  0  0  0  0  0
    8.6878   -6.6715   27.7262 N   0  0  0  0  0  0  0  0  0  0  0  0
    6.9911   -8.2423   27.1808 C   0  0  0  0  0  0  0  0  0  0  0  0
    3.8436   -7.2758   16.0578 C   0  0  0  0  0  0  0  0  0  0  0  0
    3.1882   -9.7190   17.2566 C   0  0  0  0  0  0  0  0  0  0  0  0
    5.3488   -6.1737   26.5092 C   0  0  0  0  0  0  0  0  0  0  0  0
    7.4567   -6.9464   27.2858 C   0  0  0  0  0  0  0  0  0  0  0  0
    0.1921   -5.7592   27.1123 C   0  0  0  0  0  0  0  0  0  0  0  0
    3.5517   -7.7407   25.9711 C   0  0  0  0  0  0  0  0  0  0  0  0
  1  4  4  0
  1 22  4  0
  2 20  4  0
  2 27  4  0
  3 12  4  0
  3 23  4  0
  4 25  4  0
  4 28  1  0
  5  8  4  0
  5 17  4  0
  6  7  4  0
  6 16  4  0
  7 18  4  0
  8 27  4  0
  9 13  4  0
  9 23  4  0
 10 11  1  0
 11 14  2  0
 11 27  1  0
 12 19  1  0
 12 24  4  0
 13 24  4  0
 15 18  1  0
 16 25  4  0
 16 26  4  0
 17 20  4  0
 17 28  1  0
 18 21  4  0
 21 26  4  0
 22 26  4  0
M  END
$$$$

 Created by Python create_sdf_string function

 28 30  0  0  0  0  0  0  0  0999 V2000
    5.7174   -8.4529   26.7190 C   0  0  0  0  0  0  0  0  0  0  0  0
    0.3974   -7.0711   27.5149 C   0  0  0  0  0  0  0  0  0  0  0  0
    2.5338   -7.6891   16.0102 C   0  0  0  0  0  0  0  0  0  0  0  0
    4.8690   -7.4380   26.4151 C   0  0  0  0  0  0  0  0  0  0  0  0
    2.3021   -5.6726   26.0378 C   0  0  0  0  0  0  0  0  0  0  0  0
    7.0880   -4.6163   27.0010 C   0  0  0  0  0  0  0  0  0  0  0  0
    8.3117   -4.3698   27.4436 C   0  0  0  0  0  0  0  0  0  0  0  0
    1.1339   -5.0515   26.3541 C   0  0  0  0  0  0  0  0  0  0  0  0
    4.8080   -8.0362   16.7101 C   0  0  0  0  0  0  0  0  0  0  0  0
   -1.2173   -3.9294   26.9717 O   0  0  0  0  0  0  0  0  0  0  0  0
   -1.0025   -5.0942   27.4586 C   0  0  0  0  0  0  0  0  0  0  0  0
    2.2474   -8.9123   16.6273 C   0  0  0  0  0  0  0  0  0  0  0  0
    4.4957   -9.2636   17.3041 C   0  0  0  0  0  0  0  0  0  0  0  0
   -1.8070   -5.6086   28.1920 O   0  0  0  0  0  0  0  0  0  0  0  0
   10.4296   -5.1799   28.3140 C   0  0  0  0  0  0  0  0  0  0  0  0
    6.6017   -5.9004   26.9187 C   0  0  0  0  0  0  0  0  0  0  0  0
    2.4761   -6.9940   26.4111 N   0  0  0  0  0  0  0  0  0  0  0  0
    9.1353   -5.4053   27.8239 C   0  0  0  0  0  0  0  0  0  0  0  0
    0.9922   -9.3232   16.5995 O   0  0  0  0  0  0  0  0  0  0  0  0
    1.5232   -7.6869   27.1182 C   0  0  0  0  0  0  0  0  0  0  0  0
    8.6878   -6.6715   27.7262 N   0  0  0  0  0  0  0  0  0  0  0  0
    6.9911   -8.2423   27.1808 C   0  0  0  0  0  0  0  0  0  0  0  0
    3.8436   -7.2758   16.0578 C   0  0  0  0  0  0  0  0  0  0  0  0
    3.1882   -9.7190   17.2566 C   0  0  0  0  0  0  0  0  0  0  0  0
    5.3488   -6.1737   26.5092 C   0  0  0  0  0  0  0  0  0  0  0  0
    7.4567   -6.9464   27.2858 C   0  0  0  0  0  0  0  0  0  0  0  0
    0.1921   -5.7592   27.1123 C   0  0  0  0  0  0  0  0  0  0  0  0
    3.5517   -7.7407   25.9711 C   0  0  0  0  0  0  0  0  0  0  0  0
  1  4  4  0
  1 22  4  0
  2 20  4  0
  2 27  4  0
  3 12  4  0
  3 23  4  0
  4 25  4  0
  4 28  1  0
  5  8  4  0
  5 17  4  0
  6  7  4  0
  6 16  4  0
  7 18  4  0
  8 27  4  0
  9 13  4  0
  9 23  4  0
 10 11  1  0
 11 14  2  0
 11 27  1  0
 12 19  1  0
 12 24  4  0
 13 24  4  0
 15 18  1  0
 16 25  4  0
 16 26  4  0
 17 20  4  0
 17 28  1  0
 18 21  4  0
 21 26  4  0
 22 26  4  0
M  END
$$$$

 Created by Python create_sdf_string function

 28 30  0  0  0  0  0  0  0  0999 V2000
    5.7174   -8.4529   26.7190 C   0  0  0  0  0  0  0  0  0  0  0  0
    0.3974   -7.0711   27.5149 C   0  0  0  0  0  0  0  0  0  0  0  0
    2.5338   -7.6891   16.0102 C   0  0  0  0  0  0  0  0  0  0  0  0
    4.8690   -7.4380   26.4151 C   0  0  0  0  0  0  0  0  0  0  0  0
    2.3021   -5.6726   26.0378 C   0  0  0  0  0  0  0  0  0  0  0  0
    7.0880   -4.6163   27.0010 C   0  0  0  0  0  0  0  0  0  0  0  0
    8.3117   -4.3698   27.4436 C   0  0  0  0  0  0  0  0  0  0  0  0
    1.1339   -5.0515   26.3541 C   0  0  0  0  0  0  0  0  0  0  0  0
    4.8080   -8.0362   16.7101 C   0  0  0  0  0  0  0  0  0  0  0  0
   -1.2173   -3.9294   26.9717 O   0  0  0  0  0  0  0  0  0  0  0  0
   -1.0025   -5.0942   27.4586 C   0  0  0  0  0  0  0  0  0  0  0  0
    2.2474   -8.9123   16.6273 C   0  0  0  0  0  0  0  0  0  0  0  0
    4.4957   -9.2636   17.3041 C   0  0  0  0  0  0  0  0  0  0  0  0
   -1.8070   -5.6086   28.1920 O   0  0  0  0  0  0  0  0  0  0  0  0
   10.4296   -5.1799   28.3140 C   0  0  0  0  0  0  0  0  0  0  0  0
    6.6017   -5.9004   26.9187 C   0  0  0  0  0  0  0  0  0  0  0  0
    2.4761   -6.9940   26.4111 N   0  0  0  0  0  0  0  0  0  0  0  0
    9.1353   -5.4053   27.8239 C   0  0  0  0  0  0  0  0  0  0  0  0
    0.9922   -9.3232   16.5995 O   0  0  0  0  0  0  0  0  0  0  0  0
    1.5232   -7.6869   27.1182 C   0  0  0  0  0  0  0  0  0  0  0  0
    8.6878   -6.6715   27.7262 N   0  0  0  0  0  0  0  0  0  0  0  0
    6.9911   -8.2423   27.1808 C   0  0  0  0  0  0  0  0  0  0  0  0
    3.8436   -7.2758   16.0578 C   0  0  0  0  0  0  0  0  0  0  0  0
    3.1882   -9.7190   17.2566 C   0  0  0  0  0  0  0  0  0  0  0  0
    5.3488   -6.1737   26.5092 C   0  0  0  0  0  0  0  0  0  0  0  0
    7.4567   -6.9464   27.2858 C   0  0  0  0  0  0  0  0  0  0  0  0
    0.1921   -5.7592   27.1123 C   0  0  0  0  0  0  0  0  0  0  0  0
    3.5517   -7.7407   25.9711 C   0  0  0  0  0  0  0  0  0  0  0  0
  1  4  4  0
  1 22  4  0
  2 20  4  0
  2 27  4  0
  3 12  4  0
  3 23  4  0
  4 25  4  0
  4 28  1  0
  5  8  4  0
  5 17  4  0
  6  7  4  0
  6 16  4  0
  7 18  4  0
  8 27  4  0
  9 13  4  0
  9 23  4  0
 10 11  1  0
 11 14  2  0
 11 27  1  0
 12 19  1  0
 12 24  4  0
 13 24  4  0
 15 18  1  0
 16 25  4  0
 16 26  4  0
 17 20  4  0
 17 28  1  0
 18 21  4  0
 21 26  4  0
 22 26  4  0
M  END
$$$$

 Created by Python create_sdf_string function

 28 30  0  0  0  0  0  0  0  0999 V2000
    5.7174   -8.4529   26.7190 C   0  0  0  0  0  0  0  0  0  0  0  0
    0.3974   -7.0711   27.5149 C   0  0  0  0  0  0  0  0  0  0  0  0
    2.5338   -7.6891   16.0102 C   0  0  0  0  0  0  0  0  0  0  0  0
    4.8690   -7.4380   26.4151 C   0  0  0  0  0  0  0  0  0  0  0  0
    2.3021   -5.6726   26.0378 C   0  0  0  0  0  0  0  0  0  0  0  0
    7.0880   -4.6163   27.0010 C   0  0  0  0  0  0  0  0  0  0  0  0
    8.3117   -4.3698   27.4436 C   0  0  0  0  0  0  0  0  0  0  0  0
    1.1339   -5.0515   26.3541 C   0  0  0  0  0  0  0  0  0  0  0  0
    4.8080   -8.0362   16.7101 C   0  0  0  0  0  0  0  0  0  0  0  0
   -1.2173   -3.9294   26.9717 O   0  0  0  0  0  0  0  0  0  0  0  0
   -1.0025   -5.0942   27.4586 C   0  0  0  0  0  0  0  0  0  0  0  0
    2.2474   -8.9123   16.6273 C   0  0  0  0  0  0  0  0  0  0  0  0
    4.4957   -9.2636   17.3041 C   0  0  0  0  0  0  0  0  0  0  0  0
   -1.8070   -5.6086   28.1920 O   0  0  0  0  0  0  0  0  0  0  0  0
   10.4296   -5.1799   28.3140 C   0  0  0  0  0  0  0  0  0  0  0  0
    6.6017   -5.9004   26.9187 C   0  0  0  0  0  0  0  0  0  0  0  0
    2.4761   -6.9940   26.4111 N   0  0  0  0  0  0  0  0  0  0  0  0
    9.1353   -5.4053   27.8239 C   0  0  0  0  0  0  0  0  0  0  0  0
    0.9922   -9.3232   16.5995 O   0  0  0  0  0  0  0  0  0  0  0  0
    1.5232   -7.6869   27.1182 C   0  0  0  0  0  0  0  0  0  0  0  0
    8.6878   -6.6715   27.7262 N   0  0  0  0  0  0  0  0  0  0  0  0
    6.9911   -8.2423   27.1808 C   0  0  0  0  0  0  0  0  0  0  0  0
    3.8436   -7.2758   16.0578 C   0  0  0  0  0  0  0  0  0  0  0  0
    3.1882   -9.7190   17.2566 C   0  0  0  0  0  0  0  0  0  0  0  0
    5.3488   -6.1737   26.5092 C   0  0  0  0  0  0  0  0  0  0  0  0
    7.4567   -6.9464   27.2858 C   0  0  0  0  0  0  0  0  0  0  0  0
    0.1921   -5.7592   27.1123 C   0  0  0  0  0  0  0  0  0  0  0  0
    3.5517   -7.7407   25.9711 C   0  0  0  0  0  0  0  0  0  0  0  0
  1  4  4  0
  1 22  4  0
  2 20  4  0
  2 27  4  0
  3 12  4  0
  3 23  4  0
  4 25  4  0
  4 28  1  0
  5  8  4  0
  5 17  4  0
  6  7  4  0
  6 16  4  0
  7 18  4  0
  8 27  4  0
  9 13  4  0
  9 23  4  0
 10 11  1  0
 11 14  2  0
 11 27  1  0
 12 19  1  0
 12 24  4  0
 13 24  4  0
 15 18  1  0
 16 25  4  0
 16 26  4  0
 17 20  4  0
 17 28  1  0
 18 21  4  0
 21 26  4  0
 22 26  4  0
M  END
$$$$

 Created by Python create_sdf_string function

 28 30  0  0  0  0  0  0  0  0999 V2000
    5.7174   -8.4529   26.7190 C   0  0  0  0  0  0  0  0  0  0  0  0
    0.3974   -7.0711   27.5149 C   0  0  0  0  0  0  0  0  0  0  0  0
    2.5338   -7.6891   16.0102 C   0  0  0  0  0  0  0  0  0  0  0  0
    4.8690   -7.4380   26.4151 C   0  0  0  0  0  0  0  0  0  0  0  0
    2.3021   -5.6726   26.0378 C   0  0  0  0  0  0  0  0  0  0  0  0
    7.0880   -4.6163   27.0010 C   0  0  0  0  0  0  0  0  0  0  0  0
    8.3117   -4.3698   27.4436 C   0  0  0  0  0  0  0  0  0  0  0  0
    1.1339   -5.0515   26.3541 C   0  0  0  0  0  0  0  0  0  0  0  0
    4.8080   -8.0362   16.7101 C   0  0  0  0  0  0  0  0  0  0  0  0
   -1.2173   -3.9294   26.9717 O   0  0  0  0  0  0  0  0  0  0  0  0
   -1.0025   -5.0942   27.4586 C   0  0  0  0  0  0  0  0  0  0  0  0
    2.2474   -8.9123   16.6273 C   0  0  0  0  0  0  0  0  0  0  0  0
    4.4957   -9.2636   17.3041 C   0  0  0  0  0  0  0  0  0  0  0  0
   -1.8070   -5.6086   28.1920 O   0  0  0  0  0  0  0  0  0  0  0  0
   10.4296   -5.1799   28.3140 C   0  0  0  0  0  0  0  0  0  0  0  0
    6.6017   -5.9004   26.9187 C   0  0  0  0  0  0  0  0  0  0  0  0
    2.4761   -6.9940   26.4111 N   0  0  0  0  0  0  0  0  0  0  0  0
    9.1353   -5.4053   27.8239 C   0  0  0  0  0  0  0  0  0  0  0  0
    0.9922   -9.3232   16.5995 O   0  0  0  0  0  0  0  0  0  0  0  0
    1.5232   -7.6869   27.1182 C   0  0  0  0  0  0  0  0  0  0  0  0
    8.6878   -6.6715   27.7262 N   0  0  0  0  0  0  0  0  0  0  0  0
    6.9911   -8.2423   27.1808 C   0  0  0  0  0  0  0  0  0  0  0  0
    3.8436   -7.2758   16.0578 C   0  0  0  0  0  0  0  0  0  0  0  0
    3.1882   -9.7190   17.2566 C   0  0  0  0  0  0  0  0  0  0  0  0
    5.3488   -6.1737   26.5092 C   0  0  0  0  0  0  0  0  0  0  0  0
    7.4567   -6.9464   27.2858 C   0  0  0  0  0  0  0  0  0  0  0  0
    0.1921   -5.7592   27.1123 C   0  0  0  0  0  0  0  0  0  0  0  0
    3.5517   -7.7407   25.9711 C   0  0  0  0  0  0  0  0  0  0  0  0
  1  4  4  0
  1 22  4  0
  2 20  4  0
  2 27  4  0
  3 12  4  0
  3 23  4  0
  4 25  4  0
  4 28  1  0
  5  8  4  0
  5 17  4  0
  6  7  4  0
  6 16  4  0
  7 18  4  0
  8 27  4  0
  9 13  4  0
  9 23  4  0
 10 11  1  0
 11 14  2  0
 11 27  1  0
 12 19  1  0
 12 24  4  0
 13 24  4  0
 15 18  1  0
 16 25  4  0
 16 26  4  0
 17 20  4  0
 17 28  1  0
 18 21  4  0
 21 26  4  0
 22 26  4  0
M  END
$$$$

 Created by Python create_sdf_string function

 28 30  0  0  0  0  0  0  0  0999 V2000
    5.7174   -8.4529   26.7190 C   0  0  0  0  0  0  0  0  0  0  0  0
    0.3974   -7.0711   27.5149 C   0  0  0  0  0  0  0  0  0  0  0  0
    2.5338   -7.6891   16.0102 C   0  0  0  0  0  0  0  0  0  0  0  0
    4.8690   -7.4380   26.4151 C   0  0  0  0  0  0  0  0  0  0  0  0
    2.3021   -5.6726   26.0378 C   0  0  0  0  0  0  0  0  0  0  0  0
    7.0880   -4.6163   27.0010 C   0  0  0  0  0  0  0  0  0  0  0  0
    8.3117   -4.3698   27.4436 C   0  0  0  0  0  0  0  0  0  0  0  0
    1.1339   -5.0515   26.3541 C   0  0  0  0  0  0  0  0  0  0  0  0
    4.8080   -8.0362   16.7101 C   0  0  0  0  0  0  0  0  0  0  0  0
   -1.2173   -3.9294   26.9717 O   0  0  0  0  0  0  0  0  0  0  0  0
   -1.0025   -5.0942   27.4586 C   0  0  0  0  0  0  0  0  0  0  0  0
    2.2474   -8.9123   16.6273 C   0  0  0  0  0  0  0  0  0  0  0  0
    4.4957   -9.2636   17.3041 C   0  0  0  0  0  0  0  0  0  0  0  0
   -1.8070   -5.6086   28.1920 O   0  0  0  0  0  0  0  0  0  0  0  0
   10.4296   -5.1799   28.3140 C   0  0  0  0  0  0  0  0  0  0  0  0
    6.6017   -5.9004   26.9187 C   0  0  0  0  0  0  0  0  0  0  0  0
    2.4761   -6.9940   26.4111 N   0  0  0  0  0  0  0  0  0  0  0  0
    9.1353   -5.4053   27.8239 C   0  0  0  0  0  0  0  0  0  0  0  0
    0.9922   -9.3232   16.5995 O   0  0  0  0  0  0  0  0  0  0  0  0
    1.5232   -7.6869   27.1182 C   0  0  0  0  0  0  0  0  0  0  0  0
    8.6878   -6.6715   27.7262 N   0  0  0  0  0  0  0  0  0  0  0  0
    6.9911   -8.2423   27.1808 C   0  0  0  0  0  0  0  0  0  0  0  0
    3.8436   -7.2758   16.0578 C   0  0  0  0  0  0  0  0  0  0  0  0
    3.1882   -9.7190   17.2566 C   0  0  0  0  0  0  0  0  0  0  0  0
    5.3488   -6.1737   26.5092 C   0  0  0  0  0  0  0  0  0  0  0  0
    7.4567   -6.9464   27.2858 C   0  0  0  0  0  0  0  0  0  0  0  0
    0.1921   -5.7592   27.1123 C   0  0  0  0  0  0  0  0  0  0  0  0
    3.5517   -7.7407   25.9711 C   0  0  0  0  0  0  0  0  0  0  0  0
  1  4  4  0
  1 22  4  0
  2 20  4  0
  2 27  4  0
  3 12  4  0
  3 23  4  0
  4 25  4  0
  4 28  1  0
  5  8  4  0
  5 17  4  0
  6  7  4  0
  6 16  4  0
  7 18  4  0
  8 27  4  0
  9 13  4  0
  9 23  4  0
 10 11  1  0
 11 14  2  0
 11 27  1  0
 12 19  1  0
 12 24  4  0
 13 24  4  0
 15 18  1  0
 16 25  4  0
 16 26  4  0
 17 20  4  0
 17 28  1  0
 18 21  4  0
 21 26  4  0
 22 26  4  0
M  END
$$$$

 Created by Python create_sdf_string function

 28 30  0  0  0  0  0  0  0  0999 V2000
    5.7174   -8.4529   26.7190 C   0  0  0  0  0  0  0  0  0  0  0  0
    0.3974   -7.0711   27.5149 C   0  0  0  0  0  0  0  0  0  0  0  0
    2.5338   -7.6891   16.0102 C   0  0  0  0  0  0  0  0  0  0  0  0
    4.8690   -7.4380   26.4151 C   0  0  0  0  0  0  0  0  0  0  0  0
    2.3021   -5.6726   26.0378 C   0  0  0  0  0  0  0  0  0  0  0  0
    7.0880   -4.6163   27.0010 C   0  0  0  0  0  0  0  0  0  0  0  0
    8.3117   -4.3698   27.4436 C   0  0  0  0  0  0  0  0  0  0  0  0
    1.1339   -5.0515   26.3541 C   0  0  0  0  0  0  0  0  0  0  0  0
    4.8080   -8.0362   16.7101 C   0  0  0  0  0  0  0  0  0  0  0  0
   -1.2173   -3.9294   26.9717 O   0  0  0  0  0  0  0  0  0  0  0  0
   -1.0025   -5.0942   27.4586 C   0  0  0  0  0  0  0  0  0  0  0  0
    2.2474   -8.9123   16.6273 C   0  0  0  0  0  0  0  0  0  0  0  0
    4.4957   -9.2636   17.3041 C   0  0  0  0  0  0  0  0  0  0  0  0
   -1.8070   -5.6086   28.1920 O   0  0  0  0  0  0  0  0  0  0  0  0
   10.4296   -5.1799   28.3140 C   0  0  0  0  0  0  0  0  0  0  0  0
    6.6017   -5.9004   26.9187 C   0  0  0  0  0  0  0  0  0  0  0  0
    2.4761   -6.9940   26.4111 N   0  0  0  0  0  0  0  0  0  0  0  0
    9.1353   -5.4053   27.8239 C   0  0  0  0  0  0  0  0  0  0  0  0
    0.9922   -9.3232   16.5995 O   0  0  0  0  0  0  0  0  0  0  0  0
    1.5232   -7.6869   27.1182 C   0  0  0  0  0  0  0  0  0  0  0  0
    8.6878   -6.6715   27.7262 N   0  0  0  0  0  0  0  0  0  0  0  0
    6.9911   -8.2423   27.1808 C   0  0  0  0  0  0  0  0  0  0  0  0
    3.8436   -7.2758   16.0578 C   0  0  0  0  0  0  0  0  0  0  0  0
    3.1882   -9.7190   17.2566 C   0  0  0  0  0  0  0  0  0  0  0  0
    5.3488   -6.1737   26.5092 C   0  0  0  0  0  0  0  0  0  0  0  0
    7.4567   -6.9464   27.2858 C   0  0  0  0  0  0  0  0  0  0  0  0
    0.1921   -5.7592   27.1123 C   0  0  0  0  0  0  0  0  0  0  0  0
    3.5517   -7.7407   25.9711 C   0  0  0  0  0  0  0  0  0  0  0  0
  1  4  4  0
  1 22  4  0
  2 20  4  0
  2 27  4  0
  3 12  4  0
  3 23  4  0
  4 25  4  0
  4 28  1  0
  5  8  4  0
  5 17  4  0
  6  7  4  0
  6 16  4  0
  7 18  4  0
  8 27  4  0
  9 13  4  0
  9 23  4  0
 10 11  1  0
 11 14  2  0
 11 27  1  0
 12 19  1  0
 12 24  4  0
 13 24  4  0
 15 18  1  0
 16 25  4  0
 16 26  4  0
 17 20  4  0
 17 28  1  0
 18 21  4  0
 21 26  4  0
 22 26  4  0
M  END
$$$$

 Created by Python create_sdf_string function

 28 30  0  0  0  0  0  0  0  0999 V2000
    5.7174   -8.4529   26.7190 C   0  0  0  0  0  0  0  0  0  0  0  0
    0.3974   -7.0711   27.5149 C   0  0  0  0  0  0  0  0  0  0  0  0
    2.5338   -7.6891   16.0102 C   0  0  0  0  0  0  0  0  0  0  0  0
    4.8690   -7.4380   26.4151 C   0  0  0  0  0  0  0  0  0  0  0  0
    2.3021   -5.6726   26.0378 C   0  0  0  0  0  0  0  0  0  0  0  0
    7.0880   -4.6163   27.0010 C   0  0  0  0  0  0  0  0  0  0  0  0
    8.3117   -4.3698   27.4436 C   0  0  0  0  0  0  0  0  0  0  0  0
    1.1339   -5.0515   26.3541 C   0  0  0  0  0  0  0  0  0  0  0  0
    4.8080   -8.0362   16.7101 C   0  0  0  0  0  0  0  0  0  0  0  0
   -1.2173   -3.9294   26.9717 O   0  0  0  0  0  0  0  0  0  0  0  0
   -1.0025   -5.0942   27.4586 C   0  0  0  0  0  0  0  0  0  0  0  0
    2.2474   -8.9123   16.6273 C   0  0  0  0  0  0  0  0  0  0  0  0
    4.4957   -9.2636   17.3041 C   0  0  0  0  0  0  0  0  0  0  0  0
   -1.8070   -5.6086   28.1920 O   0  0  0  0  0  0  0  0  0  0  0  0
   10.4296   -5.1799   28.3140 C   0  0  0  0  0  0  0  0  0  0  0  0
    6.6017   -5.9004   26.9187 C   0  0  0  0  0  0  0  0  0  0  0  0
    2.4761   -6.9940   26.4111 N   0  0  0  0  0  0  0  0  0  0  0  0
    9.1353   -5.4053   27.8239 C   0  0  0  0  0  0  0  0  0  0  0  0
    0.9922   -9.3232   16.5995 O   0  0  0  0  0  0  0  0  0  0  0  0
    1.5232   -7.6869   27.1182 C   0  0  0  0  0  0  0  0  0  0  0  0
    8.6878   -6.6715   27.7262 N   0  0  0  0  0  0  0  0  0  0  0  0
    6.9911   -8.2423   27.1808 C   0  0  0  0  0  0  0  0  0  0  0  0
    3.8436   -7.2758   16.0578 C   0  0  0  0  0  0  0  0  0  0  0  0
    3.1882   -9.7190   17.2566 C   0  0  0  0  0  0  0  0  0  0  0  0
    5.3488   -6.1737   26.5092 C   0  0  0  0  0  0  0  0  0  0  0  0
    7.4567   -6.9464   27.2858 C   0  0  0  0  0  0  0  0  0  0  0  0
    0.1921   -5.7592   27.1123 C   0  0  0  0  0  0  0  0  0  0  0  0
    3.5517   -7.7407   25.9711 C   0  0  0  0  0  0  0  0  0  0  0  0
  1  4  4  0
  1 22  4  0
  2 20  4  0
  2 27  4  0
  3 12  4  0
  3 23  4  0
  4 25  4  0
  4 28  1  0
  5  8  4  0
  5 17  4  0
  6  7  4  0
  6 16  4  0
  7 18  4  0
  8 27  4  0
  9 13  4  0
  9 23  4  0
 10 11  1  0
 11 14  2  0
 11 27  1  0
 12 19  1  0
 12 24  4  0
 13 24  4  0
 15 18  1  0
 16 25  4  0
 16 26  4  0
 17 20  4  0
 17 28  1  0
 18 21  4  0
 21 26  4  0
 22 26  4  0
M  END
$$$$

 Created by Python create_sdf_string function

 28 30  0  0  0  0  0  0  0  0999 V2000
    5.7174   -8.4529   26.7190 C   0  0  0  0  0  0  0  0  0  0  0  0
    0.3974   -7.0711   27.5149 C   0  0  0  0  0  0  0  0  0  0  0  0
    2.5338   -7.6891   16.0102 C   0  0  0  0  0  0  0  0  0  0  0  0
    4.8690   -7.4380   26.4151 C   0  0  0  0  0  0  0  0  0  0  0  0
    2.3021   -5.6726   26.0378 C   0  0  0  0  0  0  0  0  0  0  0  0
    7.0880   -4.6163   27.0010 C   0  0  0  0  0  0  0  0  0  0  0  0
    8.3117   -4.3698   27.4436 C   0  0  0  0  0  0  0  0  0  0  0  0
    1.1339   -5.0515   26.3541 C   0  0  0  0  0  0  0  0  0  0  0  0
    4.8080   -8.0362   16.7101 C   0  0  0  0  0  0  0  0  0  0  0  0
   -1.2173   -3.9294   26.9717 O   0  0  0  0  0  0  0  0  0  0  0  0
   -1.0025   -5.0942   27.4586 C   0  0  0  0  0  0  0  0  0  0  0  0
    2.2474   -8.9123   16.6273 C   0  0  0  0  0  0  0  0  0  0  0  0
    4.4957   -9.2636   17.3041 C   0  0  0  0  0  0  0  0  0  0  0  0
   -1.8070   -5.6086   28.1920 O   0  0  0  0  0  0  0  0  0  0  0  0
   10.4296   -5.1799   28.3140 C   0  0  0  0  0  0  0  0  0  0  0  0
    6.6017   -5.9004   26.9187 C   0  0  0  0  0  0  0  0  0  0  0  0
    2.4761   -6.9940   26.4111 N   0  0  0  0  0  0  0  0  0  0  0  0
    9.1353   -5.4053   27.8239 C   0  0  0  0  0  0  0  0  0  0  0  0
    0.9922   -9.3232   16.5995 O   0  0  0  0  0  0  0  0  0  0  0  0
    1.5232   -7.6869   27.1182 C   0  0  0  0  0  0  0  0  0  0  0  0
    8.6878   -6.6715   27.7262 N   0  0  0  0  0  0  0  0  0  0  0  0
    6.9911   -8.2423   27.1808 C   0  0  0  0  0  0  0  0  0  0  0  0
    3.8436   -7.2758   16.0578 C   0  0  0  0  0  0  0  0  0  0  0  0
    3.1882   -9.7190   17.2566 C   0  0  0  0  0  0  0  0  0  0  0  0
    5.3488   -6.1737   26.5092 C   0  0  0  0  0  0  0  0  0  0  0  0
    7.4567   -6.9464   27.2858 C   0  0  0  0  0  0  0  0  0  0  0  0
    0.1921   -5.7592   27.1123 C   0  0  0  0  0  0  0  0  0  0  0  0
    3.5517   -7.7407   25.9711 C   0  0  0  0  0  0  0  0  0  0  0  0
  1  4  4  0
  1 22  4  0
  2 20  4  0
  2 27  4  0
  3 12  4  0
  3 23  4  0
  4 25  4  0
  4 28  1  0
  5  8  4  0
  5 17  4  0
  6  7  4  0
  6 16  4  0
  7 18  4  0
  8 27  4  0
  9 13  4  0
  9 23  4  0
 10 11  1  0
 11 14  2  0
 11 27  1  0
 12 19  1  0
 12 24  4  0
 13 24  4  0
 15 18  1  0
 16 25  4  0
 16 26  4  0
 17 20  4  0
 17 28  1  0
 18 21  4  0
 21 26  4  0
 22 26  4  0
M  END
$$$$

 Created by Python create_sdf_string function

 28 30  0  0  0  0  0  0  0  0999 V2000
    5.7174   -8.4529   26.7190 C   0  0  0  0  0  0  0  0  0  0  0  0
    0.3974   -7.0711   27.5149 C   0  0  0  0  0  0  0  0  0  0  0  0
    2.5338   -7.6891   16.0102 C   0  0  0  0  0  0  0  0  0  0  0  0
    4.8690   -7.4380   26.4151 C   0  0  0  0  0  0  0  0  0  0  0  0
    2.3021   -5.6726   26.0378 C   0  0  0  0  0  0  0  0  0  0  0  0
    7.0880   -4.6163   27.0010 C   0  0  0  0  0  0  0  0  0  0  0  0
    8.3117   -4.3698   27.4436 C   0  0  0  0  0  0  0  0  0  0  0  0
    1.1339   -5.0515   26.3541 C   0  0  0  0  0  0  0  0  0  0  0  0
    4.8080   -8.0362   16.7101 C   0  0  0  0  0  0  0  0  0  0  0  0
   -1.2173   -3.9294   26.9717 O   0  0  0  0  0  0  0  0  0  0  0  0
   -1.0025   -5.0942   27.4586 C   0  0  0  0  0  0  0  0  0  0  0  0
    2.2474   -8.9123   16.6273 C   0  0  0  0  0  0  0  0  0  0  0  0
    4.4957   -9.2636   17.3041 C   0  0  0  0  0  0  0  0  0  0  0  0
   -1.8070   -5.6086   28.1920 O   0  0  0  0  0  0  0  0  0  0  0  0
   10.4296   -5.1799   28.3140 C   0  0  0  0  0  0  0  0  0  0  0  0
    6.6017   -5.9004   26.9187 C   0  0  0  0  0  0  0  0  0  0  0  0
    2.4761   -6.9940   26.4111 N   0  0  0  0  0  0  0  0  0  0  0  0
    9.1353   -5.4053   27.8239 C   0  0  0  0  0  0  0  0  0  0  0  0
    0.9922   -9.3232   16.5995 O   0  0  0  0  0  0  0  0  0  0  0  0
    1.5232   -7.6869   27.1182 C   0  0  0  0  0  0  0  0  0  0  0  0
    8.6878   -6.6715   27.7262 N   0  0  0  0  0  0  0  0  0  0  0  0
    6.9911   -8.2423   27.1808 C   0  0  0  0  0  0  0  0  0  0  0  0
    3.8436   -7.2758   16.0578 C   0  0  0  0  0  0  0  0  0  0  0  0
    3.1882   -9.7190   17.2566 C   0  0  0  0  0  0  0  0  0  0  0  0
    5.3488   -6.1737   26.5092 C   0  0  0  0  0  0  0  0  0  0  0  0
    7.4567   -6.9464   27.2858 C   0  0  0  0  0  0  0  0  0  0  0  0
    0.1921   -5.7592   27.1123 C   0  0  0  0  0  0  0  0  0  0  0  0
    3.5517   -7.7407   25.9711 C   0  0  0  0  0  0  0  0  0  0  0  0
  1  4  4  0
  1 22  4  0
  2 20  4  0
  2 27  4  0
  3 12  4  0
  3 23  4  0
  4 25  4  0
  4 28  1  0
  5  8  4  0
  5 17  4  0
  6  7  4  0
  6 16  4  0
  7 18  4  0
  8 27  4  0
  9 13  4  0
  9 23  4  0
 10 11  1  0
 11 14  2  0
 11 27  1  0
 12 19  1  0
 12 24  4  0
 13 24  4  0
 15 18  1  0
 16 25  4  0
 16 26  4  0
 17 20  4  0
 17 28  1  0
 18 21  4  0
 21 26  4  0
 22 26  4  0
M  END
$$$$

 Created by Python create_sdf_string function

 28 30  0  0  0  0  0  0  0  0999 V2000
    5.7174   -8.4529   26.7190 C   0  0  0  0  0  0  0  0  0  0  0  0
    0.3974   -7.0711   27.5149 C   0  0  0  0  0  0  0  0  0  0  0  0
    2.5338   -7.6891   16.0102 C   0  0  0  0  0  0  0  0  0  0  0  0
    4.8690   -7.4380   26.4151 C   0  0  0  0  0  0  0  0  0  0  0  0
    2.3021   -5.6726   26.0378 C   0  0  0  0  0  0  0  0  0  0  0  0
    7.0880   -4.6163   27.0010 C   0  0  0  0  0  0  0  0  0  0  0  0
    8.3117   -4.3698   27.4436 C   0  0  0  0  0  0  0  0  0  0  0  0
    1.1339   -5.0515   26.3541 C   0  0  0  0  0  0  0  0  0  0  0  0
    4.8080   -8.0362   16.7101 C   0  0  0  0  0  0  0  0  0  0  0  0
   -1.2173   -3.9294   26.9717 O   0  0  0  0  0  0  0  0  0  0  0  0
   -1.0025   -5.0942   27.4586 C   0  0  0  0  0  0  0  0  0  0  0  0
    2.2474   -8.9123   16.6273 C   0  0  0  0  0  0  0  0  0  0  0  0
    4.4957   -9.2636   17.3041 C   0  0  0  0  0  0  0  0  0  0  0  0
   -1.8070   -5.6086   28.1920 O   0  0  0  0  0  0  0  0  0  0  0  0
   10.4296   -5.1799   28.3140 C   0  0  0  0  0  0  0  0  0  0  0  0
    6.6017   -5.9004   26.9187 C   0  0  0  0  0  0  0  0  0  0  0  0
    2.4761   -6.9940   26.4111 N   0  0  0  0  0  0  0  0  0  0  0  0
    9.1353   -5.4053   27.8239 C   0  0  0  0  0  0  0  0  0  0  0  0
    0.9922   -9.3232   16.5995 O   0  0  0  0  0  0  0  0  0  0  0  0
    1.5232   -7.6869   27.1182 C   0  0  0  0  0  0  0  0  0  0  0  0
    8.6878   -6.6715   27.7262 N   0  0  0  0  0  0  0  0  0  0  0  0
    6.9911   -8.2423   27.1808 C   0  0  0  0  0  0  0  0  0  0  0  0
    3.8436   -7.2758   16.0578 C   0  0  0  0  0  0  0  0  0  0  0  0
    3.1882   -9.7190   17.2566 C   0  0  0  0  0  0  0  0  0  0  0  0
    5.3488   -6.1737   26.5092 C   0  0  0  0  0  0  0  0  0  0  0  0
    7.4567   -6.9464   27.2858 C   0  0  0  0  0  0  0  0  0  0  0  0
    0.1921   -5.7592   27.1123 C   0  0  0  0  0  0  0  0  0  0  0  0
    3.5517   -7.7407   25.9711 C   0  0  0  0  0  0  0  0  0  0  0  0
  1  4  4  0
  1 22  4  0
  2 20  4  0
  2 27  4  0
  3 12  4  0
  3 23  4  0
  4 25  4  0
  4 28  1  0
  5  8  4  0
  5 17  4  0
  6  7  4  0
  6 16  4  0
  7 18  4  0
  8 27  4  0
  9 13  4  0
  9 23  4  0
 10 11  1  0
 11 14  2  0
 11 27  1  0
 12 19  1  0
 12 24  4  0
 13 24  4  0
 15 18  1  0
 16 25  4  0
 16 26  4  0
 17 20  4  0
 17 28  1  0
 18 21  4  0
 21 26  4  0
 22 26  4  0
M  END
$$$$

 Created by Python create_sdf_string function

 28 30  0  0  0  0  0  0  0  0999 V2000
    5.7174   -8.4529   26.7190 C   0  0  0  0  0  0  0  0  0  0  0  0
    0.3974   -7.0711   27.5149 C   0  0  0  0  0  0  0  0  0  0  0  0
    2.5338   -7.6891   16.0102 C   0  0  0  0  0  0  0  0  0  0  0  0
    4.8690   -7.4380   26.4151 C   0  0  0  0  0  0  0  0  0  0  0  0
    2.3021   -5.6726   26.0378 C   0  0  0  0  0  0  0  0  0  0  0  0
    7.0880   -4.6163   27.0010 C   0  0  0  0  0  0  0  0  0  0  0  0
    8.3117   -4.3698   27.4436 C   0  0  0  0  0  0  0  0  0  0  0  0
    1.1339   -5.0515   26.3541 C   0  0  0  0  0  0  0  0  0  0  0  0
    4.8080   -8.0362   16.7101 C   0  0  0  0  0  0  0  0  0  0  0  0
   -1.2173   -3.9294   26.9717 O   0  0  0  0  0  0  0  0  0  0  0  0
   -1.0025   -5.0942   27.4586 C   0  0  0  0  0  0  0  0  0  0  0  0
    2.2474   -8.9123   16.6273 C   0  0  0  0  0  0  0  0  0  0  0  0
    4.4957   -9.2636   17.3041 C   0  0  0  0  0  0  0  0  0  0  0  0
   -1.8070   -5.6086   28.1920 O   0  0  0  0  0  0  0  0  0  0  0  0
   10.4296   -5.1799   28.3140 C   0  0  0  0  0  0  0  0  0  0  0  0
    6.6017   -5.9004   26.9187 C   0  0  0  0  0  0  0  0  0  0  0  0
    2.4761   -6.9940   26.4111 N   0  0  0  0  0  0  0  0  0  0  0  0
    9.1353   -5.4053   27.8239 C   0  0  0  0  0  0  0  0  0  0  0  0
    0.9922   -9.3232   16.5995 O   0  0  0  0  0  0  0  0  0  0  0  0
    1.5232   -7.6869   27.1182 C   0  0  0  0  0  0  0  0  0  0  0  0
    8.6878   -6.6715   27.7262 N   0  0  0  0  0  0  0  0  0  0  0  0
    6.9911   -8.2423   27.1808 C   0  0  0  0  0  0  0  0  0  0  0  0
    3.8436   -7.2758   16.0578 C   0  0  0  0  0  0  0  0  0  0  0  0
    3.1882   -9.7190   17.2566 C   0  0  0  0  0  0  0  0  0  0  0  0
    5.3488   -6.1737   26.5092 C   0  0  0  0  0  0  0  0  0  0  0  0
    7.4567   -6.9464   27.2858 C   0  0  0  0  0  0  0  0  0  0  0  0
    0.1921   -5.7592   27.1123 C   0  0  0  0  0  0  0  0  0  0  0  0
    3.5517   -7.7407   25.9711 C   0  0  0  0  0  0  0  0  0  0  0  0
  1  4  4  0
  1 22  4  0
  2 20  4  0
  2 27  4  0
  3 12  4  0
  3 23  4  0
  4 25  4  0
  4 28  1  0
  5  8  4  0
  5 17  4  0
  6  7  4  0
  6 16  4  0
  7 18  4  0
  8 27  4  0
  9 13  4  0
  9 23  4  0
 10 11  1  0
 11 14  2  0
 11 27  1  0
 12 19  1  0
 12 24  4  0
 13 24  4  0
 15 18  1  0
 16 25  4  0
 16 26  4  0
 17 20  4  0
 17 28  1  0
 18 21  4  0
 21 26  4  0
 22 26  4  0
M  END
$$$$

 Created by Python create_sdf_string function

 28 30  0  0  0  0  0  0  0  0999 V2000
    5.7174   -8.4529   26.7190 C   0  0  0  0  0  0  0  0  0  0  0  0
    0.3974   -7.0711   27.5149 C   0  0  0  0  0  0  0  0  0  0  0  0
    2.5338   -7.6891   16.0102 C   0  0  0  0  0  0  0  0  0  0  0  0
    4.8690   -7.4380   26.4151 C   0  0  0  0  0  0  0  0  0  0  0  0
    2.3021   -5.6726   26.0378 C   0  0  0  0  0  0  0  0  0  0  0  0
    7.0880   -4.6163   27.0010 C   0  0  0  0  0  0  0  0  0  0  0  0
    8.3117   -4.3698   27.4436 C   0  0  0  0  0  0  0  0  0  0  0  0
    1.1339   -5.0515   26.3541 C   0  0  0  0  0  0  0  0  0  0  0  0
    4.8080   -8.0362   16.7101 C   0  0  0  0  0  0  0  0  0  0  0  0
   -1.2173   -3.9294   26.9717 O   0  0  0  0  0  0  0  0  0  0  0  0
   -1.0025   -5.0942   27.4586 C   0  0  0  0  0  0  0  0  0  0  0  0
    2.2474   -8.9123   16.6273 C   0  0  0  0  0  0  0  0  0  0  0  0
    4.4957   -9.2636   17.3041 C   0  0  0  0  0  0  0  0  0  0  0  0
   -1.8070   -5.6086   28.1920 O   0  0  0  0  0  0  0  0  0  0  0  0
   10.4296   -5.1799   28.3140 C   0  0  0  0  0  0  0  0  0  0  0  0
    6.6017   -5.9004   26.9187 C   0  0  0  0  0  0  0  0  0  0  0  0
    2.4761   -6.9940   26.4111 N   0  0  0  0  0  0  0  0  0  0  0  0
    9.1353   -5.4053   27.8239 C   0  0  0  0  0  0  0  0  0  0  0  0
    0.9922   -9.3232   16.5995 O   0  0  0  0  0  0  0  0  0  0  0  0
    1.5232   -7.6869   27.1182 C   0  0  0  0  0  0  0  0  0  0  0  0
    8.6878   -6.6715   27.7262 N   0  0  0  0  0  0  0  0  0  0  0  0
    6.9911   -8.2423   27.1808 C   0  0  0  0  0  0  0  0  0  0  0  0
    3.8436   -7.2758   16.0578 C   0  0  0  0  0  0  0  0  0  0  0  0
    3.1882   -9.7190   17.2566 C   0  0  0  0  0  0  0  0  0  0  0  0
    5.3488   -6.1737   26.5092 C   0  0  0  0  0  0  0  0  0  0  0  0
    7.4567   -6.9464   27.2858 C   0  0  0  0  0  0  0  0  0  0  0  0
    0.1921   -5.7592   27.1123 C   0  0  0  0  0  0  0  0  0  0  0  0
    3.5517   -7.7407   25.9711 C   0  0  0  0  0  0  0  0  0  0  0  0
  1  4  4  0
  1 22  4  0
  2 20  4  0
  2 27  4  0
  3 12  4  0
  3 23  4  0
  4 25  4  0
  4 28  1  0
  5  8  4  0
  5 17  4  0
  6  7  4  0
  6 16  4  0
  7 18  4  0
  8 27  4  0
  9 13  4  0
  9 23  4  0
 10 11  1  0
 11 14  2  0
 11 27  1  0
 12 19  1  0
 12 24  4  0
 13 24  4  0
 15 18  1  0
 16 25  4  0
 16 26  4  0
 17 20  4  0
 17 28  1  0
 18 21  4  0
 21 26  4  0
 22 26  4  0
M  END
$$$$

 Created by Python create_sdf_string function

 28 30  0  0  0  0  0  0  0  0999 V2000
    5.7174   -8.4529   26.7190 C   0  0  0  0  0  0  0  0  0  0  0  0
    0.3974   -7.0711   27.5149 C   0  0  0  0  0  0  0  0  0  0  0  0
    2.5338   -7.6891   16.0102 C   0  0  0  0  0  0  0  0  0  0  0  0
    4.8690   -7.4380   26.4151 C   0  0  0  0  0  0  0  0  0  0  0  0
    2.3021   -5.6726   26.0378 C   0  0  0  0  0  0  0  0  0  0  0  0
    7.0880   -4.6163   27.0010 C   0  0  0  0  0  0  0  0  0  0  0  0
    8.3117   -4.3698   27.4436 C   0  0  0  0  0  0  0  0  0  0  0  0
    1.1339   -5.0515   26.3541 C   0  0  0  0  0  0  0  0  0  0  0  0
    4.8080   -8.0362   16.7101 C   0  0  0  0  0  0  0  0  0  0  0  0
   -1.2173   -3.9294   26.9717 O   0  0  0  0  0  0  0  0  0  0  0  0
   -1.0025   -5.0942   27.4586 C   0  0  0  0  0  0  0  0  0  0  0  0
    2.2474   -8.9123   16.6273 C   0  0  0  0  0  0  0  0  0  0  0  0
    4.4957   -9.2636   17.3041 C   0  0  0  0  0  0  0  0  0  0  0  0
   -1.8070   -5.6086   28.1920 O   0  0  0  0  0  0  0  0  0  0  0  0
   10.4296   -5.1799   28.3140 C   0  0  0  0  0  0  0  0  0  0  0  0
    6.6017   -5.9004   26.9187 C   0  0  0  0  0  0  0  0  0  0  0  0
    2.4761   -6.9940   26.4111 N   0  0  0  0  0  0  0  0  0  0  0  0
    9.1353   -5.4053   27.8239 C   0  0  0  0  0  0  0  0  0  0  0  0
    0.9922   -9.3232   16.5995 O   0  0  0  0  0  0  0  0  0  0  0  0
    1.5232   -7.6869   27.1182 C   0  0  0  0  0  0  0  0  0  0  0  0
    8.6878   -6.6715   27.7262 N   0  0  0  0  0  0  0  0  0  0  0  0
    6.9911   -8.2423   27.1808 C   0  0  0  0  0  0  0  0  0  0  0  0
    3.8436   -7.2758   16.0578 C   0  0  0  0  0  0  0  0  0  0  0  0
    3.1882   -9.7190   17.2566 C   0  0  0  0  0  0  0  0  0  0  0  0
    5.3488   -6.1737   26.5092 C   0  0  0  0  0  0  0  0  0  0  0  0
    7.4567   -6.9464   27.2858 C   0  0  0  0  0  0  0  0  0  0  0  0
    0.1921   -5.7592   27.1123 C   0  0  0  0  0  0  0  0  0  0  0  0
    3.5517   -7.7407   25.9711 C   0  0  0  0  0  0  0  0  0  0  0  0
  1  4  4  0
  1 22  4  0
  2 20  4  0
  2 27  4  0
  3 12  4  0
  3 23  4  0
  4 25  4  0
  4 28  1  0
  5  8  4  0
  5 17  4  0
  6  7  4  0
  6 16  4  0
  7 18  4  0
  8 27  4  0
  9 13  4  0
  9 23  4  0
 10 11  1  0
 11 14  2  0
 11 27  1  0
 12 19  1  0
 12 24  4  0
 13 24  4  0
 15 18  1  0
 16 25  4  0
 16 26  4  0
 17 20  4  0
 17 28  1  0
 18 21  4  0
 21 26  4  0
 22 26  4  0
M  END
$$$$

 Created by Python create_sdf_string function

 28 30  0  0  0  0  0  0  0  0999 V2000
    5.7174   -8.4529   26.7190 C   0  0  0  0  0  0  0  0  0  0  0  0
    0.3974   -7.0711   27.5149 C   0  0  0  0  0  0  0  0  0  0  0  0
    2.5338   -7.6891   16.0102 C   0  0  0  0  0  0  0  0  0  0  0  0
    4.8690   -7.4380   26.4151 C   0  0  0  0  0  0  0  0  0  0  0  0
    2.3021   -5.6726   26.0378 C   0  0  0  0  0  0  0  0  0  0  0  0
    7.0880   -4.6163   27.0010 C   0  0  0  0  0  0  0  0  0  0  0  0
    8.3117   -4.3698   27.4436 C   0  0  0  0  0  0  0  0  0  0  0  0
    1.1339   -5.0515   26.3541 C   0  0  0  0  0  0  0  0  0  0  0  0
    4.8080   -8.0362   16.7101 C   0  0  0  0  0  0  0  0  0  0  0  0
   -1.2173   -3.9294   26.9717 O   0  0  0  0  0  0  0  0  0  0  0  0
   -1.0025   -5.0942   27.4586 C   0  0  0  0  0  0  0  0  0  0  0  0
    2.2474   -8.9123   16.6273 C   0  0  0  0  0  0  0  0  0  0  0  0
    4.4957   -9.2636   17.3041 C   0  0  0  0  0  0  0  0  0  0  0  0
   -1.8070   -5.6086   28.1920 O   0  0  0  0  0  0  0  0  0  0  0  0
   10.4296   -5.1799   28.3140 C   0  0  0  0  0  0  0  0  0  0  0  0
    6.6017   -5.9004   26.9187 C   0  0  0  0  0  0  0  0  0  0  0  0
    2.4761   -6.9940   26.4111 N   0  0  0  0  0  0  0  0  0  0  0  0
    9.1353   -5.4053   27.8239 C   0  0  0  0  0  0  0  0  0  0  0  0
    0.9922   -9.3232   16.5995 O   0  0  0  0  0  0  0  0  0  0  0  0
    1.5232   -7.6869   27.1182 C   0  0  0  0  0  0  0  0  0  0  0  0
    8.6878   -6.6715   27.7262 N   0  0  0  0  0  0  0  0  0  0  0  0
    6.9911   -8.2423   27.1808 C   0  0  0  0  0  0  0  0  0  0  0  0
    3.8436   -7.2758   16.0578 C   0  0  0  0  0  0  0  0  0  0  0  0
    3.1882   -9.7190   17.2566 C   0  0  0  0  0  0  0  0  0  0  0  0
    5.3488   -6.1737   26.5092 C   0  0  0  0  0  0  0  0  0  0  0  0
    7.4567   -6.9464   27.2858 C   0  0  0  0  0  0  0  0  0  0  0  0
    0.1921   -5.7592   27.1123 C   0  0  0  0  0  0  0  0  0  0  0  0
    3.5517   -7.7407   25.9711 C   0  0  0  0  0  0  0  0  0  0  0  0
  1  4  4  0
  1 22  4  0
  2 20  4  0
  2 27  4  0
  3 12  4  0
  3 23  4  0
  4 25  4  0
  4 28  1  0
  5  8  4  0
  5 17  4  0
  6  7  4  0
  6 16  4  0
  7 18  4  0
  8 27  4  0
  9 13  4  0
  9 23  4  0
 10 11  1  0
 11 14  2  0
 11 27  1  0
 12 19  1  0
 12 24  4  0
 13 24  4  0
 15 18  1  0
 16 25  4  0
 16 26  4  0
 17 20  4  0
 17 28  1  0
 18 21  4  0
 21 26  4  0
 22 26  4  0
M  END
$$$$

 Created by Python create_sdf_string function

 28 30  0  0  0  0  0  0  0  0999 V2000
    5.7174   -8.4529   26.7190 C   0  0  0  0  0  0  0  0  0  0  0  0
    0.3974   -7.0711   27.5149 C   0  0  0  0  0  0  0  0  0  0  0  0
    2.5338   -7.6891   16.0102 C   0  0  0  0  0  0  0  0  0  0  0  0
    4.8690   -7.4380   26.4151 C   0  0  0  0  0  0  0  0  0  0  0  0
    2.3021   -5.6726   26.0378 C   0  0  0  0  0  0  0  0  0  0  0  0
    7.0880   -4.6163   27.0010 C   0  0  0  0  0  0  0  0  0  0  0  0
    8.3117   -4.3698   27.4436 C   0  0  0  0  0  0  0  0  0  0  0  0
    1.1339   -5.0515   26.3541 C   0  0  0  0  0  0  0  0  0  0  0  0
    4.8080   -8.0362   16.7101 C   0  0  0  0  0  0  0  0  0  0  0  0
   -1.2173   -3.9294   26.9717 O   0  0  0  0  0  0  0  0  0  0  0  0
   -1.0025   -5.0942   27.4586 C   0  0  0  0  0  0  0  0  0  0  0  0
    2.2474   -8.9123   16.6273 C   0  0  0  0  0  0  0  0  0  0  0  0
    4.4957   -9.2636   17.3041 C   0  0  0  0  0  0  0  0  0  0  0  0
   -1.8070   -5.6086   28.1920 O   0  0  0  0  0  0  0  0  0  0  0  0
   10.4296   -5.1799   28.3140 C   0  0  0  0  0  0  0  0  0  0  0  0
    6.6017   -5.9004   26.9187 C   0  0  0  0  0  0  0  0  0  0  0  0
    2.4761   -6.9940   26.4111 N   0  0  0  0  0  0  0  0  0  0  0  0
    9.1353   -5.4053   27.8239 C   0  0  0  0  0  0  0  0  0  0  0  0
    0.9922   -9.3232   16.5995 O   0  0  0  0  0  0  0  0  0  0  0  0
    1.5232   -7.6869   27.1182 C   0  0  0  0  0  0  0  0  0  0  0  0
    8.6878   -6.6715   27.7262 N   0  0  0  0  0  0  0  0  0  0  0  0
    6.9911   -8.2423   27.1808 C   0  0  0  0  0  0  0  0  0  0  0  0
    3.8436   -7.2758   16.0578 C   0  0  0  0  0  0  0  0  0  0  0  0
    3.1882   -9.7190   17.2566 C   0  0  0  0  0  0  0  0  0  0  0  0
    5.3488   -6.1737   26.5092 C   0  0  0  0  0  0  0  0  0  0  0  0
    7.4567   -6.9464   27.2858 C   0  0  0  0  0  0  0  0  0  0  0  0
    0.1921   -5.7592   27.1123 C   0  0  0  0  0  0  0  0  0  0  0  0
    3.5517   -7.7407   25.9711 C   0  0  0  0  0  0  0  0  0  0  0  0
  1  4  4  0
  1 22  4  0
  2 20  4  0
  2 27  4  0
  3 12  4  0
  3 23  4  0
  4 25  4  0
  4 28  1  0
  5  8  4  0
  5 17  4  0
  6  7  4  0
  6 16  4  0
  7 18  4  0
  8 27  4  0
  9 13  4  0
  9 23  4  0
 10 11  1  0
 11 14  2  0
 11 27  1  0
 12 19  1  0
 12 24  4  0
 13 24  4  0
 15 18  1  0
 16 25  4  0
 16 26  4  0
 17 20  4  0
 17 28  1  0
 18 21  4  0
 21 26  4  0
 22 26  4  0
M  END
$$$$

 Created by Python create_sdf_string function

 28 30  0  0  0  0  0  0  0  0999 V2000
    5.7174   -8.4529   26.7190 C   0  0  0  0  0  0  0  0  0  0  0  0
    0.3974   -7.0711   27.5149 C   0  0  0  0  0  0  0  0  0  0  0  0
    2.5338   -7.6891   16.0102 C   0  0  0  0  0  0  0  0  0  0  0  0
    4.8690   -7.4380   26.4151 C   0  0  0  0  0  0  0  0  0  0  0  0
    2.3021   -5.6726   26.0378 C   0  0  0  0  0  0  0  0  0  0  0  0
    7.0880   -4.6163   27.0010 C   0  0  0  0  0  0  0  0  0  0  0  0
    8.3117   -4.3698   27.4436 C   0  0  0  0  0  0  0  0  0  0  0  0
    1.1339   -5.0515   26.3541 C   0  0  0  0  0  0  0  0  0  0  0  0
    4.8080   -8.0362   16.7101 C   0  0  0  0  0  0  0  0  0  0  0  0
   -1.2173   -3.9294   26.9717 O   0  0  0  0  0  0  0  0  0  0  0  0
   -1.0025   -5.0942   27.4586 C   0  0  0  0  0  0  0  0  0  0  0  0
    2.2474   -8.9123   16.6273 C   0  0  0  0  0  0  0  0  0  0  0  0
    4.4957   -9.2636   17.3041 C   0  0  0  0  0  0  0  0  0  0  0  0
   -1.8070   -5.6086   28.1920 O   0  0  0  0  0  0  0  0  0  0  0  0
   10.4296   -5.1799   28.3140 C   0  0  0  0  0  0  0  0  0  0  0  0
    6.6017   -5.9004   26.9187 C   0  0  0  0  0  0  0  0  0  0  0  0
    2.4761   -6.9940   26.4111 N   0  0  0  0  0  0  0  0  0  0  0  0
    9.1353   -5.4053   27.8239 C   0  0  0  0  0  0  0  0  0  0  0  0
    0.9922   -9.3232   16.5995 O   0  0  0  0  0  0  0  0  0  0  0  0
    1.5232   -7.6869   27.1182 C   0  0  0  0  0  0  0  0  0  0  0  0
    8.6878   -6.6715   27.7262 N   0  0  0  0  0  0  0  0  0  0  0  0
    6.9911   -8.2423   27.1808 C   0  0  0  0  0  0  0  0  0  0  0  0
    3.8436   -7.2758   16.0578 C   0  0  0  0  0  0  0  0  0  0  0  0
    3.1882   -9.7190   17.2566 C   0  0  0  0  0  0  0  0  0  0  0  0
    5.3488   -6.1737   26.5092 C   0  0  0  0  0  0  0  0  0  0  0  0
    7.4567   -6.9464   27.2858 C   0  0  0  0  0  0  0  0  0  0  0  0
    0.1921   -5.7592   27.1123 C   0  0  0  0  0  0  0  0  0  0  0  0
    3.5517   -7.7407   25.9711 C   0  0  0  0  0  0  0  0  0  0  0  0
  1  4  4  0
  1 22  4  0
  2 20  4  0
  2 27  4  0
  3 12  4  0
  3 23  4  0
  4 25  4  0
  4 28  1  0
  5  8  4  0
  5 17  4  0
  6  7  4  0
  6 16  4  0
  7 18  4  0
  8 27  4  0
  9 13  4  0
  9 23  4  0
 10 11  1  0
 11 14  2  0
 11 27  1  0
 12 19  1  0
 12 24  4  0
 13 24  4  0
 15 18  1  0
 16 25  4  0
 16 26  4  0
 17 20  4  0
 17 28  1  0
 18 21  4  0
 21 26  4  0
 22 26  4  0
M  END
$$$$

 Created by Python create_sdf_string function

 28 30  0  0  0  0  0  0  0  0999 V2000
    5.7174   -8.4529   26.7190 C   0  0  0  0  0  0  0  0  0  0  0  0
    0.3974   -7.0711   27.5149 C   0  0  0  0  0  0  0  0  0  0  0  0
    2.5338   -7.6891   16.0102 C   0  0  0  0  0  0  0  0  0  0  0  0
    4.8690   -7.4380   26.4151 C   0  0  0  0  0  0  0  0  0  0  0  0
    2.3021   -5.6726   26.0378 C   0  0  0  0  0  0  0  0  0  0  0  0
    7.0880   -4.6163   27.0010 C   0  0  0  0  0  0  0  0  0  0  0  0
    8.3117   -4.3698   27.4436 C   0  0  0  0  0  0  0  0  0  0  0  0
    1.1339   -5.0515   26.3541 C   0  0  0  0  0  0  0  0  0  0  0  0
    4.8080   -8.0362   16.7101 C   0  0  0  0  0  0  0  0  0  0  0  0
   -1.2173   -3.9294   26.9717 O   0  0  0  0  0  0  0  0  0  0  0  0
   -1.0025   -5.0942   27.4586 C   0  0  0  0  0  0  0  0  0  0  0  0
    2.2474   -8.9123   16.6273 C   0  0  0  0  0  0  0  0  0  0  0  0
    4.4957   -9.2636   17.3041 C   0  0  0  0  0  0  0  0  0  0  0  0
   -1.8070   -5.6086   28.1920 O   0  0  0  0  0  0  0  0  0  0  0  0
   10.4296   -5.1799   28.3140 C   0  0  0  0  0  0  0  0  0  0  0  0
    6.6017   -5.9004   26.9187 C   0  0  0  0  0  0  0  0  0  0  0  0
    2.4761   -6.9940   26.4111 N   0  0  0  0  0  0  0  0  0  0  0  0
    9.1353   -5.4053   27.8239 C   0  0  0  0  0  0  0  0  0  0  0  0
    0.9922   -9.3232   16.5995 O   0  0  0  0  0  0  0  0  0  0  0  0
    1.5232   -7.6869   27.1182 C   0  0  0  0  0  0  0  0  0  0  0  0
    8.6878   -6.6715   27.7262 N   0  0  0  0  0  0  0  0  0  0  0  0
    6.9911   -8.2423   27.1808 C   0  0  0  0  0  0  0  0  0  0  0  0
    3.8436   -7.2758   16.0578 C   0  0  0  0  0  0  0  0  0  0  0  0
    3.1882   -9.7190   17.2566 C   0  0  0  0  0  0  0  0  0  0  0  0
    5.3488   -6.1737   26.5092 C   0  0  0  0  0  0  0  0  0  0  0  0
    7.4567   -6.9464   27.2858 C   0  0  0  0  0  0  0  0  0  0  0  0
    0.1921   -5.7592   27.1123 C   0  0  0  0  0  0  0  0  0  0  0  0
    3.5517   -7.7407   25.9711 C   0  0  0  0  0  0  0  0  0  0  0  0
  1  4  4  0
  1 22  4  0
  2 20  4  0
  2 27  4  0
  3 12  4  0
  3 23  4  0
  4 25  4  0
  4 28  1  0
  5  8  4  0
  5 17  4  0
  6  7  4  0
  6 16  4  0
  7 18  4  0
  8 27  4  0
  9 13  4  0
  9 23  4  0
 10 11  1  0
 11 14  2  0
 11 27  1  0
 12 19  1  0
 12 24  4  0
 13 24  4  0
 15 18  1  0
 16 25  4  0
 16 26  4  0
 17 20  4  0
 17 28  1  0
 18 21  4  0
 21 26  4  0
 22 26  4  0
M  END
$$$$

 Created by Python create_sdf_string function

 28 30  0  0  0  0  0  0  0  0999 V2000
    5.7174   -8.4529   26.7190 C   0  0  0  0  0  0  0  0  0  0  0  0
    0.3974   -7.0711   27.5149 C   0  0  0  0  0  0  0  0  0  0  0  0
    2.5338   -7.6891   16.0102 C   0  0  0  0  0  0  0  0  0  0  0  0
    4.8690   -7.4380   26.4151 C   0  0  0  0  0  0  0  0  0  0  0  0
    2.3021   -5.6726   26.0378 C   0  0  0  0  0  0  0  0  0  0  0  0
    7.0880   -4.6163   27.0010 C   0  0  0  0  0  0  0  0  0  0  0  0
    8.3117   -4.3698   27.4436 C   0  0  0  0  0  0  0  0  0  0  0  0
    1.1339   -5.0515   26.3541 C   0  0  0  0  0  0  0  0  0  0  0  0
    4.8080   -8.0362   16.7101 C   0  0  0  0  0  0  0  0  0  0  0  0
   -1.2173   -3.9294   26.9717 O   0  0  0  0  0  0  0  0  0  0  0  0
   -1.0025   -5.0942   27.4586 C   0  0  0  0  0  0  0  0  0  0  0  0
    2.2474   -8.9123   16.6273 C   0  0  0  0  0  0  0  0  0  0  0  0
    4.4957   -9.2636   17.3041 C   0  0  0  0  0  0  0  0  0  0  0  0
   -1.8070   -5.6086   28.1920 O   0  0  0  0  0  0  0  0  0  0  0  0
   10.4296   -5.1799   28.3140 C   0  0  0  0  0  0  0  0  0  0  0  0
    6.6017   -5.9004   26.9187 C   0  0  0  0  0  0  0  0  0  0  0  0
    2.4761   -6.9940   26.4111 N   0  0  0  0  0  0  0  0  0  0  0  0
    9.1353   -5.4053   27.8239 C   0  0  0  0  0  0  0  0  0  0  0  0
    0.9922   -9.3232   16.5995 O   0  0  0  0  0  0  0  0  0  0  0  0
    1.5232   -7.6869   27.1182 C   0  0  0  0  0  0  0  0  0  0  0  0
    8.6878   -6.6715   27.7262 N   0  0  0  0  0  0  0  0  0  0  0  0
    6.9911   -8.2423   27.1808 C   0  0  0  0  0  0  0  0  0  0  0  0
    3.8436   -7.2758   16.0578 C   0  0  0  0  0  0  0  0  0  0  0  0
    3.1882   -9.7190   17.2566 C   0  0  0  0  0  0  0  0  0  0  0  0
    5.3488   -6.1737   26.5092 C   0  0  0  0  0  0  0  0  0  0  0  0
    7.4567   -6.9464   27.2858 C   0  0  0  0  0  0  0  0  0  0  0  0
    0.1921   -5.7592   27.1123 C   0  0  0  0  0  0  0  0  0  0  0  0
    3.5517   -7.7407   25.9711 C   0  0  0  0  0  0  0  0  0  0  0  0
  1  4  4  0
  1 22  4  0
  2 20  4  0
  2 27  4  0
  3 12  4  0
  3 23  4  0
  4 25  4  0
  4 28  1  0
  5  8  4  0
  5 17  4  0
  6  7  4  0
  6 16  4  0
  7 18  4  0
  8 27  4  0
  9 13  4  0
  9 23  4  0
 10 11  1  0
 11 14  2  0
 11 27  1  0
 12 19  1  0
 12 24  4  0
 13 24  4  0
 15 18  1  0
 16 25  4  0
 16 26  4  0
 17 20  4  0
 17 28  1  0
 18 21  4  0
 21 26  4  0
 22 26  4  0
M  END
$$$$

 Created by Python create_sdf_string function

 28 30  0  0  0  0  0  0  0  0999 V2000
    5.7174   -8.4529   26.7190 C   0  0  0  0  0  0  0  0  0  0  0  0
    0.3974   -7.0711   27.5149 C   0  0  0  0  0  0  0  0  0  0  0  0
    2.5338   -7.6891   16.0102 C   0  0  0  0  0  0  0  0  0  0  0  0
    4.8690   -7.4380   26.4151 C   0  0  0  0  0  0  0  0  0  0  0  0
    2.3021   -5.6726   26.0378 C   0  0  0  0  0  0  0  0  0  0  0  0
    7.0880   -4.6163   27.0010 C   0  0  0  0  0  0  0  0  0  0  0  0
    8.3117   -4.3698   27.4436 C   0  0  0  0  0  0  0  0  0  0  0  0
    1.1339   -5.0515   26.3541 C   0  0  0  0  0  0  0  0  0  0  0  0
    4.8080   -8.0362   16.7101 C   0  0  0  0  0  0  0  0  0  0  0  0
   -1.2173   -3.9294   26.9717 O   0  0  0  0  0  0  0  0  0  0  0  0
   -1.0025   -5.0942   27.4586 C   0  0  0  0  0  0  0  0  0  0  0  0
    2.2474   -8.9123   16.6273 C   0  0  0  0  0  0  0  0  0  0  0  0
    4.4957   -9.2636   17.3041 C   0  0  0  0  0  0  0  0  0  0  0  0
   -1.8070   -5.6086   28.1920 O   0  0  0  0  0  0  0  0  0  0  0  0
   10.4296   -5.1799   28.3140 C   0  0  0  0  0  0  0  0  0  0  0  0
    6.6017   -5.9004   26.9187 C   0  0  0  0  0  0  0  0  0  0  0  0
    2.4761   -6.9940   26.4111 N   0  0  0  0  0  0  0  0  0  0  0  0
    9.1353   -5.4053   27.8239 C   0  0  0  0  0  0  0  0  0  0  0  0
    0.9922   -9.3232   16.5995 O   0  0  0  0  0  0  0  0  0  0  0  0
    1.5232   -7.6869   27.1182 C   0  0  0  0  0  0  0  0  0  0  0  0
    8.6878   -6.6715   27.7262 N   0  0  0  0  0  0  0  0  0  0  0  0
    6.9911   -8.2423   27.1808 C   0  0  0  0  0  0  0  0  0  0  0  0
    3.8436   -7.2758   16.0578 C   0  0  0  0  0  0  0  0  0  0  0  0
    3.1882   -9.7190   17.2566 C   0  0  0  0  0  0  0  0  0  0  0  0
    5.3488   -6.1737   26.5092 C   0  0  0  0  0  0  0  0  0  0  0  0
    7.4567   -6.9464   27.2858 C   0  0  0  0  0  0  0  0  0  0  0  0
    0.1921   -5.7592   27.1123 C   0  0  0  0  0  0  0  0  0  0  0  0
    3.5517   -7.7407   25.9711 C   0  0  0  0  0  0  0  0  0  0  0  0
  1  4  4  0
  1 22  4  0
  2 20  4  0
  2 27  4  0
  3 12  4  0
  3 23  4  0
  4 25  4  0
  4 28  1  0
  5  8  4  0
  5 17  4  0
  6  7  4  0
  6 16  4  0
  7 18  4  0
  8 27  4  0
  9 13  4  0
  9 23  4  0
 10 11  1  0
 11 14  2  0
 11 27  1  0
 12 19  1  0
 12 24  4  0
 13 24  4  0
 15 18  1  0
 16 25  4  0
 16 26  4  0
 17 20  4  0
 17 28  1  0
 18 21  4  0
 21 26  4  0
 22 26  4  0
M  END
$$$$

 Created by Python create_sdf_string function

 28 30  0  0  0  0  0  0  0  0999 V2000
    5.7174   -8.4529   26.7190 C   0  0  0  0  0  0  0  0  0  0  0  0
    0.3974   -7.0711   27.5149 C   0  0  0  0  0  0  0  0  0  0  0  0
    2.5338   -7.6891   16.0102 C   0  0  0  0  0  0  0  0  0  0  0  0
    4.8690   -7.4380   26.4151 C   0  0  0  0  0  0  0  0  0  0  0  0
    2.3021   -5.6726   26.0378 C   0  0  0  0  0  0  0  0  0  0  0  0
    7.0880   -4.6163   27.0010 C   0  0  0  0  0  0  0  0  0  0  0  0
    8.3117   -4.3698   27.4436 C   0  0  0  0  0  0  0  0  0  0  0  0
    1.1339   -5.0515   26.3541 C   0  0  0  0  0  0  0  0  0  0  0  0
    4.8080   -8.0362   16.7101 C   0  0  0  0  0  0  0  0  0  0  0  0
   -1.2173   -3.9294   26.9717 O   0  0  0  0  0  0  0  0  0  0  0  0
   -1.0025   -5.0942   27.4586 C   0  0  0  0  0  0  0  0  0  0  0  0
    2.2474   -8.9123   16.6273 C   0  0  0  0  0  0  0  0  0  0  0  0
    4.4957   -9.2636   17.3041 C   0  0  0  0  0  0  0  0  0  0  0  0
   -1.8070   -5.6086   28.1920 O   0  0  0  0  0  0  0  0  0  0  0  0
   10.4296   -5.1799   28.3140 C   0  0  0  0  0  0  0  0  0  0  0  0
    6.6017   -5.9004   26.9187 C   0  0  0  0  0  0  0  0  0  0  0  0
    2.4761   -6.9940   26.4111 N   0  0  0  0  0  0  0  0  0  0  0  0
    9.1353   -5.4053   27.8239 C   0  0  0  0  0  0  0  0  0  0  0  0
    0.9922   -9.3232   16.5995 O   0  0  0  0  0  0  0  0  0  0  0  0
    1.5232   -7.6869   27.1182 C   0  0  0  0  0  0  0  0  0  0  0  0
    8.6878   -6.6715   27.7262 N   0  0  0  0  0  0  0  0  0  0  0  0
    6.9911   -8.2423   27.1808 C   0  0  0  0  0  0  0  0  0  0  0  0
    3.8436   -7.2758   16.0578 C   0  0  0  0  0  0  0  0  0  0  0  0
    3.1882   -9.7190   17.2566 C   0  0  0  0  0  0  0  0  0  0  0  0
    5.3488   -6.1737   26.5092 C   0  0  0  0  0  0  0  0  0  0  0  0
    7.4567   -6.9464   27.2858 C   0  0  0  0  0  0  0  0  0  0  0  0
    0.1921   -5.7592   27.1123 C   0  0  0  0  0  0  0  0  0  0  0  0
    3.5517   -7.7407   25.9711 C   0  0  0  0  0  0  0  0  0  0  0  0
  1  4  4  0
  1 22  4  0
  2 20  4  0
  2 27  4  0
  3 12  4  0
  3 23  4  0
  4 25  4  0
  4 28  1  0
  5  8  4  0
  5 17  4  0
  6  7  4  0
  6 16  4  0
  7 18  4  0
  8 27  4  0
  9 13  4  0
  9 23  4  0
 10 11  1  0
 11 14  2  0
 11 27  1  0
 12 19  1  0
 12 24  4  0
 13 24  4  0
 15 18  1  0
 16 25  4  0
 16 26  4  0
 17 20  4  0
 17 28  1  0
 18 21  4  0
 21 26  4  0
 22 26  4  0
M  END
$$$$

 Created by Python create_sdf_string function

 28 30  0  0  0  0  0  0  0  0999 V2000
    5.7174   -8.4529   26.7190 C   0  0  0  0  0  0  0  0  0  0  0  0
    0.3974   -7.0711   27.5149 C   0  0  0  0  0  0  0  0  0  0  0  0
    2.5338   -7.6891   16.0102 C   0  0  0  0  0  0  0  0  0  0  0  0
    4.8690   -7.4380   26.4151 C   0  0  0  0  0  0  0  0  0  0  0  0
    2.3021   -5.6726   26.0378 C   0  0  0  0  0  0  0  0  0  0  0  0
    7.0880   -4.6163   27.0010 C   0  0  0  0  0  0  0  0  0  0  0  0
    8.3117   -4.3698   27.4436 C   0  0  0  0  0  0  0  0  0  0  0  0
    1.1339   -5.0515   26.3541 C   0  0  0  0  0  0  0  0  0  0  0  0
    4.8080   -8.0362   16.7101 C   0  0  0  0  0  0  0  0  0  0  0  0
   -1.2173   -3.9294   26.9717 O   0  0  0  0  0  0  0  0  0  0  0  0
   -1.0025   -5.0942   27.4586 C   0  0  0  0  0  0  0  0  0  0  0  0
    2.2474   -8.9123   16.6273 C   0  0  0  0  0  0  0  0  0  0  0  0
    4.4957   -9.2636   17.3041 C   0  0  0  0  0  0  0  0  0  0  0  0
   -1.8070   -5.6086   28.1920 O   0  0  0  0  0  0  0  0  0  0  0  0
   10.4296   -5.1799   28.3140 C   0  0  0  0  0  0  0  0  0  0  0  0
    6.6017   -5.9004   26.9187 C   0  0  0  0  0  0  0  0  0  0  0  0
    2.4761   -6.9940   26.4111 N   0  0  0  0  0  0  0  0  0  0  0  0
    9.1353   -5.4053   27.8239 C   0  0  0  0  0  0  0  0  0  0  0  0
    0.9922   -9.3232   16.5995 O   0  0  0  0  0  0  0  0  0  0  0  0
    1.5232   -7.6869   27.1182 C   0  0  0  0  0  0  0  0  0  0  0  0
    8.6878   -6.6715   27.7262 N   0  0  0  0  0  0  0  0  0  0  0  0
    6.9911   -8.2423   27.1808 C   0  0  0  0  0  0  0  0  0  0  0  0
    3.8436   -7.2758   16.0578 C   0  0  0  0  0  0  0  0  0  0  0  0
    3.1882   -9.7190   17.2566 C   0  0  0  0  0  0  0  0  0  0  0  0
    5.3488   -6.1737   26.5092 C   0  0  0  0  0  0  0  0  0  0  0  0
    7.4567   -6.9464   27.2858 C   0  0  0  0  0  0  0  0  0  0  0  0
    0.1921   -5.7592   27.1123 C   0  0  0  0  0  0  0  0  0  0  0  0
    3.5517   -7.7407   25.9711 C   0  0  0  0  0  0  0  0  0  0  0  0
  1  4  4  0
  1 22  4  0
  2 20  4  0
  2 27  4  0
  3 12  4  0
  3 23  4  0
  4 25  4  0
  4 28  1  0
  5  8  4  0
  5 17  4  0
  6  7  4  0
  6 16  4  0
  7 18  4  0
  8 27  4  0
  9 13  4  0
  9 23  4  0
 10 11  1  0
 11 14  2  0
 11 27  1  0
 12 19  1  0
 12 24  4  0
 13 24  4  0
 15 18  1  0
 16 25  4  0
 16 26  4  0
 17 20  4  0
 17 28  1  0
 18 21  4  0
 21 26  4  0
 22 26  4  0
M  END
$$$$

 Created by Python create_sdf_string function

 28 30  0  0  0  0  0  0  0  0999 V2000
    5.7174   -8.4529   26.7190 C   0  0  0  0  0  0  0  0  0  0  0  0
    0.3974   -7.0711   27.5149 C   0  0  0  0  0  0  0  0  0  0  0  0
    2.5338   -7.6891   16.0102 C   0  0  0  0  0  0  0  0  0  0  0  0
    4.8690   -7.4380   26.4151 C   0  0  0  0  0  0  0  0  0  0  0  0
    2.3021   -5.6726   26.0378 C   0  0  0  0  0  0  0  0  0  0  0  0
    7.0880   -4.6163   27.0010 C   0  0  0  0  0  0  0  0  0  0  0  0
    8.3117   -4.3698   27.4436 C   0  0  0  0  0  0  0  0  0  0  0  0
    1.1339   -5.0515   26.3541 C   0  0  0  0  0  0  0  0  0  0  0  0
    4.8080   -8.0362   16.7101 C   0  0  0  0  0  0  0  0  0  0  0  0
   -1.2173   -3.9294   26.9717 O   0  0  0  0  0  0  0  0  0  0  0  0
   -1.0025   -5.0942   27.4586 C   0  0  0  0  0  0  0  0  0  0  0  0
    2.2474   -8.9123   16.6273 C   0  0  0  0  0  0  0  0  0  0  0  0
    4.4957   -9.2636   17.3041 C   0  0  0  0  0  0  0  0  0  0  0  0
   -1.8070   -5.6086   28.1920 O   0  0  0  0  0  0  0  0  0  0  0  0
   10.4296   -5.1799   28.3140 C   0  0  0  0  0  0  0  0  0  0  0  0
    6.6017   -5.9004   26.9187 C   0  0  0  0  0  0  0  0  0  0  0  0
    2.4761   -6.9940   26.4111 N   0  0  0  0  0  0  0  0  0  0  0  0
    9.1353   -5.4053   27.8239 C   0  0  0  0  0  0  0  0  0  0  0  0
    0.9922   -9.3232   16.5995 O   0  0  0  0  0  0  0  0  0  0  0  0
    1.5232   -7.6869   27.1182 C   0  0  0  0  0  0  0  0  0  0  0  0
    8.6878   -6.6715   27.7262 N   0  0  0  0  0  0  0  0  0  0  0  0
    6.9911   -8.2423   27.1808 C   0  0  0  0  0  0  0  0  0  0  0  0
    3.8436   -7.2758   16.0578 C   0  0  0  0  0  0  0  0  0  0  0  0
    3.1882   -9.7190   17.2566 C   0  0  0  0  0  0  0  0  0  0  0  0
    5.3488   -6.1737   26.5092 C   0  0  0  0  0  0  0  0  0  0  0  0
    7.4567   -6.9464   27.2858 C   0  0  0  0  0  0  0  0  0  0  0  0
    0.1921   -5.7592   27.1123 C   0  0  0  0  0  0  0  0  0  0  0  0
    3.5517   -7.7407   25.9711 C   0  0  0  0  0  0  0  0  0  0  0  0
  1  4  4  0
  1 22  4  0
  2 20  4  0
  2 27  4  0
  3 12  4  0
  3 23  4  0
  4 25  4  0
  4 28  1  0
  5  8  4  0
  5 17  4  0
  6  7  4  0
  6 16  4  0
  7 18  4  0
  8 27  4  0
  9 13  4  0
  9 23  4  0
 10 11  1  0
 11 14  2  0
 11 27  1  0
 12 19  1  0
 12 24  4  0
 13 24  4  0
 15 18  1  0
 16 25  4  0
 16 26  4  0
 17 20  4  0
 17 28  1  0
 18 21  4  0
 21 26  4  0
 22 26  4  0
M  END
$$$$

 Created by Python create_sdf_string function

 28 30  0  0  0  0  0  0  0  0999 V2000
    5.7174   -8.4529   26.7190 C   0  0  0  0  0  0  0  0  0  0  0  0
    0.3974   -7.0711   27.5149 C   0  0  0  0  0  0  0  0  0  0  0  0
    2.5338   -7.6891   16.0102 C   0  0  0  0  0  0  0  0  0  0  0  0
    4.8690   -7.4380   26.4151 C   0  0  0  0  0  0  0  0  0  0  0  0
    2.3021   -5.6726   26.0378 C   0  0  0  0  0  0  0  0  0  0  0  0
    7.0880   -4.6163   27.0010 C   0  0  0  0  0  0  0  0  0  0  0  0
    8.3117   -4.3698   27.4436 C   0  0  0  0  0  0  0  0  0  0  0  0
    1.1339   -5.0515   26.3541 C   0  0  0  0  0  0  0  0  0  0  0  0
    4.8080   -8.0362   16.7101 C   0  0  0  0  0  0  0  0  0  0  0  0
   -1.2173   -3.9294   26.9717 O   0  0  0  0  0  0  0  0  0  0  0  0
   -1.0025   -5.0942   27.4586 C   0  0  0  0  0  0  0  0  0  0  0  0
    2.2474   -8.9123   16.6273 C   0  0  0  0  0  0  0  0  0  0  0  0
    4.4957   -9.2636   17.3041 C   0  0  0  0  0  0  0  0  0  0  0  0
   -1.8070   -5.6086   28.1920 O   0  0  0  0  0  0  0  0  0  0  0  0
   10.4296   -5.1799   28.3140 C   0  0  0  0  0  0  0  0  0  0  0  0
    6.6017   -5.9004   26.9187 C   0  0  0  0  0  0  0  0  0  0  0  0
    2.4761   -6.9940   26.4111 N   0  0  0  0  0  0  0  0  0  0  0  0
    9.1353   -5.4053   27.8239 C   0  0  0  0  0  0  0  0  0  0  0  0
    0.9922   -9.3232   16.5995 O   0  0  0  0  0  0  0  0  0  0  0  0
    1.5232   -7.6869   27.1182 C   0  0  0  0  0  0  0  0  0  0  0  0
    8.6878   -6.6715   27.7262 N   0  0  0  0  0  0  0  0  0  0  0  0
    6.9911   -8.2423   27.1808 C   0  0  0  0  0  0  0  0  0  0  0  0
    3.8436   -7.2758   16.0578 C   0  0  0  0  0  0  0  0  0  0  0  0
    3.1882   -9.7190   17.2566 C   0  0  0  0  0  0  0  0  0  0  0  0
    5.3488   -6.1737   26.5092 C   0  0  0  0  0  0  0  0  0  0  0  0
    7.4567   -6.9464   27.2858 C   0  0  0  0  0  0  0  0  0  0  0  0
    0.1921   -5.7592   27.1123 C   0  0  0  0  0  0  0  0  0  0  0  0
    3.5517   -7.7407   25.9711 C   0  0  0  0  0  0  0  0  0  0  0  0
  1  4  4  0
  1 22  4  0
  2 20  4  0
  2 27  4  0
  3 12  4  0
  3 23  4  0
  4 25  4  0
  4 28  1  0
  5  8  4  0
  5 17  4  0
  6  7  4  0
  6 16  4  0
  7 18  4  0
  8 27  4  0
  9 13  4  0
  9 23  4  0
 10 11  1  0
 11 14  2  0
 11 27  1  0
 12 19  1  0
 12 24  4  0
 13 24  4  0
 15 18  1  0
 16 25  4  0
 16 26  4  0
 17 20  4  0
 17 28  1  0
 18 21  4  0
 21 26  4  0
 22 26  4  0
M  END
$$$$

 Created by Python create_sdf_string function

 28 30  0  0  0  0  0  0  0  0999 V2000
    5.7174   -8.4529   26.7190 C   0  0  0  0  0  0  0  0  0  0  0  0
    0.3974   -7.0711   27.5149 C   0  0  0  0  0  0  0  0  0  0  0  0
    2.5338   -7.6891   16.0102 C   0  0  0  0  0  0  0  0  0  0  0  0
    4.8690   -7.4380   26.4151 C   0  0  0  0  0  0  0  0  0  0  0  0
    2.3021   -5.6726   26.0378 C   0  0  0  0  0  0  0  0  0  0  0  0
    7.0880   -4.6163   27.0010 C   0  0  0  0  0  0  0  0  0  0  0  0
    8.3117   -4.3698   27.4436 C   0  0  0  0  0  0  0  0  0  0  0  0
    1.1339   -5.0515   26.3541 C   0  0  0  0  0  0  0  0  0  0  0  0
    4.8080   -8.0362   16.7101 C   0  0  0  0  0  0  0  0  0  0  0  0
   -1.2173   -3.9294   26.9717 O   0  0  0  0  0  0  0  0  0  0  0  0
   -1.0025   -5.0942   27.4586 C   0  0  0  0  0  0  0  0  0  0  0  0
    2.2474   -8.9123   16.6273 C   0  0  0  0  0  0  0  0  0  0  0  0
    4.4957   -9.2636   17.3041 C   0  0  0  0  0  0  0  0  0  0  0  0
   -1.8070   -5.6086   28.1920 O   0  0  0  0  0  0  0  0  0  0  0  0
   10.4296   -5.1799   28.3140 C   0  0  0  0  0  0  0  0  0  0  0  0
    6.6017   -5.9004   26.9187 C   0  0  0  0  0  0  0  0  0  0  0  0
    2.4761   -6.9940   26.4111 N   0  0  0  0  0  0  0  0  0  0  0  0
    9.1353   -5.4053   27.8239 C   0  0  0  0  0  0  0  0  0  0  0  0
    0.9922   -9.3232   16.5995 O   0  0  0  0  0  0  0  0  0  0  0  0
    1.5232   -7.6869   27.1182 C   0  0  0  0  0  0  0  0  0  0  0  0
    8.6878   -6.6715   27.7262 N   0  0  0  0  0  0  0  0  0  0  0  0
    6.9911   -8.2423   27.1808 C   0  0  0  0  0  0  0  0  0  0  0  0
    3.8436   -7.2758   16.0578 C   0  0  0  0  0  0  0  0  0  0  0  0
    3.1882   -9.7190   17.2566 C   0  0  0  0  0  0  0  0  0  0  0  0
    5.3488   -6.1737   26.5092 C   0  0  0  0  0  0  0  0  0  0  0  0
    7.4567   -6.9464   27.2858 C   0  0  0  0  0  0  0  0  0  0  0  0
    0.1921   -5.7592   27.1123 C   0  0  0  0  0  0  0  0  0  0  0  0
    3.5517   -7.7407   25.9711 C   0  0  0  0  0  0  0  0  0  0  0  0
  1  4  4  0
  1 22  4  0
  2 20  4  0
  2 27  4  0
  3 12  4  0
  3 23  4  0
  4 25  4  0
  4 28  1  0
  5  8  4  0
  5 17  4  0
  6  7  4  0
  6 16  4  0
  7 18  4  0
  8 27  4  0
  9 13  4  0
  9 23  4  0
 10 11  1  0
 11 14  2  0
 11 27  1  0
 12 19  1  0
 12 24  4  0
 13 24  4  0
 15 18  1  0
 16 25  4  0
 16 26  4  0
 17 20  4  0
 17 28  1  0
 18 21  4  0
 21 26  4  0
 22 26  4  0
M  END
$$$$

 Created by Python create_sdf_string function

 28 30  0  0  0  0  0  0  0  0999 V2000
    5.7174   -8.4529   26.7190 C   0  0  0  0  0  0  0  0  0  0  0  0
    0.3974   -7.0711   27.5149 C   0  0  0  0  0  0  0  0  0  0  0  0
    2.5338   -7.6891   16.0102 C   0  0  0  0  0  0  0  0  0  0  0  0
    4.8690   -7.4380   26.4151 C   0  0  0  0  0  0  0  0  0  0  0  0
    2.3021   -5.6726   26.0378 C   0  0  0  0  0  0  0  0  0  0  0  0
    7.0880   -4.6163   27.0010 C   0  0  0  0  0  0  0  0  0  0  0  0
    8.3117   -4.3698   27.4436 C   0  0  0  0  0  0  0  0  0  0  0  0
    1.1339   -5.0515   26.3541 C   0  0  0  0  0  0  0  0  0  0  0  0
    4.8080   -8.0362   16.7101 C   0  0  0  0  0  0  0  0  0  0  0  0
   -1.2173   -3.9294   26.9717 O   0  0  0  0  0  0  0  0  0  0  0  0
   -1.0025   -5.0942   27.4586 C   0  0  0  0  0  0  0  0  0  0  0  0
    2.2474   -8.9123   16.6273 C   0  0  0  0  0  0  0  0  0  0  0  0
    4.4957   -9.2636   17.3041 C   0  0  0  0  0  0  0  0  0  0  0  0
   -1.8070   -5.6086   28.1920 O   0  0  0  0  0  0  0  0  0  0  0  0
   10.4296   -5.1799   28.3140 C   0  0  0  0  0  0  0  0  0  0  0  0
    6.6017   -5.9004   26.9187 C   0  0  0  0  0  0  0  0  0  0  0  0
    2.4761   -6.9940   26.4111 N   0  0  0  0  0  0  0  0  0  0  0  0
    9.1353   -5.4053   27.8239 C   0  0  0  0  0  0  0  0  0  0  0  0
    0.9922   -9.3232   16.5995 O   0  0  0  0  0  0  0  0  0  0  0  0
    1.5232   -7.6869   27.1182 C   0  0  0  0  0  0  0  0  0  0  0  0
    8.6878   -6.6715   27.7262 N   0  0  0  0  0  0  0  0  0  0  0  0
    6.9911   -8.2423   27.1808 C   0  0  0  0  0  0  0  0  0  0  0  0
    3.8436   -7.2758   16.0578 C   0  0  0  0  0  0  0  0  0  0  0  0
    3.1882   -9.7190   17.2566 C   0  0  0  0  0  0  0  0  0  0  0  0
    5.3488   -6.1737   26.5092 C   0  0  0  0  0  0  0  0  0  0  0  0
    7.4567   -6.9464   27.2858 C   0  0  0  0  0  0  0  0  0  0  0  0
    0.1921   -5.7592   27.1123 C   0  0  0  0  0  0  0  0  0  0  0  0
    3.5517   -7.7407   25.9711 C   0  0  0  0  0  0  0  0  0  0  0  0
  1  4  4  0
  1 22  4  0
  2 20  4  0
  2 27  4  0
  3 12  4  0
  3 23  4  0
  4 25  4  0
  4 28  1  0
  5  8  4  0
  5 17  4  0
  6  7  4  0
  6 16  4  0
  7 18  4  0
  8 27  4  0
  9 13  4  0
  9 23  4  0
 10 11  1  0
 11 14  2  0
 11 27  1  0
 12 19  1  0
 12 24  4  0
 13 24  4  0
 15 18  1  0
 16 25  4  0
 16 26  4  0
 17 20  4  0
 17 28  1  0
 18 21  4  0
 21 26  4  0
 22 26  4  0
M  END
$$$$

 Created by Python create_sdf_string function

 28 30  0  0  0  0  0  0  0  0999 V2000
    5.7174   -8.4529   26.7190 C   0  0  0  0  0  0  0  0  0  0  0  0
    0.3974   -7.0711   27.5149 C   0  0  0  0  0  0  0  0  0  0  0  0
    2.5338   -7.6891   16.0102 C   0  0  0  0  0  0  0  0  0  0  0  0
    4.8690   -7.4380   26.4151 C   0  0  0  0  0  0  0  0  0  0  0  0
    2.3021   -5.6726   26.0378 C   0  0  0  0  0  0  0  0  0  0  0  0
    7.0880   -4.6163   27.0010 C   0  0  0  0  0  0  0  0  0  0  0  0
    8.3117   -4.3698   27.4436 C   0  0  0  0  0  0  0  0  0  0  0  0
    1.1339   -5.0515   26.3541 C   0  0  0  0  0  0  0  0  0  0  0  0
    4.8080   -8.0362   16.7101 C   0  0  0  0  0  0  0  0  0  0  0  0
   -1.2173   -3.9294   26.9717 O   0  0  0  0  0  0  0  0  0  0  0  0
   -1.0025   -5.0942   27.4586 C   0  0  0  0  0  0  0  0  0  0  0  0
    2.2474   -8.9123   16.6273 C   0  0  0  0  0  0  0  0  0  0  0  0
    4.4957   -9.2636   17.3041 C   0  0  0  0  0  0  0  0  0  0  0  0
   -1.8070   -5.6086   28.1920 O   0  0  0  0  0  0  0  0  0  0  0  0
   10.4296   -5.1799   28.3140 C   0  0  0  0  0  0  0  0  0  0  0  0
    6.6017   -5.9004   26.9187 C   0  0  0  0  0  0  0  0  0  0  0  0
    2.4761   -6.9940   26.4111 N   0  0  0  0  0  0  0  0  0  0  0  0
    9.1353   -5.4053   27.8239 C   0  0  0  0  0  0  0  0  0  0  0  0
    0.9922   -9.3232   16.5995 O   0  0  0  0  0  0  0  0  0  0  0  0
    1.5232   -7.6869   27.1182 C   0  0  0  0  0  0  0  0  0  0  0  0
    8.6878   -6.6715   27.7262 N   0  0  0  0  0  0  0  0  0  0  0  0
    6.9911   -8.2423   27.1808 C   0  0  0  0  0  0  0  0  0  0  0  0
    3.8436   -7.2758   16.0578 C   0  0  0  0  0  0  0  0  0  0  0  0
    3.1882   -9.7190   17.2566 C   0  0  0  0  0  0  0  0  0  0  0  0
    5.3488   -6.1737   26.5092 C   0  0  0  0  0  0  0  0  0  0  0  0
    7.4567   -6.9464   27.2858 C   0  0  0  0  0  0  0  0  0  0  0  0
    0.1921   -5.7592   27.1123 C   0  0  0  0  0  0  0  0  0  0  0  0
    3.5517   -7.7407   25.9711 C   0  0  0  0  0  0  0  0  0  0  0  0
  1  4  4  0
  1 22  4  0
  2 20  4  0
  2 27  4  0
  3 12  4  0
  3 23  4  0
  4 25  4  0
  4 28  1  0
  5  8  4  0
  5 17  4  0
  6  7  4  0
  6 16  4  0
  7 18  4  0
  8 27  4  0
  9 13  4  0
  9 23  4  0
 10 11  1  0
 11 14  2  0
 11 27  1  0
 12 19  1  0
 12 24  4  0
 13 24  4  0
 15 18  1  0
 16 25  4  0
 16 26  4  0
 17 20  4  0
 17 28  1  0
 18 21  4  0
 21 26  4  0
 22 26  4  0
M  END
$$$$

 Created by Python create_sdf_string function

 28 30  0  0  0  0  0  0  0  0999 V2000
    5.7174   -8.4529   26.7190 C   0  0  0  0  0  0  0  0  0  0  0  0
    0.3974   -7.0711   27.5149 C   0  0  0  0  0  0  0  0  0  0  0  0
    2.5338   -7.6891   16.0102 C   0  0  0  0  0  0  0  0  0  0  0  0
    4.8690   -7.4380   26.4151 C   0  0  0  0  0  0  0  0  0  0  0  0
    2.3021   -5.6726   26.0378 C   0  0  0  0  0  0  0  0  0  0  0  0
    7.0880   -4.6163   27.0010 C   0  0  0  0  0  0  0  0  0  0  0  0
    8.3117   -4.3698   27.4436 C   0  0  0  0  0  0  0  0  0  0  0  0
    1.1339   -5.0515   26.3541 C   0  0  0  0  0  0  0  0  0  0  0  0
    4.8080   -8.0362   16.7101 C   0  0  0  0  0  0  0  0  0  0  0  0
   -1.2173   -3.9294   26.9717 O   0  0  0  0  0  0  0  0  0  0  0  0
   -1.0025   -5.0942   27.4586 C   0  0  0  0  0  0  0  0  0  0  0  0
    2.2474   -8.9123   16.6273 C   0  0  0  0  0  0  0  0  0  0  0  0
    4.4957   -9.2636   17.3041 C   0  0  0  0  0  0  0  0  0  0  0  0
   -1.8070   -5.6086   28.1920 O   0  0  0  0  0  0  0  0  0  0  0  0
   10.4296   -5.1799   28.3140 C   0  0  0  0  0  0  0  0  0  0  0  0
    6.6017   -5.9004   26.9187 C   0  0  0  0  0  0  0  0  0  0  0  0
    2.4761   -6.9940   26.4111 N   0  0  0  0  0  0  0  0  0  0  0  0
    9.1353   -5.4053   27.8239 C   0  0  0  0  0  0  0  0  0  0  0  0
    0.9922   -9.3232   16.5995 O   0  0  0  0  0  0  0  0  0  0  0  0
    1.5232   -7.6869   27.1182 C   0  0  0  0  0  0  0  0  0  0  0  0
    8.6878   -6.6715   27.7262 N   0  0  0  0  0  0  0  0  0  0  0  0
    6.9911   -8.2423   27.1808 C   0  0  0  0  0  0  0  0  0  0  0  0
    3.8436   -7.2758   16.0578 C   0  0  0  0  0  0  0  0  0  0  0  0
    3.1882   -9.7190   17.2566 C   0  0  0  0  0  0  0  0  0  0  0  0
    5.3488   -6.1737   26.5092 C   0  0  0  0  0  0  0  0  0  0  0  0
    7.4567   -6.9464   27.2858 C   0  0  0  0  0  0  0  0  0  0  0  0
    0.1921   -5.7592   27.1123 C   0  0  0  0  0  0  0  0  0  0  0  0
    3.5517   -7.7407   25.9711 C   0  0  0  0  0  0  0  0  0  0  0  0
  1  4  4  0
  1 22  4  0
  2 20  4  0
  2 27  4  0
  3 12  4  0
  3 23  4  0
  4 25  4  0
  4 28  1  0
  5  8  4  0
  5 17  4  0
  6  7  4  0
  6 16  4  0
  7 18  4  0
  8 27  4  0
  9 13  4  0
  9 23  4  0
 10 11  1  0
 11 14  2  0
 11 27  1  0
 12 19  1  0
 12 24  4  0
 13 24  4  0
 15 18  1  0
 16 25  4  0
 16 26  4  0
 17 20  4  0
 17 28  1  0
 18 21  4  0
 21 26  4  0
 22 26  4  0
M  END
$$$$

 Created by Python create_sdf_string function

 28 30  0  0  0  0  0  0  0  0999 V2000
    5.7174   -8.4529   26.7190 C   0  0  0  0  0  0  0  0  0  0  0  0
    0.3974   -7.0711   27.5149 C   0  0  0  0  0  0  0  0  0  0  0  0
    2.5338   -7.6891   16.0102 C   0  0  0  0  0  0  0  0  0  0  0  0
    4.8690   -7.4380   26.4151 C   0  0  0  0  0  0  0  0  0  0  0  0
    2.3021   -5.6726   26.0378 C   0  0  0  0  0  0  0  0  0  0  0  0
    7.0880   -4.6163   27.0010 C   0  0  0  0  0  0  0  0  0  0  0  0
    8.3117   -4.3698   27.4436 C   0  0  0  0  0  0  0  0  0  0  0  0
    1.1339   -5.0515   26.3541 C   0  0  0  0  0  0  0  0  0  0  0  0
    4.8080   -8.0362   16.7101 C   0  0  0  0  0  0  0  0  0  0  0  0
   -1.2173   -3.9294   26.9717 O   0  0  0  0  0  0  0  0  0  0  0  0
   -1.0025   -5.0942   27.4586 C   0  0  0  0  0  0  0  0  0  0  0  0
    2.2474   -8.9123   16.6273 C   0  0  0  0  0  0  0  0  0  0  0  0
    4.4957   -9.2636   17.3041 C   0  0  0  0  0  0  0  0  0  0  0  0
   -1.8070   -5.6086   28.1920 O   0  0  0  0  0  0  0  0  0  0  0  0
   10.4296   -5.1799   28.3140 C   0  0  0  0  0  0  0  0  0  0  0  0
    6.6017   -5.9004   26.9187 C   0  0  0  0  0  0  0  0  0  0  0  0
    2.4761   -6.9940   26.4111 N   0  0  0  0  0  0  0  0  0  0  0  0
    9.1353   -5.4053   27.8239 C   0  0  0  0  0  0  0  0  0  0  0  0
    0.9922   -9.3232   16.5995 O   0  0  0  0  0  0  0  0  0  0  0  0
    1.5232   -7.6869   27.1182 C   0  0  0  0  0  0  0  0  0  0  0  0
    8.6878   -6.6715   27.7262 N   0  0  0  0  0  0  0  0  0  0  0  0
    6.9911   -8.2423   27.1808 C   0  0  0  0  0  0  0  0  0  0  0  0
    3.8436   -7.2758   16.0578 C   0  0  0  0  0  0  0  0  0  0  0  0
    3.1882   -9.7190   17.2566 C   0  0  0  0  0  0  0  0  0  0  0  0
    5.3488   -6.1737   26.5092 C   0  0  0  0  0  0  0  0  0  0  0  0
    7.4567   -6.9464   27.2858 C   0  0  0  0  0  0  0  0  0  0  0  0
    0.1921   -5.7592   27.1123 C   0  0  0  0  0  0  0  0  0  0  0  0
    3.5517   -7.7407   25.9711 C   0  0  0  0  0  0  0  0  0  0  0  0
  1  4  4  0
  1 22  4  0
  2 20  4  0
  2 27  4  0
  3 12  4  0
  3 23  4  0
  4 25  4  0
  4 28  1  0
  5  8  4  0
  5 17  4  0
  6  7  4  0
  6 16  4  0
  7 18  4  0
  8 27  4  0
  9 13  4  0
  9 23  4  0
 10 11  1  0
 11 14  2  0
 11 27  1  0
 12 19  1  0
 12 24  4  0
 13 24  4  0
 15 18  1  0
 16 25  4  0
 16 26  4  0
 17 20  4  0
 17 28  1  0
 18 21  4  0
 21 26  4  0
 22 26  4  0
M  END
$$$$

 Created by Python create_sdf_string function

 28 30  0  0  0  0  0  0  0  0999 V2000
    5.7174   -8.4529   26.7190 C   0  0  0  0  0  0  0  0  0  0  0  0
    0.3974   -7.0711   27.5149 C   0  0  0  0  0  0  0  0  0  0  0  0
    2.5338   -7.6891   16.0102 C   0  0  0  0  0  0  0  0  0  0  0  0
    4.8690   -7.4380   26.4151 C   0  0  0  0  0  0  0  0  0  0  0  0
    2.3021   -5.6726   26.0378 C   0  0  0  0  0  0  0  0  0  0  0  0
    7.0880   -4.6163   27.0010 C   0  0  0  0  0  0  0  0  0  0  0  0
    8.3117   -4.3698   27.4436 C   0  0  0  0  0  0  0  0  0  0  0  0
    1.1339   -5.0515   26.3541 C   0  0  0  0  0  0  0  0  0  0  0  0
    4.8080   -8.0362   16.7101 C   0  0  0  0  0  0  0  0  0  0  0  0
   -1.2173   -3.9294   26.9717 O   0  0  0  0  0  0  0  0  0  0  0  0
   -1.0025   -5.0942   27.4586 C   0  0  0  0  0  0  0  0  0  0  0  0
    2.2474   -8.9123   16.6273 C   0  0  0  0  0  0  0  0  0  0  0  0
    4.4957   -9.2636   17.3041 C   0  0  0  0  0  0  0  0  0  0  0  0
   -1.8070   -5.6086   28.1920 O   0  0  0  0  0  0  0  0  0  0  0  0
   10.4296   -5.1799   28.3140 C   0  0  0  0  0  0  0  0  0  0  0  0
    6.6017   -5.9004   26.9187 C   0  0  0  0  0  0  0  0  0  0  0  0
    2.4761   -6.9940   26.4111 N   0  0  0  0  0  0  0  0  0  0  0  0
    9.1353   -5.4053   27.8239 C   0  0  0  0  0  0  0  0  0  0  0  0
    0.9922   -9.3232   16.5995 O   0  0  0  0  0  0  0  0  0  0  0  0
    1.5232   -7.6869   27.1182 C   0  0  0  0  0  0  0  0  0  0  0  0
    8.6878   -6.6715   27.7262 N   0  0  0  0  0  0  0  0  0  0  0  0
    6.9911   -8.2423   27.1808 C   0  0  0  0  0  0  0  0  0  0  0  0
    3.8436   -7.2758   16.0578 C   0  0  0  0  0  0  0  0  0  0  0  0
    3.1882   -9.7190   17.2566 C   0  0  0  0  0  0  0  0  0  0  0  0
    5.3488   -6.1737   26.5092 C   0  0  0  0  0  0  0  0  0  0  0  0
    7.4567   -6.9464   27.2858 C   0  0  0  0  0  0  0  0  0  0  0  0
    0.1921   -5.7592   27.1123 C   0  0  0  0  0  0  0  0  0  0  0  0
    3.5517   -7.7407   25.9711 C   0  0  0  0  0  0  0  0  0  0  0  0
  1  4  4  0
  1 22  4  0
  2 20  4  0
  2 27  4  0
  3 12  4  0
  3 23  4  0
  4 25  4  0
  4 28  1  0
  5  8  4  0
  5 17  4  0
  6  7  4  0
  6 16  4  0
  7 18  4  0
  8 27  4  0
  9 13  4  0
  9 23  4  0
 10 11  1  0
 11 14  2  0
 11 27  1  0
 12 19  1  0
 12 24  4  0
 13 24  4  0
 15 18  1  0
 16 25  4  0
 16 26  4  0
 17 20  4  0
 17 28  1  0
 18 21  4  0
 21 26  4  0
 22 26  4  0
M  END
$$$$

 Created by Python create_sdf_string function

 28 30  0  0  0  0  0  0  0  0999 V2000
    5.7174   -8.4529   26.7190 C   0  0  0  0  0  0  0  0  0  0  0  0
    0.3974   -7.0711   27.5149 C   0  0  0  0  0  0  0  0  0  0  0  0
    2.5338   -7.6891   16.0102 C   0  0  0  0  0  0  0  0  0  0  0  0
    4.8690   -7.4380   26.4151 C   0  0  0  0  0  0  0  0  0  0  0  0
    2.3021   -5.6726   26.0378 C   0  0  0  0  0  0  0  0  0  0  0  0
    7.0880   -4.6163   27.0010 C   0  0  0  0  0  0  0  0  0  0  0  0
    8.3117   -4.3698   27.4436 C   0  0  0  0  0  0  0  0  0  0  0  0
    1.1339   -5.0515   26.3541 C   0  0  0  0  0  0  0  0  0  0  0  0
    4.8080   -8.0362   16.7101 C   0  0  0  0  0  0  0  0  0  0  0  0
   -1.2173   -3.9294   26.9717 O   0  0  0  0  0  0  0  0  0  0  0  0
   -1.0025   -5.0942   27.4586 C   0  0  0  0  0  0  0  0  0  0  0  0
    2.2474   -8.9123   16.6273 C   0  0  0  0  0  0  0  0  0  0  0  0
    4.4957   -9.2636   17.3041 C   0  0  0  0  0  0  0  0  0  0  0  0
   -1.8070   -5.6086   28.1920 O   0  0  0  0  0  0  0  0  0  0  0  0
   10.4296   -5.1799   28.3140 C   0  0  0  0  0  0  0  0  0  0  0  0
    6.6017   -5.9004   26.9187 C   0  0  0  0  0  0  0  0  0  0  0  0
    2.4761   -6.9940   26.4111 N   0  0  0  0  0  0  0  0  0  0  0  0
    9.1353   -5.4053   27.8239 C   0  0  0  0  0  0  0  0  0  0  0  0
    0.9922   -9.3232   16.5995 O   0  0  0  0  0  0  0  0  0  0  0  0
    1.5232   -7.6869   27.1182 C   0  0  0  0  0  0  0  0  0  0  0  0
    8.6878   -6.6715   27.7262 N   0  0  0  0  0  0  0  0  0  0  0  0
    6.9911   -8.2423   27.1808 C   0  0  0  0  0  0  0  0  0  0  0  0
    3.8436   -7.2758   16.0578 C   0  0  0  0  0  0  0  0  0  0  0  0
    3.1882   -9.7190   17.2566 C   0  0  0  0  0  0  0  0  0  0  0  0
    5.3488   -6.1737   26.5092 C   0  0  0  0  0  0  0  0  0  0  0  0
    7.4567   -6.9464   27.2858 C   0  0  0  0  0  0  0  0  0  0  0  0
    0.1921   -5.7592   27.1123 C   0  0  0  0  0  0  0  0  0  0  0  0
    3.5517   -7.7407   25.9711 C   0  0  0  0  0  0  0  0  0  0  0  0
  1  4  4  0
  1 22  4  0
  2 20  4  0
  2 27  4  0
  3 12  4  0
  3 23  4  0
  4 25  4  0
  4 28  1  0
  5  8  4  0
  5 17  4  0
  6  7  4  0
  6 16  4  0
  7 18  4  0
  8 27  4  0
  9 13  4  0
  9 23  4  0
 10 11  1  0
 11 14  2  0
 11 27  1  0
 12 19  1  0
 12 24  4  0
 13 24  4  0
 15 18  1  0
 16 25  4  0
 16 26  4  0
 17 20  4  0
 17 28  1  0
 18 21  4  0
 21 26  4  0
 22 26  4  0
M  END
$$$$

 Created by Python create_sdf_string function

 28 30  0  0  0  0  0  0  0  0999 V2000
    5.7174   -8.4529   26.7190 C   0  0  0  0  0  0  0  0  0  0  0  0
    0.3974   -7.0711   27.5149 C   0  0  0  0  0  0  0  0  0  0  0  0
    2.5338   -7.6891   16.0102 C   0  0  0  0  0  0  0  0  0  0  0  0
    4.8690   -7.4380   26.4151 C   0  0  0  0  0  0  0  0  0  0  0  0
    2.3021   -5.6726   26.0378 C   0  0  0  0  0  0  0  0  0  0  0  0
    7.0880   -4.6163   27.0010 C   0  0  0  0  0  0  0  0  0  0  0  0
    8.3117   -4.3698   27.4436 C   0  0  0  0  0  0  0  0  0  0  0  0
    1.1339   -5.0515   26.3541 C   0  0  0  0  0  0  0  0  0  0  0  0
    4.8080   -8.0362   16.7101 C   0  0  0  0  0  0  0  0  0  0  0  0
   -1.2173   -3.9294   26.9717 O   0  0  0  0  0  0  0  0  0  0  0  0
   -1.0025   -5.0942   27.4586 C   0  0  0  0  0  0  0  0  0  0  0  0
    2.2474   -8.9123   16.6273 C   0  0  0  0  0  0  0  0  0  0  0  0
    4.4957   -9.2636   17.3041 C   0  0  0  0  0  0  0  0  0  0  0  0
   -1.8070   -5.6086   28.1920 O   0  0  0  0  0  0  0  0  0  0  0  0
   10.4296   -5.1799   28.3140 C   0  0  0  0  0  0  0  0  0  0  0  0
    6.6017   -5.9004   26.9187 C   0  0  0  0  0  0  0  0  0  0  0  0
    2.4761   -6.9940   26.4111 N   0  0  0  0  0  0  0  0  0  0  0  0
    9.1353   -5.4053   27.8239 C   0  0  0  0  0  0  0  0  0  0  0  0
    0.9922   -9.3232   16.5995 O   0  0  0  0  0  0  0  0  0  0  0  0
    1.5232   -7.6869   27.1182 C   0  0  0  0  0  0  0  0  0  0  0  0
    8.6878   -6.6715   27.7262 N   0  0  0  0  0  0  0  0  0  0  0  0
    6.9911   -8.2423   27.1808 C   0  0  0  0  0  0  0  0  0  0  0  0
    3.8436   -7.2758   16.0578 C   0  0  0  0  0  0  0  0  0  0  0  0
    3.1882   -9.7190   17.2566 C   0  0  0  0  0  0  0  0  0  0  0  0
    5.3488   -6.1737   26.5092 C   0  0  0  0  0  0  0  0  0  0  0  0
    7.4567   -6.9464   27.2858 C   0  0  0  0  0  0  0  0  0  0  0  0
    0.1921   -5.7592   27.1123 C   0  0  0  0  0  0  0  0  0  0  0  0
    3.5517   -7.7407   25.9711 C   0  0  0  0  0  0  0  0  0  0  0  0
  1  4  4  0
  1 22  4  0
  2 20  4  0
  2 27  4  0
  3 12  4  0
  3 23  4  0
  4 25  4  0
  4 28  1  0
  5  8  4  0
  5 17  4  0
  6  7  4  0
  6 16  4  0
  7 18  4  0
  8 27  4  0
  9 13  4  0
  9 23  4  0
 10 11  1  0
 11 14  2  0
 11 27  1  0
 12 19  1  0
 12 24  4  0
 13 24  4  0
 15 18  1  0
 16 25  4  0
 16 26  4  0
 17 20  4  0
 17 28  1  0
 18 21  4  0
 21 26  4  0
 22 26  4  0
M  END
$$$$

 Created by Python create_sdf_string function

 28 30  0  0  0  0  0  0  0  0999 V2000
    5.7174   -8.4529   26.7190 C   0  0  0  0  0  0  0  0  0  0  0  0
    0.3974   -7.0711   27.5149 C   0  0  0  0  0  0  0  0  0  0  0  0
    2.5338   -7.6891   16.0102 C   0  0  0  0  0  0  0  0  0  0  0  0
    4.8690   -7.4380   26.4151 C   0  0  0  0  0  0  0  0  0  0  0  0
    2.3021   -5.6726   26.0378 C   0  0  0  0  0  0  0  0  0  0  0  0
    7.0880   -4.6163   27.0010 C   0  0  0  0  0  0  0  0  0  0  0  0
    8.3117   -4.3698   27.4436 C   0  0  0  0  0  0  0  0  0  0  0  0
    1.1339   -5.0515   26.3541 C   0  0  0  0  0  0  0  0  0  0  0  0
    4.8080   -8.0362   16.7101 C   0  0  0  0  0  0  0  0  0  0  0  0
   -1.2173   -3.9294   26.9717 O   0  0  0  0  0  0  0  0  0  0  0  0
   -1.0025   -5.0942   27.4586 C   0  0  0  0  0  0  0  0  0  0  0  0
    2.2474   -8.9123   16.6273 C   0  0  0  0  0  0  0  0  0  0  0  0
    4.4957   -9.2636   17.3041 C   0  0  0  0  0  0  0  0  0  0  0  0
   -1.8070   -5.6086   28.1920 O   0  0  0  0  0  0  0  0  0  0  0  0
   10.4296   -5.1799   28.3140 C   0  0  0  0  0  0  0  0  0  0  0  0
    6.6017   -5.9004   26.9187 C   0  0  0  0  0  0  0  0  0  0  0  0
    2.4761   -6.9940   26.4111 N   0  0  0  0  0  0  0  0  0  0  0  0
    9.1353   -5.4053   27.8239 C   0  0  0  0  0  0  0  0  0  0  0  0
    0.9922   -9.3232   16.5995 O   0  0  0  0  0  0  0  0  0  0  0  0
    1.5232   -7.6869   27.1182 C   0  0  0  0  0  0  0  0  0  0  0  0
    8.6878   -6.6715   27.7262 N   0  0  0  0  0  0  0  0  0  0  0  0
    6.9911   -8.2423   27.1808 C   0  0  0  0  0  0  0  0  0  0  0  0
    3.8436   -7.2758   16.0578 C   0  0  0  0  0  0  0  0  0  0  0  0
    3.1882   -9.7190   17.2566 C   0  0  0  0  0  0  0  0  0  0  0  0
    5.3488   -6.1737   26.5092 C   0  0  0  0  0  0  0  0  0  0  0  0
    7.4567   -6.9464   27.2858 C   0  0  0  0  0  0  0  0  0  0  0  0
    0.1921   -5.7592   27.1123 C   0  0  0  0  0  0  0  0  0  0  0  0
    3.5517   -7.7407   25.9711 C   0  0  0  0  0  0  0  0  0  0  0  0
  1  4  4  0
  1 22  4  0
  2 20  4  0
  2 27  4  0
  3 12  4  0
  3 23  4  0
  4 25  4  0
  4 28  1  0
  5  8  4  0
  5 17  4  0
  6  7  4  0
  6 16  4  0
  7 18  4  0
  8 27  4  0
  9 13  4  0
  9 23  4  0
 10 11  1  0
 11 14  2  0
 11 27  1  0
 12 19  1  0
 12 24  4  0
 13 24  4  0
 15 18  1  0
 16 25  4  0
 16 26  4  0
 17 20  4  0
 17 28  1  0
 18 21  4  0
 21 26  4  0
 22 26  4  0
M  END
$$$$

 Created by Python create_sdf_string function

 28 30  0  0  0  0  0  0  0  0999 V2000
    5.7174   -8.4529   26.7190 C   0  0  0  0  0  0  0  0  0  0  0  0
    0.3974   -7.0711   27.5149 C   0  0  0  0  0  0  0  0  0  0  0  0
    2.5338   -7.6891   16.0102 C   0  0  0  0  0  0  0  0  0  0  0  0
    4.8690   -7.4380   26.4151 C   0  0  0  0  0  0  0  0  0  0  0  0
    2.3021   -5.6726   26.0378 C   0  0  0  0  0  0  0  0  0  0  0  0
    7.0880   -4.6163   27.0010 C   0  0  0  0  0  0  0  0  0  0  0  0
    8.3117   -4.3698   27.4436 C   0  0  0  0  0  0  0  0  0  0  0  0
    1.1339   -5.0515   26.3541 C   0  0  0  0  0  0  0  0  0  0  0  0
    4.8080   -8.0362   16.7101 C   0  0  0  0  0  0  0  0  0  0  0  0
   -1.2173   -3.9294   26.9717 O   0  0  0  0  0  0  0  0  0  0  0  0
   -1.0025   -5.0942   27.4586 C   0  0  0  0  0  0  0  0  0  0  0  0
    2.2474   -8.9123   16.6273 C   0  0  0  0  0  0  0  0  0  0  0  0
    4.4957   -9.2636   17.3041 C   0  0  0  0  0  0  0  0  0  0  0  0
   -1.8070   -5.6086   28.1920 O   0  0  0  0  0  0  0  0  0  0  0  0
   10.4296   -5.1799   28.3140 C   0  0  0  0  0  0  0  0  0  0  0  0
    6.6017   -5.9004   26.9187 C   0  0  0  0  0  0  0  0  0  0  0  0
    2.4761   -6.9940   26.4111 N   0  0  0  0  0  0  0  0  0  0  0  0
    9.1353   -5.4053   27.8239 C   0  0  0  0  0  0  0  0  0  0  0  0
    0.9922   -9.3232   16.5995 O   0  0  0  0  0  0  0  0  0  0  0  0
    1.5232   -7.6869   27.1182 C   0  0  0  0  0  0  0  0  0  0  0  0
    8.6878   -6.6715   27.7262 N   0  0  0  0  0  0  0  0  0  0  0  0
    6.9911   -8.2423   27.1808 C   0  0  0  0  0  0  0  0  0  0  0  0
    3.8436   -7.2758   16.0578 C   0  0  0  0  0  0  0  0  0  0  0  0
    3.1882   -9.7190   17.2566 C   0  0  0  0  0  0  0  0  0  0  0  0
    5.3488   -6.1737   26.5092 C   0  0  0  0  0  0  0  0  0  0  0  0
    7.4567   -6.9464   27.2858 C   0  0  0  0  0  0  0  0  0  0  0  0
    0.1921   -5.7592   27.1123 C   0  0  0  0  0  0  0  0  0  0  0  0
    3.5517   -7.7407   25.9711 C   0  0  0  0  0  0  0  0  0  0  0  0
  1  4  4  0
  1 22  4  0
  2 20  4  0
  2 27  4  0
  3 12  4  0
  3 23  4  0
  4 25  4  0
  4 28  1  0
  5  8  4  0
  5 17  4  0
  6  7  4  0
  6 16  4  0
  7 18  4  0
  8 27  4  0
  9 13  4  0
  9 23  4  0
 10 11  1  0
 11 14  2  0
 11 27  1  0
 12 19  1  0
 12 24  4  0
 13 24  4  0
 15 18  1  0
 16 25  4  0
 16 26  4  0
 17 20  4  0
 17 28  1  0
 18 21  4  0
 21 26  4  0
 22 26  4  0
M  END
$$$$

 Created by Python create_sdf_string function

 28 30  0  0  0  0  0  0  0  0999 V2000
    5.7174   -8.4529   26.7190 C   0  0  0  0  0  0  0  0  0  0  0  0
    0.3974   -7.0711   27.5149 C   0  0  0  0  0  0  0  0  0  0  0  0
    2.5338   -7.6891   16.0102 C   0  0  0  0  0  0  0  0  0  0  0  0
    4.8690   -7.4380   26.4151 C   0  0  0  0  0  0  0  0  0  0  0  0
    2.3021   -5.6726   26.0378 C   0  0  0  0  0  0  0  0  0  0  0  0
    7.0880   -4.6163   27.0010 C   0  0  0  0  0  0  0  0  0  0  0  0
    8.3117   -4.3698   27.4436 C   0  0  0  0  0  0  0  0  0  0  0  0
    1.1339   -5.0515   26.3541 C   0  0  0  0  0  0  0  0  0  0  0  0
    4.8080   -8.0362   16.7101 C   0  0  0  0  0  0  0  0  0  0  0  0
   -1.2173   -3.9294   26.9717 O   0  0  0  0  0  0  0  0  0  0  0  0
   -1.0025   -5.0942   27.4586 C   0  0  0  0  0  0  0  0  0  0  0  0
    2.2474   -8.9123   16.6273 C   0  0  0  0  0  0  0  0  0  0  0  0
    4.4957   -9.2636   17.3041 C   0  0  0  0  0  0  0  0  0  0  0  0
   -1.8070   -5.6086   28.1920 O   0  0  0  0  0  0  0  0  0  0  0  0
   10.4296   -5.1799   28.3140 C   0  0  0  0  0  0  0  0  0  0  0  0
    6.6017   -5.9004   26.9187 C   0  0  0  0  0  0  0  0  0  0  0  0
    2.4761   -6.9940   26.4111 N   0  0  0  0  0  0  0  0  0  0  0  0
    9.1353   -5.4053   27.8239 C   0  0  0  0  0  0  0  0  0  0  0  0
    0.9922   -9.3232   16.5995 O   0  0  0  0  0  0  0  0  0  0  0  0
    1.5232   -7.6869   27.1182 C   0  0  0  0  0  0  0  0  0  0  0  0
    8.6878   -6.6715   27.7262 N   0  0  0  0  0  0  0  0  0  0  0  0
    6.9911   -8.2423   27.1808 C   0  0  0  0  0  0  0  0  0  0  0  0
    3.8436   -7.2758   16.0578 C   0  0  0  0  0  0  0  0  0  0  0  0
    3.1882   -9.7190   17.2566 C   0  0  0  0  0  0  0  0  0  0  0  0
    5.3488   -6.1737   26.5092 C   0  0  0  0  0  0  0  0  0  0  0  0
    7.4567   -6.9464   27.2858 C   0  0  0  0  0  0  0  0  0  0  0  0
    0.1921   -5.7592   27.1123 C   0  0  0  0  0  0  0  0  0  0  0  0
    3.5517   -7.7407   25.9711 C   0  0  0  0  0  0  0  0  0  0  0  0
  1  4  4  0
  1 22  4  0
  2 20  4  0
  2 27  4  0
  3 12  4  0
  3 23  4  0
  4 25  4  0
  4 28  1  0
  5  8  4  0
  5 17  4  0
  6  7  4  0
  6 16  4  0
  7 18  4  0
  8 27  4  0
  9 13  4  0
  9 23  4  0
 10 11  1  0
 11 14  2  0
 11 27  1  0
 12 19  1  0
 12 24  4  0
 13 24  4  0
 15 18  1  0
 16 25  4  0
 16 26  4  0
 17 20  4  0
 17 28  1  0
 18 21  4  0
 21 26  4  0
 22 26  4  0
M  END
$$$$

 Created by Python create_sdf_string function

 28 30  0  0  0  0  0  0  0  0999 V2000
    5.7174   -8.4529   26.7190 C   0  0  0  0  0  0  0  0  0  0  0  0
    0.3974   -7.0711   27.5149 C   0  0  0  0  0  0  0  0  0  0  0  0
    2.5338   -7.6891   16.0102 C   0  0  0  0  0  0  0  0  0  0  0  0
    4.8690   -7.4380   26.4151 C   0  0  0  0  0  0  0  0  0  0  0  0
    2.3021   -5.6726   26.0378 C   0  0  0  0  0  0  0  0  0  0  0  0
    7.0880   -4.6163   27.0010 C   0  0  0  0  0  0  0  0  0  0  0  0
    8.3117   -4.3698   27.4436 C   0  0  0  0  0  0  0  0  0  0  0  0
    1.1339   -5.0515   26.3541 C   0  0  0  0  0  0  0  0  0  0  0  0
    4.8080   -8.0362   16.7101 C   0  0  0  0  0  0  0  0  0  0  0  0
   -1.2173   -3.9294   26.9717 O   0  0  0  0  0  0  0  0  0  0  0  0
   -1.0025   -5.0942   27.4586 C   0  0  0  0  0  0  0  0  0  0  0  0
    2.2474   -8.9123   16.6273 C   0  0  0  0  0  0  0  0  0  0  0  0
    4.4957   -9.2636   17.3041 C   0  0  0  0  0  0  0  0  0  0  0  0
   -1.8070   -5.6086   28.1920 O   0  0  0  0  0  0  0  0  0  0  0  0
   10.4296   -5.1799   28.3140 C   0  0  0  0  0  0  0  0  0  0  0  0
    6.6017   -5.9004   26.9187 C   0  0  0  0  0  0  0  0  0  0  0  0
    2.4761   -6.9940   26.4111 N   0  0  0  0  0  0  0  0  0  0  0  0
    9.1353   -5.4053   27.8239 C   0  0  0  0  0  0  0  0  0  0  0  0
    0.9922   -9.3232   16.5995 O   0  0  0  0  0  0  0  0  0  0  0  0
    1.5232   -7.6869   27.1182 C   0  0  0  0  0  0  0  0  0  0  0  0
    8.6878   -6.6715   27.7262 N   0  0  0  0  0  0  0  0  0  0  0  0
    6.9911   -8.2423   27.1808 C   0  0  0  0  0  0  0  0  0  0  0  0
    3.8436   -7.2758   16.0578 C   0  0  0  0  0  0  0  0  0  0  0  0
    3.1882   -9.7190   17.2566 C   0  0  0  0  0  0  0  0  0  0  0  0
    5.3488   -6.1737   26.5092 C   0  0  0  0  0  0  0  0  0  0  0  0
    7.4567   -6.9464   27.2858 C   0  0  0  0  0  0  0  0  0  0  0  0
    0.1921   -5.7592   27.1123 C   0  0  0  0  0  0  0  0  0  0  0  0
    3.5517   -7.7407   25.9711 C   0  0  0  0  0  0  0  0  0  0  0  0
  1  4  4  0
  1 22  4  0
  2 20  4  0
  2 27  4  0
  3 12  4  0
  3 23  4  0
  4 25  4  0
  4 28  1  0
  5  8  4  0
  5 17  4  0
  6  7  4  0
  6 16  4  0
  7 18  4  0
  8 27  4  0
  9 13  4  0
  9 23  4  0
 10 11  1  0
 11 14  2  0
 11 27  1  0
 12 19  1  0
 12 24  4  0
 13 24  4  0
 15 18  1  0
 16 25  4  0
 16 26  4  0
 17 20  4  0
 17 28  1  0
 18 21  4  0
 21 26  4  0
 22 26  4  0
M  END
$$$$

 Created by Python create_sdf_string function

 28 30  0  0  0  0  0  0  0  0999 V2000
    5.7174   -8.4529   26.7190 C   0  0  0  0  0  0  0  0  0  0  0  0
    0.3974   -7.0711   27.5149 C   0  0  0  0  0  0  0  0  0  0  0  0
    2.5338   -7.6891   16.0102 C   0  0  0  0  0  0  0  0  0  0  0  0
    4.8690   -7.4380   26.4151 C   0  0  0  0  0  0  0  0  0  0  0  0
    2.3021   -5.6726   26.0378 C   0  0  0  0  0  0  0  0  0  0  0  0
    7.0880   -4.6163   27.0010 C   0  0  0  0  0  0  0  0  0  0  0  0
    8.3117   -4.3698   27.4436 C   0  0  0  0  0  0  0  0  0  0  0  0
    1.1339   -5.0515   26.3541 C   0  0  0  0  0  0  0  0  0  0  0  0
    4.8080   -8.0362   16.7101 C   0  0  0  0  0  0  0  0  0  0  0  0
   -1.2173   -3.9294   26.9717 O   0  0  0  0  0  0  0  0  0  0  0  0
   -1.0025   -5.0942   27.4586 C   0  0  0  0  0  0  0  0  0  0  0  0
    2.2474   -8.9123   16.6273 C   0  0  0  0  0  0  0  0  0  0  0  0
    4.4957   -9.2636   17.3041 C   0  0  0  0  0  0  0  0  0  0  0  0
   -1.8070   -5.6086   28.1920 O   0  0  0  0  0  0  0  0  0  0  0  0
   10.4296   -5.1799   28.3140 C   0  0  0  0  0  0  0  0  0  0  0  0
    6.6017   -5.9004   26.9187 C   0  0  0  0  0  0  0  0  0  0  0  0
    2.4761   -6.9940   26.4111 N   0  0  0  0  0  0  0  0  0  0  0  0
    9.1353   -5.4053   27.8239 C   0  0  0  0  0  0  0  0  0  0  0  0
    0.9922   -9.3232   16.5995 O   0  0  0  0  0  0  0  0  0  0  0  0
    1.5232   -7.6869   27.1182 C   0  0  0  0  0  0  0  0  0  0  0  0
    8.6878   -6.6715   27.7262 N   0  0  0  0  0  0  0  0  0  0  0  0
    6.9911   -8.2423   27.1808 C   0  0  0  0  0  0  0  0  0  0  0  0
    3.8436   -7.2758   16.0578 C   0  0  0  0  0  0  0  0  0  0  0  0
    3.1882   -9.7190   17.2566 C   0  0  0  0  0  0  0  0  0  0  0  0
    5.3488   -6.1737   26.5092 C   0  0  0  0  0  0  0  0  0  0  0  0
    7.4567   -6.9464   27.2858 C   0  0  0  0  0  0  0  0  0  0  0  0
    0.1921   -5.7592   27.1123 C   0  0  0  0  0  0  0  0  0  0  0  0
    3.5517   -7.7407   25.9711 C   0  0  0  0  0  0  0  0  0  0  0  0
  1  4  4  0
  1 22  4  0
  2 20  4  0
  2 27  4  0
  3 12  4  0
  3 23  4  0
  4 25  4  0
  4 28  1  0
  5  8  4  0
  5 17  4  0
  6  7  4  0
  6 16  4  0
  7 18  4  0
  8 27  4  0
  9 13  4  0
  9 23  4  0
 10 11  1  0
 11 14  2  0
 11 27  1  0
 12 19  1  0
 12 24  4  0
 13 24  4  0
 15 18  1  0
 16 25  4  0
 16 26  4  0
 17 20  4  0
 17 28  1  0
 18 21  4  0
 21 26  4  0
 22 26  4  0
M  END
$$$$

 Created by Python create_sdf_string function

 28 30  0  0  0  0  0  0  0  0999 V2000
    5.7174   -8.4529   26.7190 C   0  0  0  0  0  0  0  0  0  0  0  0
    0.3974   -7.0711   27.5149 C   0  0  0  0  0  0  0  0  0  0  0  0
    2.5338   -7.6891   16.0102 C   0  0  0  0  0  0  0  0  0  0  0  0
    4.8690   -7.4380   26.4151 C   0  0  0  0  0  0  0  0  0  0  0  0
    2.3021   -5.6726   26.0378 C   0  0  0  0  0  0  0  0  0  0  0  0
    7.0880   -4.6163   27.0010 C   0  0  0  0  0  0  0  0  0  0  0  0
    8.3117   -4.3698   27.4436 C   0  0  0  0  0  0  0  0  0  0  0  0
    1.1339   -5.0515   26.3541 C   0  0  0  0  0  0  0  0  0  0  0  0
    4.8080   -8.0362   16.7101 C   0  0  0  0  0  0  0  0  0  0  0  0
   -1.2173   -3.9294   26.9717 O   0  0  0  0  0  0  0  0  0  0  0  0
   -1.0025   -5.0942   27.4586 C   0  0  0  0  0  0  0  0  0  0  0  0
    2.2474   -8.9123   16.6273 C   0  0  0  0  0  0  0  0  0  0  0  0
    4.4957   -9.2636   17.3041 C   0  0  0  0  0  0  0  0  0  0  0  0
   -1.8070   -5.6086   28.1920 O   0  0  0  0  0  0  0  0  0  0  0  0
   10.4296   -5.1799   28.3140 C   0  0  0  0  0  0  0  0  0  0  0  0
    6.6017   -5.9004   26.9187 C   0  0  0  0  0  0  0  0  0  0  0  0
    2.4761   -6.9940   26.4111 N   0  0  0  0  0  0  0  0  0  0  0  0
    9.1353   -5.4053   27.8239 C   0  0  0  0  0  0  0  0  0  0  0  0
    0.9922   -9.3232   16.5995 O   0  0  0  0  0  0  0  0  0  0  0  0
    1.5232   -7.6869   27.1182 C   0  0  0  0  0  0  0  0  0  0  0  0
    8.6878   -6.6715   27.7262 N   0  0  0  0  0  0  0  0  0  0  0  0
    6.9911   -8.2423   27.1808 C   0  0  0  0  0  0  0  0  0  0  0  0
    3.8436   -7.2758   16.0578 C   0  0  0  0  0  0  0  0  0  0  0  0
    3.1882   -9.7190   17.2566 C   0  0  0  0  0  0  0  0  0  0  0  0
    5.3488   -6.1737   26.5092 C   0  0  0  0  0  0  0  0  0  0  0  0
    7.4567   -6.9464   27.2858 C   0  0  0  0  0  0  0  0  0  0  0  0
    0.1921   -5.7592   27.1123 C   0  0  0  0  0  0  0  0  0  0  0  0
    3.5517   -7.7407   25.9711 C   0  0  0  0  0  0  0  0  0  0  0  0
  1  4  4  0
  1 22  4  0
  2 20  4  0
  2 27  4  0
  3 12  4  0
  3 23  4  0
  4 25  4  0
  4 28  1  0
  5  8  4  0
  5 17  4  0
  6  7  4  0
  6 16  4  0
  7 18  4  0
  8 27  4  0
  9 13  4  0
  9 23  4  0
 10 11  1  0
 11 14  2  0
 11 27  1  0
 12 19  1  0
 12 24  4  0
 13 24  4  0
 15 18  1  0
 16 25  4  0
 16 26  4  0
 17 20  4  0
 17 28  1  0
 18 21  4  0
 21 26  4  0
 22 26  4  0
M  END
$$$$

 Created by Python create_sdf_string function

 28 30  0  0  0  0  0  0  0  0999 V2000
    5.7174   -8.4529   26.7190 C   0  0  0  0  0  0  0  0  0  0  0  0
    0.3974   -7.0711   27.5149 C   0  0  0  0  0  0  0  0  0  0  0  0
    2.5338   -7.6891   16.0102 C   0  0  0  0  0  0  0  0  0  0  0  0
    4.8690   -7.4380   26.4151 C   0  0  0  0  0  0  0  0  0  0  0  0
    2.3021   -5.6726   26.0378 C   0  0  0  0  0  0  0  0  0  0  0  0
    7.0880   -4.6163   27.0010 C   0  0  0  0  0  0  0  0  0  0  0  0
    8.3117   -4.3698   27.4436 C   0  0  0  0  0  0  0  0  0  0  0  0
    1.1339   -5.0515   26.3541 C   0  0  0  0  0  0  0  0  0  0  0  0
    4.8080   -8.0362   16.7101 C   0  0  0  0  0  0  0  0  0  0  0  0
   -1.2173   -3.9294   26.9717 O   0  0  0  0  0  0  0  0  0  0  0  0
   -1.0025   -5.0942   27.4586 C   0  0  0  0  0  0  0  0  0  0  0  0
    2.2474   -8.9123   16.6273 C   0  0  0  0  0  0  0  0  0  0  0  0
    4.4957   -9.2636   17.3041 C   0  0  0  0  0  0  0  0  0  0  0  0
   -1.8070   -5.6086   28.1920 O   0  0  0  0  0  0  0  0  0  0  0  0
   10.4296   -5.1799   28.3140 C   0  0  0  0  0  0  0  0  0  0  0  0
    6.6017   -5.9004   26.9187 C   0  0  0  0  0  0  0  0  0  0  0  0
    2.4761   -6.9940   26.4111 N   0  0  0  0  0  0  0  0  0  0  0  0
    9.1353   -5.4053   27.8239 C   0  0  0  0  0  0  0  0  0  0  0  0
    0.9922   -9.3232   16.5995 O   0  0  0  0  0  0  0  0  0  0  0  0
    1.5232   -7.6869   27.1182 C   0  0  0  0  0  0  0  0  0  0  0  0
    8.6878   -6.6715   27.7262 N   0  0  0  0  0  0  0  0  0  0  0  0
    6.9911   -8.2423   27.1808 C   0  0  0  0  0  0  0  0  0  0  0  0
    3.8436   -7.2758   16.0578 C   0  0  0  0  0  0  0  0  0  0  0  0
    3.1882   -9.7190   17.2566 C   0  0  0  0  0  0  0  0  0  0  0  0
    5.3488   -6.1737   26.5092 C   0  0  0  0  0  0  0  0  0  0  0  0
    7.4567   -6.9464   27.2858 C   0  0  0  0  0  0  0  0  0  0  0  0
    0.1921   -5.7592   27.1123 C   0  0  0  0  0  0  0  0  0  0  0  0
    3.5517   -7.7407   25.9711 C   0  0  0  0  0  0  0  0  0  0  0  0
  1  4  4  0
  1 22  4  0
  2 20  4  0
  2 27  4  0
  3 12  4  0
  3 23  4  0
  4 25  4  0
  4 28  1  0
  5  8  4  0
  5 17  4  0
  6  7  4  0
  6 16  4  0
  7 18  4  0
  8 27  4  0
  9 13  4  0
  9 23  4  0
 10 11  1  0
 11 14  2  0
 11 27  1  0
 12 19  1  0
 12 24  4  0
 13 24  4  0
 15 18  1  0
 16 25  4  0
 16 26  4  0
 17 20  4  0
 17 28  1  0
 18 21  4  0
 21 26  4  0
 22 26  4  0
M  END
$$$$

 Created by Python create_sdf_string function

 28 30  0  0  0  0  0  0  0  0999 V2000
    5.7174   -8.4529   26.7190 C   0  0  0  0  0  0  0  0  0  0  0  0
    0.3974   -7.0711   27.5149 C   0  0  0  0  0  0  0  0  0  0  0  0
    2.5338   -7.6891   16.0102 C   0  0  0  0  0  0  0  0  0  0  0  0
    4.8690   -7.4380   26.4151 C   0  0  0  0  0  0  0  0  0  0  0  0
    2.3021   -5.6726   26.0378 C   0  0  0  0  0  0  0  0  0  0  0  0
    7.0880   -4.6163   27.0010 C   0  0  0  0  0  0  0  0  0  0  0  0
    8.3117   -4.3698   27.4436 C   0  0  0  0  0  0  0  0  0  0  0  0
    1.1339   -5.0515   26.3541 C   0  0  0  0  0  0  0  0  0  0  0  0
    4.8080   -8.0362   16.7101 C   0  0  0  0  0  0  0  0  0  0  0  0
   -1.2173   -3.9294   26.9717 O   0  0  0  0  0  0  0  0  0  0  0  0
   -1.0025   -5.0942   27.4586 C   0  0  0  0  0  0  0  0  0  0  0  0
    2.2474   -8.9123   16.6273 C   0  0  0  0  0  0  0  0  0  0  0  0
    4.4957   -9.2636   17.3041 C   0  0  0  0  0  0  0  0  0  0  0  0
   -1.8070   -5.6086   28.1920 O   0  0  0  0  0  0  0  0  0  0  0  0
   10.4296   -5.1799   28.3140 C   0  0  0  0  0  0  0  0  0  0  0  0
    6.6017   -5.9004   26.9187 C   0  0  0  0  0  0  0  0  0  0  0  0
    2.4761   -6.9940   26.4111 N   0  0  0  0  0  0  0  0  0  0  0  0
    9.1353   -5.4053   27.8239 C   0  0  0  0  0  0  0  0  0  0  0  0
    0.9922   -9.3232   16.5995 O   0  0  0  0  0  0  0  0  0  0  0  0
    1.5232   -7.6869   27.1182 C   0  0  0  0  0  0  0  0  0  0  0  0
    8.6878   -6.6715   27.7262 N   0  0  0  0  0  0  0  0  0  0  0  0
    6.9911   -8.2423   27.1808 C   0  0  0  0  0  0  0  0  0  0  0  0
    3.8436   -7.2758   16.0578 C   0  0  0  0  0  0  0  0  0  0  0  0
    3.1882   -9.7190   17.2566 C   0  0  0  0  0  0  0  0  0  0  0  0
    5.3488   -6.1737   26.5092 C   0  0  0  0  0  0  0  0  0  0  0  0
    7.4567   -6.9464   27.2858 C   0  0  0  0  0  0  0  0  0  0  0  0
    0.1921   -5.7592   27.1123 C   0  0  0  0  0  0  0  0  0  0  0  0
    3.5517   -7.7407   25.9711 C   0  0  0  0  0  0  0  0  0  0  0  0
  1  4  4  0
  1 22  4  0
  2 20  4  0
  2 27  4  0
  3 12  4  0
  3 23  4  0
  4 25  4  0
  4 28  1  0
  5  8  4  0
  5 17  4  0
  6  7  4  0
  6 16  4  0
  7 18  4  0
  8 27  4  0
  9 13  4  0
  9 23  4  0
 10 11  1  0
 11 14  2  0
 11 27  1  0
 12 19  1  0
 12 24  4  0
 13 24  4  0
 15 18  1  0
 16 25  4  0
 16 26  4  0
 17 20  4  0
 17 28  1  0
 18 21  4  0
 21 26  4  0
 22 26  4  0
M  END
$$$$

 Created by Python create_sdf_string function

 28 30  0  0  0  0  0  0  0  0999 V2000
    5.7174   -8.4529   26.7190 C   0  0  0  0  0  0  0  0  0  0  0  0
    0.3974   -7.0711   27.5149 C   0  0  0  0  0  0  0  0  0  0  0  0
    2.5338   -7.6891   16.0102 C   0  0  0  0  0  0  0  0  0  0  0  0
    4.8690   -7.4380   26.4151 C   0  0  0  0  0  0  0  0  0  0  0  0
    2.3021   -5.6726   26.0378 C   0  0  0  0  0  0  0  0  0  0  0  0
    7.0880   -4.6163   27.0010 C   0  0  0  0  0  0  0  0  0  0  0  0
    8.3117   -4.3698   27.4436 C   0  0  0  0  0  0  0  0  0  0  0  0
    1.1339   -5.0515   26.3541 C   0  0  0  0  0  0  0  0  0  0  0  0
    4.8080   -8.0362   16.7101 C   0  0  0  0  0  0  0  0  0  0  0  0
   -1.2173   -3.9294   26.9717 O   0  0  0  0  0  0  0  0  0  0  0  0
   -1.0025   -5.0942   27.4586 C   0  0  0  0  0  0  0  0  0  0  0  0
    2.2474   -8.9123   16.6273 C   0  0  0  0  0  0  0  0  0  0  0  0
    4.4957   -9.2636   17.3041 C   0  0  0  0  0  0  0  0  0  0  0  0
   -1.8070   -5.6086   28.1920 O   0  0  0  0  0  0  0  0  0  0  0  0
   10.4296   -5.1799   28.3140 C   0  0  0  0  0  0  0  0  0  0  0  0
    6.6017   -5.9004   26.9187 C   0  0  0  0  0  0  0  0  0  0  0  0
    2.4761   -6.9940   26.4111 N   0  0  0  0  0  0  0  0  0  0  0  0
    9.1353   -5.4053   27.8239 C   0  0  0  0  0  0  0  0  0  0  0  0
    0.9922   -9.3232   16.5995 O   0  0  0  0  0  0  0  0  0  0  0  0
    1.5232   -7.6869   27.1182 C   0  0  0  0  0  0  0  0  0  0  0  0
    8.6878   -6.6715   27.7262 N   0  0  0  0  0  0  0  0  0  0  0  0
    6.9911   -8.2423   27.1808 C   0  0  0  0  0  0  0  0  0  0  0  0
    3.8436   -7.2758   16.0578 C   0  0  0  0  0  0  0  0  0  0  0  0
    3.1882   -9.7190   17.2566 C   0  0  0  0  0  0  0  0  0  0  0  0
    5.3488   -6.1737   26.5092 C   0  0  0  0  0  0  0  0  0  0  0  0
    7.4567   -6.9464   27.2858 C   0  0  0  0  0  0  0  0  0  0  0  0
    0.1921   -5.7592   27.1123 C   0  0  0  0  0  0  0  0  0  0  0  0
    3.5517   -7.7407   25.9711 C   0  0  0  0  0  0  0  0  0  0  0  0
  1  4  4  0
  1 22  4  0
  2 20  4  0
  2 27  4  0
  3 12  4  0
  3 23  4  0
  4 25  4  0
  4 28  1  0
  5  8  4  0
  5 17  4  0
  6  7  4  0
  6 16  4  0
  7 18  4  0
  8 27  4  0
  9 13  4  0
  9 23  4  0
 10 11  1  0
 11 14  2  0
 11 27  1  0
 12 19  1  0
 12 24  4  0
 13 24  4  0
 15 18  1  0
 16 25  4  0
 16 26  4  0
 17 20  4  0
 17 28  1  0
 18 21  4  0
 21 26  4  0
 22 26  4  0
M  END
$$$$

 Created by Python create_sdf_string function

 28 30  0  0  0  0  0  0  0  0999 V2000
    5.7174   -8.4529   26.7190 C   0  0  0  0  0  0  0  0  0  0  0  0
    0.3974   -7.0711   27.5149 C   0  0  0  0  0  0  0  0  0  0  0  0
    2.5338   -7.6891   16.0102 C   0  0  0  0  0  0  0  0  0  0  0  0
    4.8690   -7.4380   26.4151 C   0  0  0  0  0  0  0  0  0  0  0  0
    2.3021   -5.6726   26.0378 C   0  0  0  0  0  0  0  0  0  0  0  0
    7.0880   -4.6163   27.0010 C   0  0  0  0  0  0  0  0  0  0  0  0
    8.3117   -4.3698   27.4436 C   0  0  0  0  0  0  0  0  0  0  0  0
    1.1339   -5.0515   26.3541 C   0  0  0  0  0  0  0  0  0  0  0  0
    4.8080   -8.0362   16.7101 C   0  0  0  0  0  0  0  0  0  0  0  0
   -1.2173   -3.9294   26.9717 O   0  0  0  0  0  0  0  0  0  0  0  0
   -1.0025   -5.0942   27.4586 C   0  0  0  0  0  0  0  0  0  0  0  0
    2.2474   -8.9123   16.6273 C   0  0  0  0  0  0  0  0  0  0  0  0
    4.4957   -9.2636   17.3041 C   0  0  0  0  0  0  0  0  0  0  0  0
   -1.8070   -5.6086   28.1920 O   0  0  0  0  0  0  0  0  0  0  0  0
   10.4296   -5.1799   28.3140 C   0  0  0  0  0  0  0  0  0  0  0  0
    6.6017   -5.9004   26.9187 C   0  0  0  0  0  0  0  0  0  0  0  0
    2.4761   -6.9940   26.4111 N   0  0  0  0  0  0  0  0  0  0  0  0
    9.1353   -5.4053   27.8239 C   0  0  0  0  0  0  0  0  0  0  0  0
    0.9922   -9.3232   16.5995 O   0  0  0  0  0  0  0  0  0  0  0  0
    1.5232   -7.6869   27.1182 C   0  0  0  0  0  0  0  0  0  0  0  0
    8.6878   -6.6715   27.7262 N   0  0  0  0  0  0  0  0  0  0  0  0
    6.9911   -8.2423   27.1808 C   0  0  0  0  0  0  0  0  0  0  0  0
    3.8436   -7.2758   16.0578 C   0  0  0  0  0  0  0  0  0  0  0  0
    3.1882   -9.7190   17.2566 C   0  0  0  0  0  0  0  0  0  0  0  0
    5.3488   -6.1737   26.5092 C   0  0  0  0  0  0  0  0  0  0  0  0
    7.4567   -6.9464   27.2858 C   0  0  0  0  0  0  0  0  0  0  0  0
    0.1921   -5.7592   27.1123 C   0  0  0  0  0  0  0  0  0  0  0  0
    3.5517   -7.7407   25.9711 C   0  0  0  0  0  0  0  0  0  0  0  0
  1  4  4  0
  1 22  4  0
  2 20  4  0
  2 27  4  0
  3 12  4  0
  3 23  4  0
  4 25  4  0
  4 28  1  0
  5  8  4  0
  5 17  4  0
  6  7  4  0
  6 16  4  0
  7 18  4  0
  8 27  4  0
  9 13  4  0
  9 23  4  0
 10 11  1  0
 11 14  2  0
 11 27  1  0
 12 19  1  0
 12 24  4  0
 13 24  4  0
 15 18  1  0
 16 25  4  0
 16 26  4  0
 17 20  4  0
 17 28  1  0
 18 21  4  0
 21 26  4  0
 22 26  4  0
M  END
$$$$

 Created by Python create_sdf_string function

 28 30  0  0  0  0  0  0  0  0999 V2000
    5.7174   -8.4529   26.7190 C   0  0  0  0  0  0  0  0  0  0  0  0
    0.3974   -7.0711   27.5149 C   0  0  0  0  0  0  0  0  0  0  0  0
    2.5338   -7.6891   16.0102 C   0  0  0  0  0  0  0  0  0  0  0  0
    4.8690   -7.4380   26.4151 C   0  0  0  0  0  0  0  0  0  0  0  0
    2.3021   -5.6726   26.0378 C   0  0  0  0  0  0  0  0  0  0  0  0
    7.0880   -4.6163   27.0010 C   0  0  0  0  0  0  0  0  0  0  0  0
    8.3117   -4.3698   27.4436 C   0  0  0  0  0  0  0  0  0  0  0  0
    1.1339   -5.0515   26.3541 C   0  0  0  0  0  0  0  0  0  0  0  0
    4.8080   -8.0362   16.7101 C   0  0  0  0  0  0  0  0  0  0  0  0
   -1.2173   -3.9294   26.9717 O   0  0  0  0  0  0  0  0  0  0  0  0
   -1.0025   -5.0942   27.4586 C   0  0  0  0  0  0  0  0  0  0  0  0
    2.2474   -8.9123   16.6273 C   0  0  0  0  0  0  0  0  0  0  0  0
    4.4957   -9.2636   17.3041 C   0  0  0  0  0  0  0  0  0  0  0  0
   -1.8070   -5.6086   28.1920 O   0  0  0  0  0  0  0  0  0  0  0  0
   10.4296   -5.1799   28.3140 C   0  0  0  0  0  0  0  0  0  0  0  0
    6.6017   -5.9004   26.9187 C   0  0  0  0  0  0  0  0  0  0  0  0
    2.4761   -6.9940   26.4111 N   0  0  0  0  0  0  0  0  0  0  0  0
    9.1353   -5.4053   27.8239 C   0  0  0  0  0  0  0  0  0  0  0  0
    0.9922   -9.3232   16.5995 O   0  0  0  0  0  0  0  0  0  0  0  0
    1.5232   -7.6869   27.1182 C   0  0  0  0  0  0  0  0  0  0  0  0
    8.6878   -6.6715   27.7262 N   0  0  0  0  0  0  0  0  0  0  0  0
    6.9911   -8.2423   27.1808 C   0  0  0  0  0  0  0  0  0  0  0  0
    3.8436   -7.2758   16.0578 C   0  0  0  0  0  0  0  0  0  0  0  0
    3.1882   -9.7190   17.2566 C   0  0  0  0  0  0  0  0  0  0  0  0
    5.3488   -6.1737   26.5092 C   0  0  0  0  0  0  0  0  0  0  0  0
    7.4567   -6.9464   27.2858 C   0  0  0  0  0  0  0  0  0  0  0  0
    0.1921   -5.7592   27.1123 C   0  0  0  0  0  0  0  0  0  0  0  0
    3.5517   -7.7407   25.9711 C   0  0  0  0  0  0  0  0  0  0  0  0
  1  4  4  0
  1 22  4  0
  2 20  4  0
  2 27  4  0
  3 12  4  0
  3 23  4  0
  4 25  4  0
  4 28  1  0
  5  8  4  0
  5 17  4  0
  6  7  4  0
  6 16  4  0
  7 18  4  0
  8 27  4  0
  9 13  4  0
  9 23  4  0
 10 11  1  0
 11 14  2  0
 11 27  1  0
 12 19  1  0
 12 24  4  0
 13 24  4  0
 15 18  1  0
 16 25  4  0
 16 26  4  0
 17 20  4  0
 17 28  1  0
 18 21  4  0
 21 26  4  0
 22 26  4  0
M  END
$$$$

 Created by Python create_sdf_string function

 28 30  0  0  0  0  0  0  0  0999 V2000
    5.7174   -8.4529   26.7190 C   0  0  0  0  0  0  0  0  0  0  0  0
    0.3974   -7.0711   27.5149 C   0  0  0  0  0  0  0  0  0  0  0  0
    2.5338   -7.6891   16.0102 C   0  0  0  0  0  0  0  0  0  0  0  0
    4.8690   -7.4380   26.4151 C   0  0  0  0  0  0  0  0  0  0  0  0
    2.3021   -5.6726   26.0378 C   0  0  0  0  0  0  0  0  0  0  0  0
    7.0880   -4.6163   27.0010 C   0  0  0  0  0  0  0  0  0  0  0  0
    8.3117   -4.3698   27.4436 C   0  0  0  0  0  0  0  0  0  0  0  0
    1.1339   -5.0515   26.3541 C   0  0  0  0  0  0  0  0  0  0  0  0
    4.8080   -8.0362   16.7101 C   0  0  0  0  0  0  0  0  0  0  0  0
   -1.2173   -3.9294   26.9717 O   0  0  0  0  0  0  0  0  0  0  0  0
   -1.0025   -5.0942   27.4586 C   0  0  0  0  0  0  0  0  0  0  0  0
    2.2474   -8.9123   16.6273 C   0  0  0  0  0  0  0  0  0  0  0  0
    4.4957   -9.2636   17.3041 C   0  0  0  0  0  0  0  0  0  0  0  0
   -1.8070   -5.6086   28.1920 O   0  0  0  0  0  0  0  0  0  0  0  0
   10.4296   -5.1799   28.3140 C   0  0  0  0  0  0  0  0  0  0  0  0
    6.6017   -5.9004   26.9187 C   0  0  0  0  0  0  0  0  0  0  0  0
    2.4761   -6.9940   26.4111 N   0  0  0  0  0  0  0  0  0  0  0  0
    9.1353   -5.4053   27.8239 C   0  0  0  0  0  0  0  0  0  0  0  0
    0.9922   -9.3232   16.5995 O   0  0  0  0  0  0  0  0  0  0  0  0
    1.5232   -7.6869   27.1182 C   0  0  0  0  0  0  0  0  0  0  0  0
    8.6878   -6.6715   27.7262 N   0  0  0  0  0  0  0  0  0  0  0  0
    6.9911   -8.2423   27.1808 C   0  0  0  0  0  0  0  0  0  0  0  0
    3.8436   -7.2758   16.0578 C   0  0  0  0  0  0  0  0  0  0  0  0
    3.1882   -9.7190   17.2566 C   0  0  0  0  0  0  0  0  0  0  0  0
    5.3488   -6.1737   26.5092 C   0  0  0  0  0  0  0  0  0  0  0  0
    7.4567   -6.9464   27.2858 C   0  0  0  0  0  0  0  0  0  0  0  0
    0.1921   -5.7592   27.1123 C   0  0  0  0  0  0  0  0  0  0  0  0
    3.5517   -7.7407   25.9711 C   0  0  0  0  0  0  0  0  0  0  0  0
  1  4  4  0
  1 22  4  0
  2 20  4  0
  2 27  4  0
  3 12  4  0
  3 23  4  0
  4 25  4  0
  4 28  1  0
  5  8  4  0
  5 17  4  0
  6  7  4  0
  6 16  4  0
  7 18  4  0
  8 27  4  0
  9 13  4  0
  9 23  4  0
 10 11  1  0
 11 14  2  0
 11 27  1  0
 12 19  1  0
 12 24  4  0
 13 24  4  0
 15 18  1  0
 16 25  4  0
 16 26  4  0
 17 20  4  0
 17 28  1  0
 18 21  4  0
 21 26  4  0
 22 26  4  0
M  END
$$$$

 Created by Python create_sdf_string function

 28 30  0  0  0  0  0  0  0  0999 V2000
    5.7174   -8.4529   26.7190 C   0  0  0  0  0  0  0  0  0  0  0  0
    0.3974   -7.0711   27.5149 C   0  0  0  0  0  0  0  0  0  0  0  0
    2.5338   -7.6891   16.0102 C   0  0  0  0  0  0  0  0  0  0  0  0
    4.8690   -7.4380   26.4151 C   0  0  0  0  0  0  0  0  0  0  0  0
    2.3021   -5.6726   26.0378 C   0  0  0  0  0  0  0  0  0  0  0  0
    7.0880   -4.6163   27.0010 C   0  0  0  0  0  0  0  0  0  0  0  0
    8.3117   -4.3698   27.4436 C   0  0  0  0  0  0  0  0  0  0  0  0
    1.1339   -5.0515   26.3541 C   0  0  0  0  0  0  0  0  0  0  0  0
    4.8080   -8.0362   16.7101 C   0  0  0  0  0  0  0  0  0  0  0  0
   -1.2173   -3.9294   26.9717 O   0  0  0  0  0  0  0  0  0  0  0  0
   -1.0025   -5.0942   27.4586 C   0  0  0  0  0  0  0  0  0  0  0  0
    2.2474   -8.9123   16.6273 C   0  0  0  0  0  0  0  0  0  0  0  0
    4.4957   -9.2636   17.3041 C   0  0  0  0  0  0  0  0  0  0  0  0
   -1.8070   -5.6086   28.1920 O   0  0  0  0  0  0  0  0  0  0  0  0
   10.4296   -5.1799   28.3140 C   0  0  0  0  0  0  0  0  0  0  0  0
    6.6017   -5.9004   26.9187 C   0  0  0  0  0  0  0  0  0  0  0  0
    2.4761   -6.9940   26.4111 N   0  0  0  0  0  0  0  0  0  0  0  0
    9.1353   -5.4053   27.8239 C   0  0  0  0  0  0  0  0  0  0  0  0
    0.9922   -9.3232   16.5995 O   0  0  0  0  0  0  0  0  0  0  0  0
    1.5232   -7.6869   27.1182 C   0  0  0  0  0  0  0  0  0  0  0  0
    8.6878   -6.6715   27.7262 N   0  0  0  0  0  0  0  0  0  0  0  0
    6.9911   -8.2423   27.1808 C   0  0  0  0  0  0  0  0  0  0  0  0
    3.8436   -7.2758   16.0578 C   0  0  0  0  0  0  0  0  0  0  0  0
    3.1882   -9.7190   17.2566 C   0  0  0  0  0  0  0  0  0  0  0  0
    5.3488   -6.1737   26.5092 C   0  0  0  0  0  0  0  0  0  0  0  0
    7.4567   -6.9464   27.2858 C   0  0  0  0  0  0  0  0  0  0  0  0
    0.1921   -5.7592   27.1123 C   0  0  0  0  0  0  0  0  0  0  0  0
    3.5517   -7.7407   25.9711 C   0  0  0  0  0  0  0  0  0  0  0  0
  1  4  4  0
  1 22  4  0
  2 20  4  0
  2 27  4  0
  3 12  4  0
  3 23  4  0
  4 25  4  0
  4 28  1  0
  5  8  4  0
  5 17  4  0
  6  7  4  0
  6 16  4  0
  7 18  4  0
  8 27  4  0
  9 13  4  0
  9 23  4  0
 10 11  1  0
 11 14  2  0
 11 27  1  0
 12 19  1  0
 12 24  4  0
 13 24  4  0
 15 18  1  0
 16 25  4  0
 16 26  4  0
 17 20  4  0
 17 28  1  0
 18 21  4  0
 21 26  4  0
 22 26  4  0
M  END
$$$$

 Created by Python create_sdf_string function

 28 30  0  0  0  0  0  0  0  0999 V2000
    5.7174   -8.4529   26.7190 C   0  0  0  0  0  0  0  0  0  0  0  0
    0.3974   -7.0711   27.5149 C   0  0  0  0  0  0  0  0  0  0  0  0
    2.5338   -7.6891   16.0102 C   0  0  0  0  0  0  0  0  0  0  0  0
    4.8690   -7.4380   26.4151 C   0  0  0  0  0  0  0  0  0  0  0  0
    2.3021   -5.6726   26.0378 C   0  0  0  0  0  0  0  0  0  0  0  0
    7.0880   -4.6163   27.0010 C   0  0  0  0  0  0  0  0  0  0  0  0
    8.3117   -4.3698   27.4436 C   0  0  0  0  0  0  0  0  0  0  0  0
    1.1339   -5.0515   26.3541 C   0  0  0  0  0  0  0  0  0  0  0  0
    4.8080   -8.0362   16.7101 C   0  0  0  0  0  0  0  0  0  0  0  0
   -1.2173   -3.9294   26.9717 O   0  0  0  0  0  0  0  0  0  0  0  0
   -1.0025   -5.0942   27.4586 C   0  0  0  0  0  0  0  0  0  0  0  0
    2.2474   -8.9123   16.6273 C   0  0  0  0  0  0  0  0  0  0  0  0
    4.4957   -9.2636   17.3041 C   0  0  0  0  0  0  0  0  0  0  0  0
   -1.8070   -5.6086   28.1920 O   0  0  0  0  0  0  0  0  0  0  0  0
   10.4296   -5.1799   28.3140 C   0  0  0  0  0  0  0  0  0  0  0  0
    6.6017   -5.9004   26.9187 C   0  0  0  0  0  0  0  0  0  0  0  0
    2.4761   -6.9940   26.4111 N   0  0  0  0  0  0  0  0  0  0  0  0
    9.1353   -5.4053   27.8239 C   0  0  0  0  0  0  0  0  0  0  0  0
    0.9922   -9.3232   16.5995 O   0  0  0  0  0  0  0  0  0  0  0  0
    1.5232   -7.6869   27.1182 C   0  0  0  0  0  0  0  0  0  0  0  0
    8.6878   -6.6715   27.7262 N   0  0  0  0  0  0  0  0  0  0  0  0
    6.9911   -8.2423   27.1808 C   0  0  0  0  0  0  0  0  0  0  0  0
    3.8436   -7.2758   16.0578 C   0  0  0  0  0  0  0  0  0  0  0  0
    3.1882   -9.7190   17.2566 C   0  0  0  0  0  0  0  0  0  0  0  0
    5.3488   -6.1737   26.5092 C   0  0  0  0  0  0  0  0  0  0  0  0
    7.4567   -6.9464   27.2858 C   0  0  0  0  0  0  0  0  0  0  0  0
    0.1921   -5.7592   27.1123 C   0  0  0  0  0  0  0  0  0  0  0  0
    3.5517   -7.7407   25.9711 C   0  0  0  0  0  0  0  0  0  0  0  0
  1  4  4  0
  1 22  4  0
  2 20  4  0
  2 27  4  0
  3 12  4  0
  3 23  4  0
  4 25  4  0
  4 28  1  0
  5  8  4  0
  5 17  4  0
  6  7  4  0
  6 16  4  0
  7 18  4  0
  8 27  4  0
  9 13  4  0
  9 23  4  0
 10 11  1  0
 11 14  2  0
 11 27  1  0
 12 19  1  0
 12 24  4  0
 13 24  4  0
 15 18  1  0
 16 25  4  0
 16 26  4  0
 17 20  4  0
 17 28  1  0
 18 21  4  0
 21 26  4  0
 22 26  4  0
M  END
$$$$

 Created by Python create_sdf_string function

 28 30  0  0  0  0  0  0  0  0999 V2000
    5.7174   -8.4529   26.7190 C   0  0  0  0  0  0  0  0  0  0  0  0
    0.3974   -7.0711   27.5149 C   0  0  0  0  0  0  0  0  0  0  0  0
    2.5338   -7.6891   16.0102 C   0  0  0  0  0  0  0  0  0  0  0  0
    4.8690   -7.4380   26.4151 C   0  0  0  0  0  0  0  0  0  0  0  0
    2.3021   -5.6726   26.0378 C   0  0  0  0  0  0  0  0  0  0  0  0
    7.0880   -4.6163   27.0010 C   0  0  0  0  0  0  0  0  0  0  0  0
    8.3117   -4.3698   27.4436 C   0  0  0  0  0  0  0  0  0  0  0  0
    1.1339   -5.0515   26.3541 C   0  0  0  0  0  0  0  0  0  0  0  0
    4.8080   -8.0362   16.7101 C   0  0  0  0  0  0  0  0  0  0  0  0
   -1.2173   -3.9294   26.9717 O   0  0  0  0  0  0  0  0  0  0  0  0
   -1.0025   -5.0942   27.4586 C   0  0  0  0  0  0  0  0  0  0  0  0
    2.2474   -8.9123   16.6273 C   0  0  0  0  0  0  0  0  0  0  0  0
    4.4957   -9.2636   17.3041 C   0  0  0  0  0  0  0  0  0  0  0  0
   -1.8070   -5.6086   28.1920 O   0  0  0  0  0  0  0  0  0  0  0  0
   10.4296   -5.1799   28.3140 C   0  0  0  0  0  0  0  0  0  0  0  0
    6.6017   -5.9004   26.9187 C   0  0  0  0  0  0  0  0  0  0  0  0
    2.4761   -6.9940   26.4111 N   0  0  0  0  0  0  0  0  0  0  0  0
    9.1353   -5.4053   27.8239 C   0  0  0  0  0  0  0  0  0  0  0  0
    0.9922   -9.3232   16.5995 O   0  0  0  0  0  0  0  0  0  0  0  0
    1.5232   -7.6869   27.1182 C   0  0  0  0  0  0  0  0  0  0  0  0
    8.6878   -6.6715   27.7262 N   0  0  0  0  0  0  0  0  0  0  0  0
    6.9911   -8.2423   27.1808 C   0  0  0  0  0  0  0  0  0  0  0  0
    3.8436   -7.2758   16.0578 C   0  0  0  0  0  0  0  0  0  0  0  0
    3.1882   -9.7190   17.2566 C   0  0  0  0  0  0  0  0  0  0  0  0
    5.3488   -6.1737   26.5092 C   0  0  0  0  0  0  0  0  0  0  0  0
    7.4567   -6.9464   27.2858 C   0  0  0  0  0  0  0  0  0  0  0  0
    0.1921   -5.7592   27.1123 C   0  0  0  0  0  0  0  0  0  0  0  0
    3.5517   -7.7407   25.9711 C   0  0  0  0  0  0  0  0  0  0  0  0
  1  4  4  0
  1 22  4  0
  2 20  4  0
  2 27  4  0
  3 12  4  0
  3 23  4  0
  4 25  4  0
  4 28  1  0
  5  8  4  0
  5 17  4  0
  6  7  4  0
  6 16  4  0
  7 18  4  0
  8 27  4  0
  9 13  4  0
  9 23  4  0
 10 11  1  0
 11 14  2  0
 11 27  1  0
 12 19  1  0
 12 24  4  0
 13 24  4  0
 15 18  1  0
 16 25  4  0
 16 26  4  0
 17 20  4  0
 17 28  1  0
 18 21  4  0
 21 26  4  0
 22 26  4  0
M  END
$$$$

 Created by Python create_sdf_string function

 28 30  0  0  0  0  0  0  0  0999 V2000
    5.7174   -8.4529   26.7190 C   0  0  0  0  0  0  0  0  0  0  0  0
    0.3974   -7.0711   27.5149 C   0  0  0  0  0  0  0  0  0  0  0  0
    2.5338   -7.6891   16.0102 C   0  0  0  0  0  0  0  0  0  0  0  0
    4.8690   -7.4380   26.4151 C   0  0  0  0  0  0  0  0  0  0  0  0
    2.3021   -5.6726   26.0378 C   0  0  0  0  0  0  0  0  0  0  0  0
    7.0880   -4.6163   27.0010 C   0  0  0  0  0  0  0  0  0  0  0  0
    8.3117   -4.3698   27.4436 C   0  0  0  0  0  0  0  0  0  0  0  0
    1.1339   -5.0515   26.3541 C   0  0  0  0  0  0  0  0  0  0  0  0
    4.8080   -8.0362   16.7101 C   0  0  0  0  0  0  0  0  0  0  0  0
   -1.2173   -3.9294   26.9717 O   0  0  0  0  0  0  0  0  0  0  0  0
   -1.0025   -5.0942   27.4586 C   0  0  0  0  0  0  0  0  0  0  0  0
    2.2474   -8.9123   16.6273 C   0  0  0  0  0  0  0  0  0  0  0  0
    4.4957   -9.2636   17.3041 C   0  0  0  0  0  0  0  0  0  0  0  0
   -1.8070   -5.6086   28.1920 O   0  0  0  0  0  0  0  0  0  0  0  0
   10.4296   -5.1799   28.3140 C   0  0  0  0  0  0  0  0  0  0  0  0
    6.6017   -5.9004   26.9187 C   0  0  0  0  0  0  0  0  0  0  0  0
    2.4761   -6.9940   26.4111 N   0  0  0  0  0  0  0  0  0  0  0  0
    9.1353   -5.4053   27.8239 C   0  0  0  0  0  0  0  0  0  0  0  0
    0.9922   -9.3232   16.5995 O   0  0  0  0  0  0  0  0  0  0  0  0
    1.5232   -7.6869   27.1182 C   0  0  0  0  0  0  0  0  0  0  0  0
    8.6878   -6.6715   27.7262 N   0  0  0  0  0  0  0  0  0  0  0  0
    6.9911   -8.2423   27.1808 C   0  0  0  0  0  0  0  0  0  0  0  0
    3.8436   -7.2758   16.0578 C   0  0  0  0  0  0  0  0  0  0  0  0
    3.1882   -9.7190   17.2566 C   0  0  0  0  0  0  0  0  0  0  0  0
    5.3488   -6.1737   26.5092 C   0  0  0  0  0  0  0  0  0  0  0  0
    7.4567   -6.9464   27.2858 C   0  0  0  0  0  0  0  0  0  0  0  0
    0.1921   -5.7592   27.1123 C   0  0  0  0  0  0  0  0  0  0  0  0
    3.5517   -7.7407   25.9711 C   0  0  0  0  0  0  0  0  0  0  0  0
  1  4  4  0
  1 22  4  0
  2 20  4  0
  2 27  4  0
  3 12  4  0
  3 23  4  0
  4 25  4  0
  4 28  1  0
  5  8  4  0
  5 17  4  0
  6  7  4  0
  6 16  4  0
  7 18  4  0
  8 27  4  0
  9 13  4  0
  9 23  4  0
 10 11  1  0
 11 14  2  0
 11 27  1  0
 12 19  1  0
 12 24  4  0
 13 24  4  0
 15 18  1  0
 16 25  4  0
 16 26  4  0
 17 20  4  0
 17 28  1  0
 18 21  4  0
 21 26  4  0
 22 26  4  0
M  END
$$$$

 Created by Python create_sdf_string function

 28 30  0  0  0  0  0  0  0  0999 V2000
    5.7174   -8.4529   26.7190 C   0  0  0  0  0  0  0  0  0  0  0  0
    0.3974   -7.0711   27.5149 C   0  0  0  0  0  0  0  0  0  0  0  0
    2.5338   -7.6891   16.0102 C   0  0  0  0  0  0  0  0  0  0  0  0
    4.8690   -7.4380   26.4151 C   0  0  0  0  0  0  0  0  0  0  0  0
    2.3021   -5.6726   26.0378 C   0  0  0  0  0  0  0  0  0  0  0  0
    7.0880   -4.6163   27.0010 C   0  0  0  0  0  0  0  0  0  0  0  0
    8.3117   -4.3698   27.4436 C   0  0  0  0  0  0  0  0  0  0  0  0
    1.1339   -5.0515   26.3541 C   0  0  0  0  0  0  0  0  0  0  0  0
    4.8080   -8.0362   16.7101 C   0  0  0  0  0  0  0  0  0  0  0  0
   -1.2173   -3.9294   26.9717 O   0  0  0  0  0  0  0  0  0  0  0  0
   -1.0025   -5.0942   27.4586 C   0  0  0  0  0  0  0  0  0  0  0  0
    2.2474   -8.9123   16.6273 C   0  0  0  0  0  0  0  0  0  0  0  0
    4.4957   -9.2636   17.3041 C   0  0  0  0  0  0  0  0  0  0  0  0
   -1.8070   -5.6086   28.1920 O   0  0  0  0  0  0  0  0  0  0  0  0
   10.4296   -5.1799   28.3140 C   0  0  0  0  0  0  0  0  0  0  0  0
    6.6017   -5.9004   26.9187 C   0  0  0  0  0  0  0  0  0  0  0  0
    2.4761   -6.9940   26.4111 N   0  0  0  0  0  0  0  0  0  0  0  0
    9.1353   -5.4053   27.8239 C   0  0  0  0  0  0  0  0  0  0  0  0
    0.9922   -9.3232   16.5995 O   0  0  0  0  0  0  0  0  0  0  0  0
    1.5232   -7.6869   27.1182 C   0  0  0  0  0  0  0  0  0  0  0  0
    8.6878   -6.6715   27.7262 N   0  0  0  0  0  0  0  0  0  0  0  0
    6.9911   -8.2423   27.1808 C   0  0  0  0  0  0  0  0  0  0  0  0
    3.8436   -7.2758   16.0578 C   0  0  0  0  0  0  0  0  0  0  0  0
    3.1882   -9.7190   17.2566 C   0  0  0  0  0  0  0  0  0  0  0  0
    5.3488   -6.1737   26.5092 C   0  0  0  0  0  0  0  0  0  0  0  0
    7.4567   -6.9464   27.2858 C   0  0  0  0  0  0  0  0  0  0  0  0
    0.1921   -5.7592   27.1123 C   0  0  0  0  0  0  0  0  0  0  0  0
    3.5517   -7.7407   25.9711 C   0  0  0  0  0  0  0  0  0  0  0  0
  1  4  4  0
  1 22  4  0
  2 20  4  0
  2 27  4  0
  3 12  4  0
  3 23  4  0
  4 25  4  0
  4 28  1  0
  5  8  4  0
  5 17  4  0
  6  7  4  0
  6 16  4  0
  7 18  4  0
  8 27  4  0
  9 13  4  0
  9 23  4  0
 10 11  1  0
 11 14  2  0
 11 27  1  0
 12 19  1  0
 12 24  4  0
 13 24  4  0
 15 18  1  0
 16 25  4  0
 16 26  4  0
 17 20  4  0
 17 28  1  0
 18 21  4  0
 21 26  4  0
 22 26  4  0
M  END
$$$$

 Created by Python create_sdf_string function

 28 30  0  0  0  0  0  0  0  0999 V2000
    5.7174   -8.4529   26.7190 C   0  0  0  0  0  0  0  0  0  0  0  0
    0.3974   -7.0711   27.5149 C   0  0  0  0  0  0  0  0  0  0  0  0
    2.5338   -7.6891   16.0102 C   0  0  0  0  0  0  0  0  0  0  0  0
    4.8690   -7.4380   26.4151 C   0  0  0  0  0  0  0  0  0  0  0  0
    2.3021   -5.6726   26.0378 C   0  0  0  0  0  0  0  0  0  0  0  0
    7.0880   -4.6163   27.0010 C   0  0  0  0  0  0  0  0  0  0  0  0
    8.3117   -4.3698   27.4436 C   0  0  0  0  0  0  0  0  0  0  0  0
    1.1339   -5.0515   26.3541 C   0  0  0  0  0  0  0  0  0  0  0  0
    4.8080   -8.0362   16.7101 C   0  0  0  0  0  0  0  0  0  0  0  0
   -1.2173   -3.9294   26.9717 O   0  0  0  0  0  0  0  0  0  0  0  0
   -1.0025   -5.0942   27.4586 C   0  0  0  0  0  0  0  0  0  0  0  0
    2.2474   -8.9123   16.6273 C   0  0  0  0  0  0  0  0  0  0  0  0
    4.4957   -9.2636   17.3041 C   0  0  0  0  0  0  0  0  0  0  0  0
   -1.8070   -5.6086   28.1920 O   0  0  0  0  0  0  0  0  0  0  0  0
   10.4296   -5.1799   28.3140 C   0  0  0  0  0  0  0  0  0  0  0  0
    6.6017   -5.9004   26.9187 C   0  0  0  0  0  0  0  0  0  0  0  0
    2.4761   -6.9940   26.4111 N   0  0  0  0  0  0  0  0  0  0  0  0
    9.1353   -5.4053   27.8239 C   0  0  0  0  0  0  0  0  0  0  0  0
    0.9922   -9.3232   16.5995 O   0  0  0  0  0  0  0  0  0  0  0  0
    1.5232   -7.6869   27.1182 C   0  0  0  0  0  0  0  0  0  0  0  0
    8.6878   -6.6715   27.7262 N   0  0  0  0  0  0  0  0  0  0  0  0
    6.9911   -8.2423   27.1808 C   0  0  0  0  0  0  0  0  0  0  0  0
    3.8436   -7.2758   16.0578 C   0  0  0  0  0  0  0  0  0  0  0  0
    3.1882   -9.7190   17.2566 C   0  0  0  0  0  0  0  0  0  0  0  0
    5.3488   -6.1737   26.5092 C   0  0  0  0  0  0  0  0  0  0  0  0
    7.4567   -6.9464   27.2858 C   0  0  0  0  0  0  0  0  0  0  0  0
    0.1921   -5.7592   27.1123 C   0  0  0  0  0  0  0  0  0  0  0  0
    3.5517   -7.7407   25.9711 C   0  0  0  0  0  0  0  0  0  0  0  0
  1  4  4  0
  1 22  4  0
  2 20  4  0
  2 27  4  0
  3 12  4  0
  3 23  4  0
  4 25  4  0
  4 28  1  0
  5  8  4  0
  5 17  4  0
  6  7  4  0
  6 16  4  0
  7 18  4  0
  8 27  4  0
  9 13  4  0
  9 23  4  0
 10 11  1  0
 11 14  2  0
 11 27  1  0
 12 19  1  0
 12 24  4  0
 13 24  4  0
 15 18  1  0
 16 25  4  0
 16 26  4  0
 17 20  4  0
 17 28  1  0
 18 21  4  0
 21 26  4  0
 22 26  4  0
M  END
$$$$

 Created by Python create_sdf_string function

 28 30  0  0  0  0  0  0  0  0999 V2000
    5.7174   -8.4529   26.7190 C   0  0  0  0  0  0  0  0  0  0  0  0
    0.3974   -7.0711   27.5149 C   0  0  0  0  0  0  0  0  0  0  0  0
    2.5338   -7.6891   16.0102 C   0  0  0  0  0  0  0  0  0  0  0  0
    4.8690   -7.4380   26.4151 C   0  0  0  0  0  0  0  0  0  0  0  0
    2.3021   -5.6726   26.0378 C   0  0  0  0  0  0  0  0  0  0  0  0
    7.0880   -4.6163   27.0010 C   0  0  0  0  0  0  0  0  0  0  0  0
    8.3117   -4.3698   27.4436 C   0  0  0  0  0  0  0  0  0  0  0  0
    1.1339   -5.0515   26.3541 C   0  0  0  0  0  0  0  0  0  0  0  0
    4.8080   -8.0362   16.7101 C   0  0  0  0  0  0  0  0  0  0  0  0
   -1.2173   -3.9294   26.9717 O   0  0  0  0  0  0  0  0  0  0  0  0
   -1.0025   -5.0942   27.4586 C   0  0  0  0  0  0  0  0  0  0  0  0
    2.2474   -8.9123   16.6273 C   0  0  0  0  0  0  0  0  0  0  0  0
    4.4957   -9.2636   17.3041 C   0  0  0  0  0  0  0  0  0  0  0  0
   -1.8070   -5.6086   28.1920 O   0  0  0  0  0  0  0  0  0  0  0  0
   10.4296   -5.1799   28.3140 C   0  0  0  0  0  0  0  0  0  0  0  0
    6.6017   -5.9004   26.9187 C   0  0  0  0  0  0  0  0  0  0  0  0
    2.4761   -6.9940   26.4111 N   0  0  0  0  0  0  0  0  0  0  0  0
    9.1353   -5.4053   27.8239 C   0  0  0  0  0  0  0  0  0  0  0  0
    0.9922   -9.3232   16.5995 O   0  0  0  0  0  0  0  0  0  0  0  0
    1.5232   -7.6869   27.1182 C   0  0  0  0  0  0  0  0  0  0  0  0
    8.6878   -6.6715   27.7262 N   0  0  0  0  0  0  0  0  0  0  0  0
    6.9911   -8.2423   27.1808 C   0  0  0  0  0  0  0  0  0  0  0  0
    3.8436   -7.2758   16.0578 C   0  0  0  0  0  0  0  0  0  0  0  0
    3.1882   -9.7190   17.2566 C   0  0  0  0  0  0  0  0  0  0  0  0
    5.3488   -6.1737   26.5092 C   0  0  0  0  0  0  0  0  0  0  0  0
    7.4567   -6.9464   27.2858 C   0  0  0  0  0  0  0  0  0  0  0  0
    0.1921   -5.7592   27.1123 C   0  0  0  0  0  0  0  0  0  0  0  0
    3.5517   -7.7407   25.9711 C   0  0  0  0  0  0  0  0  0  0  0  0
  1  4  4  0
  1 22  4  0
  2 20  4  0
  2 27  4  0
  3 12  4  0
  3 23  4  0
  4 25  4  0
  4 28  1  0
  5  8  4  0
  5 17  4  0
  6  7  4  0
  6 16  4  0
  7 18  4  0
  8 27  4  0
  9 13  4  0
  9 23  4  0
 10 11  1  0
 11 14  2  0
 11 27  1  0
 12 19  1  0
 12 24  4  0
 13 24  4  0
 15 18  1  0
 16 25  4  0
 16 26  4  0
 17 20  4  0
 17 28  1  0
 18 21  4  0
 21 26  4  0
 22 26  4  0
M  END
$$$$

 Created by Python create_sdf_string function

 28 30  0  0  0  0  0  0  0  0999 V2000
    5.7174   -8.4529   26.7190 C   0  0  0  0  0  0  0  0  0  0  0  0
    0.3974   -7.0711   27.5149 C   0  0  0  0  0  0  0  0  0  0  0  0
    2.5338   -7.6891   16.0102 C   0  0  0  0  0  0  0  0  0  0  0  0
    4.8690   -7.4380   26.4151 C   0  0  0  0  0  0  0  0  0  0  0  0
    2.3021   -5.6726   26.0378 C   0  0  0  0  0  0  0  0  0  0  0  0
    7.0880   -4.6163   27.0010 C   0  0  0  0  0  0  0  0  0  0  0  0
    8.3117   -4.3698   27.4436 C   0  0  0  0  0  0  0  0  0  0  0  0
    1.1339   -5.0515   26.3541 C   0  0  0  0  0  0  0  0  0  0  0  0
    4.8080   -8.0362   16.7101 C   0  0  0  0  0  0  0  0  0  0  0  0
   -1.2173   -3.9294   26.9717 O   0  0  0  0  0  0  0  0  0  0  0  0
   -1.0025   -5.0942   27.4586 C   0  0  0  0  0  0  0  0  0  0  0  0
    2.2474   -8.9123   16.6273 C   0  0  0  0  0  0  0  0  0  0  0  0
    4.4957   -9.2636   17.3041 C   0  0  0  0  0  0  0  0  0  0  0  0
   -1.8070   -5.6086   28.1920 O   0  0  0  0  0  0  0  0  0  0  0  0
   10.4296   -5.1799   28.3140 C   0  0  0  0  0  0  0  0  0  0  0  0
    6.6017   -5.9004   26.9187 C   0  0  0  0  0  0  0  0  0  0  0  0
    2.4761   -6.9940   26.4111 N   0  0  0  0  0  0  0  0  0  0  0  0
    9.1353   -5.4053   27.8239 C   0  0  0  0  0  0  0  0  0  0  0  0
    0.9922   -9.3232   16.5995 O   0  0  0  0  0  0  0  0  0  0  0  0
    1.5232   -7.6869   27.1182 C   0  0  0  0  0  0  0  0  0  0  0  0
    8.6878   -6.6715   27.7262 N   0  0  0  0  0  0  0  0  0  0  0  0
    6.9911   -8.2423   27.1808 C   0  0  0  0  0  0  0  0  0  0  0  0
    3.8436   -7.2758   16.0578 C   0  0  0  0  0  0  0  0  0  0  0  0
    3.1882   -9.7190   17.2566 C   0  0  0  0  0  0  0  0  0  0  0  0
    5.3488   -6.1737   26.5092 C   0  0  0  0  0  0  0  0  0  0  0  0
    7.4567   -6.9464   27.2858 C   0  0  0  0  0  0  0  0  0  0  0  0
    0.1921   -5.7592   27.1123 C   0  0  0  0  0  0  0  0  0  0  0  0
    3.5517   -7.7407   25.9711 C   0  0  0  0  0  0  0  0  0  0  0  0
  1  4  4  0
  1 22  4  0
  2 20  4  0
  2 27  4  0
  3 12  4  0
  3 23  4  0
  4 25  4  0
  4 28  1  0
  5  8  4  0
  5 17  4  0
  6  7  4  0
  6 16  4  0
  7 18  4  0
  8 27  4  0
  9 13  4  0
  9 23  4  0
 10 11  1  0
 11 14  2  0
 11 27  1  0
 12 19  1  0
 12 24  4  0
 13 24  4  0
 15 18  1  0
 16 25  4  0
 16 26  4  0
 17 20  4  0
 17 28  1  0
 18 21  4  0
 21 26  4  0
 22 26  4  0
M  END
$$$$

 Created by Python create_sdf_string function

 28 30  0  0  0  0  0  0  0  0999 V2000
    5.7174   -8.4529   26.7190 C   0  0  0  0  0  0  0  0  0  0  0  0
    0.3974   -7.0711   27.5149 C   0  0  0  0  0  0  0  0  0  0  0  0
    2.5338   -7.6891   16.0102 C   0  0  0  0  0  0  0  0  0  0  0  0
    4.8690   -7.4380   26.4151 C   0  0  0  0  0  0  0  0  0  0  0  0
    2.3021   -5.6726   26.0378 C   0  0  0  0  0  0  0  0  0  0  0  0
    7.0880   -4.6163   27.0010 C   0  0  0  0  0  0  0  0  0  0  0  0
    8.3117   -4.3698   27.4436 C   0  0  0  0  0  0  0  0  0  0  0  0
    1.1339   -5.0515   26.3541 C   0  0  0  0  0  0  0  0  0  0  0  0
    4.8080   -8.0362   16.7101 C   0  0  0  0  0  0  0  0  0  0  0  0
   -1.2173   -3.9294   26.9717 O   0  0  0  0  0  0  0  0  0  0  0  0
   -1.0025   -5.0942   27.4586 C   0  0  0  0  0  0  0  0  0  0  0  0
    2.2474   -8.9123   16.6273 C   0  0  0  0  0  0  0  0  0  0  0  0
    4.4957   -9.2636   17.3041 C   0  0  0  0  0  0  0  0  0  0  0  0
   -1.8070   -5.6086   28.1920 O   0  0  0  0  0  0  0  0  0  0  0  0
   10.4296   -5.1799   28.3140 C   0  0  0  0  0  0  0  0  0  0  0  0
    6.6017   -5.9004   26.9187 C   0  0  0  0  0  0  0  0  0  0  0  0
    2.4761   -6.9940   26.4111 N   0  0  0  0  0  0  0  0  0  0  0  0
    9.1353   -5.4053   27.8239 C   0  0  0  0  0  0  0  0  0  0  0  0
    0.9922   -9.3232   16.5995 O   0  0  0  0  0  0  0  0  0  0  0  0
    1.5232   -7.6869   27.1182 C   0  0  0  0  0  0  0  0  0  0  0  0
    8.6878   -6.6715   27.7262 N   0  0  0  0  0  0  0  0  0  0  0  0
    6.9911   -8.2423   27.1808 C   0  0  0  0  0  0  0  0  0  0  0  0
    3.8436   -7.2758   16.0578 C   0  0  0  0  0  0  0  0  0  0  0  0
    3.1882   -9.7190   17.2566 C   0  0  0  0  0  0  0  0  0  0  0  0
    5.3488   -6.1737   26.5092 C   0  0  0  0  0  0  0  0  0  0  0  0
    7.4567   -6.9464   27.2858 C   0  0  0  0  0  0  0  0  0  0  0  0
    0.1921   -5.7592   27.1123 C   0  0  0  0  0  0  0  0  0  0  0  0
    3.5517   -7.7407   25.9711 C   0  0  0  0  0  0  0  0  0  0  0  0
  1  4  4  0
  1 22  4  0
  2 20  4  0
  2 27  4  0
  3 12  4  0
  3 23  4  0
  4 25  4  0
  4 28  1  0
  5  8  4  0
  5 17  4  0
  6  7  4  0
  6 16  4  0
  7 18  4  0
  8 27  4  0
  9 13  4  0
  9 23  4  0
 10 11  1  0
 11 14  2  0
 11 27  1  0
 12 19  1  0
 12 24  4  0
 13 24  4  0
 15 18  1  0
 16 25  4  0
 16 26  4  0
 17 20  4  0
 17 28  1  0
 18 21  4  0
 21 26  4  0
 22 26  4  0
M  END
$$$$

 Created by Python create_sdf_string function

 28 30  0  0  0  0  0  0  0  0999 V2000
    5.7174   -8.4529   26.7190 C   0  0  0  0  0  0  0  0  0  0  0  0
    0.3974   -7.0711   27.5149 C   0  0  0  0  0  0  0  0  0  0  0  0
    2.5338   -7.6891   16.0102 C   0  0  0  0  0  0  0  0  0  0  0  0
    4.8690   -7.4380   26.4151 C   0  0  0  0  0  0  0  0  0  0  0  0
    2.3021   -5.6726   26.0378 C   0  0  0  0  0  0  0  0  0  0  0  0
    7.0880   -4.6163   27.0010 C   0  0  0  0  0  0  0  0  0  0  0  0
    8.3117   -4.3698   27.4436 C   0  0  0  0  0  0  0  0  0  0  0  0
    1.1339   -5.0515   26.3541 C   0  0  0  0  0  0  0  0  0  0  0  0
    4.8080   -8.0362   16.7101 C   0  0  0  0  0  0  0  0  0  0  0  0
   -1.2173   -3.9294   26.9717 O   0  0  0  0  0  0  0  0  0  0  0  0
   -1.0025   -5.0942   27.4586 C   0  0  0  0  0  0  0  0  0  0  0  0
    2.2474   -8.9123   16.6273 C   0  0  0  0  0  0  0  0  0  0  0  0
    4.4957   -9.2636   17.3041 C   0  0  0  0  0  0  0  0  0  0  0  0
   -1.8070   -5.6086   28.1920 O   0  0  0  0  0  0  0  0  0  0  0  0
   10.4296   -5.1799   28.3140 C   0  0  0  0  0  0  0  0  0  0  0  0
    6.6017   -5.9004   26.9187 C   0  0  0  0  0  0  0  0  0  0  0  0
    2.4761   -6.9940   26.4111 N   0  0  0  0  0  0  0  0  0  0  0  0
    9.1353   -5.4053   27.8239 C   0  0  0  0  0  0  0  0  0  0  0  0
    0.9922   -9.3232   16.5995 O   0  0  0  0  0  0  0  0  0  0  0  0
    1.5232   -7.6869   27.1182 C   0  0  0  0  0  0  0  0  0  0  0  0
    8.6878   -6.6715   27.7262 N   0  0  0  0  0  0  0  0  0  0  0  0
    6.9911   -8.2423   27.1808 C   0  0  0  0  0  0  0  0  0  0  0  0
    3.8436   -7.2758   16.0578 C   0  0  0  0  0  0  0  0  0  0  0  0
    3.1882   -9.7190   17.2566 C   0  0  0  0  0  0  0  0  0  0  0  0
    5.3488   -6.1737   26.5092 C   0  0  0  0  0  0  0  0  0  0  0  0
    7.4567   -6.9464   27.2858 C   0  0  0  0  0  0  0  0  0  0  0  0
    0.1921   -5.7592   27.1123 C   0  0  0  0  0  0  0  0  0  0  0  0
    3.5517   -7.7407   25.9711 C   0  0  0  0  0  0  0  0  0  0  0  0
  1  4  4  0
  1 22  4  0
  2 20  4  0
  2 27  4  0
  3 12  4  0
  3 23  4  0
  4 25  4  0
  4 28  1  0
  5  8  4  0
  5 17  4  0
  6  7  4  0
  6 16  4  0
  7 18  4  0
  8 27  4  0
  9 13  4  0
  9 23  4  0
 10 11  1  0
 11 14  2  0
 11 27  1  0
 12 19  1  0
 12 24  4  0
 13 24  4  0
 15 18  1  0
 16 25  4  0
 16 26  4  0
 17 20  4  0
 17 28  1  0
 18 21  4  0
 21 26  4  0
 22 26  4  0
M  END
$$$$

 Created by Python create_sdf_string function

 28 30  0  0  0  0  0  0  0  0999 V2000
    5.7174   -8.4529   26.7190 C   0  0  0  0  0  0  0  0  0  0  0  0
    0.3974   -7.0711   27.5149 C   0  0  0  0  0  0  0  0  0  0  0  0
    2.5338   -7.6891   16.0102 C   0  0  0  0  0  0  0  0  0  0  0  0
    4.8690   -7.4380   26.4151 C   0  0  0  0  0  0  0  0  0  0  0  0
    2.3021   -5.6726   26.0378 C   0  0  0  0  0  0  0  0  0  0  0  0
    7.0880   -4.6163   27.0010 C   0  0  0  0  0  0  0  0  0  0  0  0
    8.3117   -4.3698   27.4436 C   0  0  0  0  0  0  0  0  0  0  0  0
    1.1339   -5.0515   26.3541 C   0  0  0  0  0  0  0  0  0  0  0  0
    4.8080   -8.0362   16.7101 C   0  0  0  0  0  0  0  0  0  0  0  0
   -1.2173   -3.9294   26.9717 O   0  0  0  0  0  0  0  0  0  0  0  0
   -1.0025   -5.0942   27.4586 C   0  0  0  0  0  0  0  0  0  0  0  0
    2.2474   -8.9123   16.6273 C   0  0  0  0  0  0  0  0  0  0  0  0
    4.4957   -9.2636   17.3041 C   0  0  0  0  0  0  0  0  0  0  0  0
   -1.8070   -5.6086   28.1920 O   0  0  0  0  0  0  0  0  0  0  0  0
   10.4296   -5.1799   28.3140 C   0  0  0  0  0  0  0  0  0  0  0  0
    6.6017   -5.9004   26.9187 C   0  0  0  0  0  0  0  0  0  0  0  0
    2.4761   -6.9940   26.4111 N   0  0  0  0  0  0  0  0  0  0  0  0
    9.1353   -5.4053   27.8239 C   0  0  0  0  0  0  0  0  0  0  0  0
    0.9922   -9.3232   16.5995 O   0  0  0  0  0  0  0  0  0  0  0  0
    1.5232   -7.6869   27.1182 C   0  0  0  0  0  0  0  0  0  0  0  0
    8.6878   -6.6715   27.7262 N   0  0  0  0  0  0  0  0  0  0  0  0
    6.9911   -8.2423   27.1808 C   0  0  0  0  0  0  0  0  0  0  0  0
    3.8436   -7.2758   16.0578 C   0  0  0  0  0  0  0  0  0  0  0  0
    3.1882   -9.7190   17.2566 C   0  0  0  0  0  0  0  0  0  0  0  0
    5.3488   -6.1737   26.5092 C   0  0  0  0  0  0  0  0  0  0  0  0
    7.4567   -6.9464   27.2858 C   0  0  0  0  0  0  0  0  0  0  0  0
    0.1921   -5.7592   27.1123 C   0  0  0  0  0  0  0  0  0  0  0  0
    3.5517   -7.7407   25.9711 C   0  0  0  0  0  0  0  0  0  0  0  0
  1  4  4  0
  1 22  4  0
  2 20  4  0
  2 27  4  0
  3 12  4  0
  3 23  4  0
  4 25  4  0
  4 28  1  0
  5  8  4  0
  5 17  4  0
  6  7  4  0
  6 16  4  0
  7 18  4  0
  8 27  4  0
  9 13  4  0
  9 23  4  0
 10 11  1  0
 11 14  2  0
 11 27  1  0
 12 19  1  0
 12 24  4  0
 13 24  4  0
 15 18  1  0
 16 25  4  0
 16 26  4  0
 17 20  4  0
 17 28  1  0
 18 21  4  0
 21 26  4  0
 22 26  4  0
M  END
$$$$

 Created by Python create_sdf_string function

 28 30  0  0  0  0  0  0  0  0999 V2000
    5.7174   -8.4529   26.7190 C   0  0  0  0  0  0  0  0  0  0  0  0
    0.3974   -7.0711   27.5149 C   0  0  0  0  0  0  0  0  0  0  0  0
    2.5338   -7.6891   16.0102 C   0  0  0  0  0  0  0  0  0  0  0  0
    4.8690   -7.4380   26.4151 C   0  0  0  0  0  0  0  0  0  0  0  0
    2.3021   -5.6726   26.0378 C   0  0  0  0  0  0  0  0  0  0  0  0
    7.0880   -4.6163   27.0010 C   0  0  0  0  0  0  0  0  0  0  0  0
    8.3117   -4.3698   27.4436 C   0  0  0  0  0  0  0  0  0  0  0  0
    1.1339   -5.0515   26.3541 C   0  0  0  0  0  0  0  0  0  0  0  0
    4.8080   -8.0362   16.7101 C   0  0  0  0  0  0  0  0  0  0  0  0
   -1.2173   -3.9294   26.9717 O   0  0  0  0  0  0  0  0  0  0  0  0
   -1.0025   -5.0942   27.4586 C   0  0  0  0  0  0  0  0  0  0  0  0
    2.2474   -8.9123   16.6273 C   0  0  0  0  0  0  0  0  0  0  0  0
    4.4957   -9.2636   17.3041 C   0  0  0  0  0  0  0  0  0  0  0  0
   -1.8070   -5.6086   28.1920 O   0  0  0  0  0  0  0  0  0  0  0  0
   10.4296   -5.1799   28.3140 C   0  0  0  0  0  0  0  0  0  0  0  0
    6.6017   -5.9004   26.9187 C   0  0  0  0  0  0  0  0  0  0  0  0
    2.4761   -6.9940   26.4111 N   0  0  0  0  0  0  0  0  0  0  0  0
    9.1353   -5.4053   27.8239 C   0  0  0  0  0  0  0  0  0  0  0  0
    0.9922   -9.3232   16.5995 O   0  0  0  0  0  0  0  0  0  0  0  0
    1.5232   -7.6869   27.1182 C   0  0  0  0  0  0  0  0  0  0  0  0
    8.6878   -6.6715   27.7262 N   0  0  0  0  0  0  0  0  0  0  0  0
    6.9911   -8.2423   27.1808 C   0  0  0  0  0  0  0  0  0  0  0  0
    3.8436   -7.2758   16.0578 C   0  0  0  0  0  0  0  0  0  0  0  0
    3.1882   -9.7190   17.2566 C   0  0  0  0  0  0  0  0  0  0  0  0
    5.3488   -6.1737   26.5092 C   0  0  0  0  0  0  0  0  0  0  0  0
    7.4567   -6.9464   27.2858 C   0  0  0  0  0  0  0  0  0  0  0  0
    0.1921   -5.7592   27.1123 C   0  0  0  0  0  0  0  0  0  0  0  0
    3.5517   -7.7407   25.9711 C   0  0  0  0  0  0  0  0  0  0  0  0
  1  4  4  0
  1 22  4  0
  2 20  4  0
  2 27  4  0
  3 12  4  0
  3 23  4  0
  4 25  4  0
  4 28  1  0
  5  8  4  0
  5 17  4  0
  6  7  4  0
  6 16  4  0
  7 18  4  0
  8 27  4  0
  9 13  4  0
  9 23  4  0
 10 11  1  0
 11 14  2  0
 11 27  1  0
 12 19  1  0
 12 24  4  0
 13 24  4  0
 15 18  1  0
 16 25  4  0
 16 26  4  0
 17 20  4  0
 17 28  1  0
 18 21  4  0
 21 26  4  0
 22 26  4  0
M  END
$$$$

 Created by Python create_sdf_string function

 28 30  0  0  0  0  0  0  0  0999 V2000
    5.7174   -8.4529   26.7190 C   0  0  0  0  0  0  0  0  0  0  0  0
    0.3974   -7.0711   27.5149 C   0  0  0  0  0  0  0  0  0  0  0  0
    2.5338   -7.6891   16.0102 C   0  0  0  0  0  0  0  0  0  0  0  0
    4.8690   -7.4380   26.4151 C   0  0  0  0  0  0  0  0  0  0  0  0
    2.3021   -5.6726   26.0378 C   0  0  0  0  0  0  0  0  0  0  0  0
    7.0880   -4.6163   27.0010 C   0  0  0  0  0  0  0  0  0  0  0  0
    8.3117   -4.3698   27.4436 C   0  0  0  0  0  0  0  0  0  0  0  0
    1.1339   -5.0515   26.3541 C   0  0  0  0  0  0  0  0  0  0  0  0
    4.8080   -8.0362   16.7101 C   0  0  0  0  0  0  0  0  0  0  0  0
   -1.2173   -3.9294   26.9717 O   0  0  0  0  0  0  0  0  0  0  0  0
   -1.0025   -5.0942   27.4586 C   0  0  0  0  0  0  0  0  0  0  0  0
    2.2474   -8.9123   16.6273 C   0  0  0  0  0  0  0  0  0  0  0  0
    4.4957   -9.2636   17.3041 C   0  0  0  0  0  0  0  0  0  0  0  0
   -1.8070   -5.6086   28.1920 O   0  0  0  0  0  0  0  0  0  0  0  0
   10.4296   -5.1799   28.3140 C   0  0  0  0  0  0  0  0  0  0  0  0
    6.6017   -5.9004   26.9187 C   0  0  0  0  0  0  0  0  0  0  0  0
    2.4761   -6.9940   26.4111 N   0  0  0  0  0  0  0  0  0  0  0  0
    9.1353   -5.4053   27.8239 C   0  0  0  0  0  0  0  0  0  0  0  0
    0.9922   -9.3232   16.5995 O   0  0  0  0  0  0  0  0  0  0  0  0
    1.5232   -7.6869   27.1182 C   0  0  0  0  0  0  0  0  0  0  0  0
    8.6878   -6.6715   27.7262 N   0  0  0  0  0  0  0  0  0  0  0  0
    6.9911   -8.2423   27.1808 C   0  0  0  0  0  0  0  0  0  0  0  0
    3.8436   -7.2758   16.0578 C   0  0  0  0  0  0  0  0  0  0  0  0
    3.1882   -9.7190   17.2566 C   0  0  0  0  0  0  0  0  0  0  0  0
    5.3488   -6.1737   26.5092 C   0  0  0  0  0  0  0  0  0  0  0  0
    7.4567   -6.9464   27.2858 C   0  0  0  0  0  0  0  0  0  0  0  0
    0.1921   -5.7592   27.1123 C   0  0  0  0  0  0  0  0  0  0  0  0
    3.5517   -7.7407   25.9711 C   0  0  0  0  0  0  0  0  0  0  0  0
  1  4  4  0
  1 22  4  0
  2 20  4  0
  2 27  4  0
  3 12  4  0
  3 23  4  0
  4 25  4  0
  4 28  1  0
  5  8  4  0
  5 17  4  0
  6  7  4  0
  6 16  4  0
  7 18  4  0
  8 27  4  0
  9 13  4  0
  9 23  4  0
 10 11  1  0
 11 14  2  0
 11 27  1  0
 12 19  1  0
 12 24  4  0
 13 24  4  0
 15 18  1  0
 16 25  4  0
 16 26  4  0
 17 20  4  0
 17 28  1  0
 18 21  4  0
 21 26  4  0
 22 26  4  0
M  END
$$$$

 Created by Python create_sdf_string function

 28 30  0  0  0  0  0  0  0  0999 V2000
    5.7174   -8.4529   26.7190 C   0  0  0  0  0  0  0  0  0  0  0  0
    0.3974   -7.0711   27.5149 C   0  0  0  0  0  0  0  0  0  0  0  0
    2.5338   -7.6891   16.0102 C   0  0  0  0  0  0  0  0  0  0  0  0
    4.8690   -7.4380   26.4151 C   0  0  0  0  0  0  0  0  0  0  0  0
    2.3021   -5.6726   26.0378 C   0  0  0  0  0  0  0  0  0  0  0  0
    7.0880   -4.6163   27.0010 C   0  0  0  0  0  0  0  0  0  0  0  0
    8.3117   -4.3698   27.4436 C   0  0  0  0  0  0  0  0  0  0  0  0
    1.1339   -5.0515   26.3541 C   0  0  0  0  0  0  0  0  0  0  0  0
    4.8080   -8.0362   16.7101 C   0  0  0  0  0  0  0  0  0  0  0  0
   -1.2173   -3.9294   26.9717 O   0  0  0  0  0  0  0  0  0  0  0  0
   -1.0025   -5.0942   27.4586 C   0  0  0  0  0  0  0  0  0  0  0  0
    2.2474   -8.9123   16.6273 C   0  0  0  0  0  0  0  0  0  0  0  0
    4.4957   -9.2636   17.3041 C   0  0  0  0  0  0  0  0  0  0  0  0
   -1.8070   -5.6086   28.1920 O   0  0  0  0  0  0  0  0  0  0  0  0
   10.4296   -5.1799   28.3140 C   0  0  0  0  0  0  0  0  0  0  0  0
    6.6017   -5.9004   26.9187 C   0  0  0  0  0  0  0  0  0  0  0  0
    2.4761   -6.9940   26.4111 N   0  0  0  0  0  0  0  0  0  0  0  0
    9.1353   -5.4053   27.8239 C   0  0  0  0  0  0  0  0  0  0  0  0
    0.9922   -9.3232   16.5995 O   0  0  0  0  0  0  0  0  0  0  0  0
    1.5232   -7.6869   27.1182 C   0  0  0  0  0  0  0  0  0  0  0  0
    8.6878   -6.6715   27.7262 N   0  0  0  0  0  0  0  0  0  0  0  0
    6.9911   -8.2423   27.1808 C   0  0  0  0  0  0  0  0  0  0  0  0
    3.8436   -7.2758   16.0578 C   0  0  0  0  0  0  0  0  0  0  0  0
    3.1882   -9.7190   17.2566 C   0  0  0  0  0  0  0  0  0  0  0  0
    5.3488   -6.1737   26.5092 C   0  0  0  0  0  0  0  0  0  0  0  0
    7.4567   -6.9464   27.2858 C   0  0  0  0  0  0  0  0  0  0  0  0
    0.1921   -5.7592   27.1123 C   0  0  0  0  0  0  0  0  0  0  0  0
    3.5517   -7.7407   25.9711 C   0  0  0  0  0  0  0  0  0  0  0  0
  1  4  4  0
  1 22  4  0
  2 20  4  0
  2 27  4  0
  3 12  4  0
  3 23  4  0
  4 25  4  0
  4 28  1  0
  5  8  4  0
  5 17  4  0
  6  7  4  0
  6 16  4  0
  7 18  4  0
  8 27  4  0
  9 13  4  0
  9 23  4  0
 10 11  1  0
 11 14  2  0
 11 27  1  0
 12 19  1  0
 12 24  4  0
 13 24  4  0
 15 18  1  0
 16 25  4  0
 16 26  4  0
 17 20  4  0
 17 28  1  0
 18 21  4  0
 21 26  4  0
 22 26  4  0
M  END
$$$$

 Created by Python create_sdf_string function

 28 30  0  0  0  0  0  0  0  0999 V2000
    5.7174   -8.4529   26.7190 C   0  0  0  0  0  0  0  0  0  0  0  0
    0.3974   -7.0711   27.5149 C   0  0  0  0  0  0  0  0  0  0  0  0
    2.5338   -7.6891   16.0102 C   0  0  0  0  0  0  0  0  0  0  0  0
    4.8690   -7.4380   26.4151 C   0  0  0  0  0  0  0  0  0  0  0  0
    2.3021   -5.6726   26.0378 C   0  0  0  0  0  0  0  0  0  0  0  0
    7.0880   -4.6163   27.0010 C   0  0  0  0  0  0  0  0  0  0  0  0
    8.3117   -4.3698   27.4436 C   0  0  0  0  0  0  0  0  0  0  0  0
    1.1339   -5.0515   26.3541 C   0  0  0  0  0  0  0  0  0  0  0  0
    4.8080   -8.0362   16.7101 C   0  0  0  0  0  0  0  0  0  0  0  0
   -1.2173   -3.9294   26.9717 O   0  0  0  0  0  0  0  0  0  0  0  0
   -1.0025   -5.0942   27.4586 C   0  0  0  0  0  0  0  0  0  0  0  0
    2.2474   -8.9123   16.6273 C   0  0  0  0  0  0  0  0  0  0  0  0
    4.4957   -9.2636   17.3041 C   0  0  0  0  0  0  0  0  0  0  0  0
   -1.8070   -5.6086   28.1920 O   0  0  0  0  0  0  0  0  0  0  0  0
   10.4296   -5.1799   28.3140 C   0  0  0  0  0  0  0  0  0  0  0  0
    6.6017   -5.9004   26.9187 C   0  0  0  0  0  0  0  0  0  0  0  0
    2.4761   -6.9940   26.4111 N   0  0  0  0  0  0  0  0  0  0  0  0
    9.1353   -5.4053   27.8239 C   0  0  0  0  0  0  0  0  0  0  0  0
    0.9922   -9.3232   16.5995 O   0  0  0  0  0  0  0  0  0  0  0  0
    1.5232   -7.6869   27.1182 C   0  0  0  0  0  0  0  0  0  0  0  0
    8.6878   -6.6715   27.7262 N   0  0  0  0  0  0  0  0  0  0  0  0
    6.9911   -8.2423   27.1808 C   0  0  0  0  0  0  0  0  0  0  0  0
    3.8436   -7.2758   16.0578 C   0  0  0  0  0  0  0  0  0  0  0  0
    3.1882   -9.7190   17.2566 C   0  0  0  0  0  0  0  0  0  0  0  0
    5.3488   -6.1737   26.5092 C   0  0  0  0  0  0  0  0  0  0  0  0
    7.4567   -6.9464   27.2858 C   0  0  0  0  0  0  0  0  0  0  0  0
    0.1921   -5.7592   27.1123 C   0  0  0  0  0  0  0  0  0  0  0  0
    3.5517   -7.7407   25.9711 C   0  0  0  0  0  0  0  0  0  0  0  0
  1  4  4  0
  1 22  4  0
  2 20  4  0
  2 27  4  0
  3 12  4  0
  3 23  4  0
  4 25  4  0
  4 28  1  0
  5  8  4  0
  5 17  4  0
  6  7  4  0
  6 16  4  0
  7 18  4  0
  8 27  4  0
  9 13  4  0
  9 23  4  0
 10 11  1  0
 11 14  2  0
 11 27  1  0
 12 19  1  0
 12 24  4  0
 13 24  4  0
 15 18  1  0
 16 25  4  0
 16 26  4  0
 17 20  4  0
 17 28  1  0
 18 21  4  0
 21 26  4  0
 22 26  4  0
M  END
$$$$

 Created by Python create_sdf_string function

 28 30  0  0  0  0  0  0  0  0999 V2000
    5.7174   -8.4529   26.7190 C   0  0  0  0  0  0  0  0  0  0  0  0
    0.3974   -7.0711   27.5149 C   0  0  0  0  0  0  0  0  0  0  0  0
    2.5338   -7.6891   16.0102 C   0  0  0  0  0  0  0  0  0  0  0  0
    4.8690   -7.4380   26.4151 C   0  0  0  0  0  0  0  0  0  0  0  0
    2.3021   -5.6726   26.0378 C   0  0  0  0  0  0  0  0  0  0  0  0
    7.0880   -4.6163   27.0010 C   0  0  0  0  0  0  0  0  0  0  0  0
    8.3117   -4.3698   27.4436 C   0  0  0  0  0  0  0  0  0  0  0  0
    1.1339   -5.0515   26.3541 C   0  0  0  0  0  0  0  0  0  0  0  0
    4.8080   -8.0362   16.7101 C   0  0  0  0  0  0  0  0  0  0  0  0
   -1.2173   -3.9294   26.9717 O   0  0  0  0  0  0  0  0  0  0  0  0
   -1.0025   -5.0942   27.4586 C   0  0  0  0  0  0  0  0  0  0  0  0
    2.2474   -8.9123   16.6273 C   0  0  0  0  0  0  0  0  0  0  0  0
    4.4957   -9.2636   17.3041 C   0  0  0  0  0  0  0  0  0  0  0  0
   -1.8070   -5.6086   28.1920 O   0  0  0  0  0  0  0  0  0  0  0  0
   10.4296   -5.1799   28.3140 C   0  0  0  0  0  0  0  0  0  0  0  0
    6.6017   -5.9004   26.9187 C   0  0  0  0  0  0  0  0  0  0  0  0
    2.4761   -6.9940   26.4111 N   0  0  0  0  0  0  0  0  0  0  0  0
    9.1353   -5.4053   27.8239 C   0  0  0  0  0  0  0  0  0  0  0  0
    0.9922   -9.3232   16.5995 O   0  0  0  0  0  0  0  0  0  0  0  0
    1.5232   -7.6869   27.1182 C   0  0  0  0  0  0  0  0  0  0  0  0
    8.6878   -6.6715   27.7262 N   0  0  0  0  0  0  0  0  0  0  0  0
    6.9911   -8.2423   27.1808 C   0  0  0  0  0  0  0  0  0  0  0  0
    3.8436   -7.2758   16.0578 C   0  0  0  0  0  0  0  0  0  0  0  0
    3.1882   -9.7190   17.2566 C   0  0  0  0  0  0  0  0  0  0  0  0
    5.3488   -6.1737   26.5092 C   0  0  0  0  0  0  0  0  0  0  0  0
    7.4567   -6.9464   27.2858 C   0  0  0  0  0  0  0  0  0  0  0  0
    0.1921   -5.7592   27.1123 C   0  0  0  0  0  0  0  0  0  0  0  0
    3.5517   -7.7407   25.9711 C   0  0  0  0  0  0  0  0  0  0  0  0
  1  4  4  0
  1 22  4  0
  2 20  4  0
  2 27  4  0
  3 12  4  0
  3 23  4  0
  4 25  4  0
  4 28  1  0
  5  8  4  0
  5 17  4  0
  6  7  4  0
  6 16  4  0
  7 18  4  0
  8 27  4  0
  9 13  4  0
  9 23  4  0
 10 11  1  0
 11 14  2  0
 11 27  1  0
 12 19  1  0
 12 24  4  0
 13 24  4  0
 15 18  1  0
 16 25  4  0
 16 26  4  0
 17 20  4  0
 17 28  1  0
 18 21  4  0
 21 26  4  0
 22 26  4  0
M  END
$$$$

 Created by Python create_sdf_string function

 28 30  0  0  0  0  0  0  0  0999 V2000
    5.7174   -8.4529   26.7190 C   0  0  0  0  0  0  0  0  0  0  0  0
    0.3974   -7.0711   27.5149 C   0  0  0  0  0  0  0  0  0  0  0  0
    2.5338   -7.6891   16.0102 C   0  0  0  0  0  0  0  0  0  0  0  0
    4.8690   -7.4380   26.4151 C   0  0  0  0  0  0  0  0  0  0  0  0
    2.3021   -5.6726   26.0378 C   0  0  0  0  0  0  0  0  0  0  0  0
    7.0880   -4.6163   27.0010 C   0  0  0  0  0  0  0  0  0  0  0  0
    8.3117   -4.3698   27.4436 C   0  0  0  0  0  0  0  0  0  0  0  0
    1.1339   -5.0515   26.3541 C   0  0  0  0  0  0  0  0  0  0  0  0
    4.8080   -8.0362   16.7101 C   0  0  0  0  0  0  0  0  0  0  0  0
   -1.2173   -3.9294   26.9717 O   0  0  0  0  0  0  0  0  0  0  0  0
   -1.0025   -5.0942   27.4586 C   0  0  0  0  0  0  0  0  0  0  0  0
    2.2474   -8.9123   16.6273 C   0  0  0  0  0  0  0  0  0  0  0  0
    4.4957   -9.2636   17.3041 C   0  0  0  0  0  0  0  0  0  0  0  0
   -1.8070   -5.6086   28.1920 O   0  0  0  0  0  0  0  0  0  0  0  0
   10.4296   -5.1799   28.3140 C   0  0  0  0  0  0  0  0  0  0  0  0
    6.6017   -5.9004   26.9187 C   0  0  0  0  0  0  0  0  0  0  0  0
    2.4761   -6.9940   26.4111 N   0  0  0  0  0  0  0  0  0  0  0  0
    9.1353   -5.4053   27.8239 C   0  0  0  0  0  0  0  0  0  0  0  0
    0.9922   -9.3232   16.5995 O   0  0  0  0  0  0  0  0  0  0  0  0
    1.5232   -7.6869   27.1182 C   0  0  0  0  0  0  0  0  0  0  0  0
    8.6878   -6.6715   27.7262 N   0  0  0  0  0  0  0  0  0  0  0  0
    6.9911   -8.2423   27.1808 C   0  0  0  0  0  0  0  0  0  0  0  0
    3.8436   -7.2758   16.0578 C   0  0  0  0  0  0  0  0  0  0  0  0
    3.1882   -9.7190   17.2566 C   0  0  0  0  0  0  0  0  0  0  0  0
    5.3488   -6.1737   26.5092 C   0  0  0  0  0  0  0  0  0  0  0  0
    7.4567   -6.9464   27.2858 C   0  0  0  0  0  0  0  0  0  0  0  0
    0.1921   -5.7592   27.1123 C   0  0  0  0  0  0  0  0  0  0  0  0
    3.5517   -7.7407   25.9711 C   0  0  0  0  0  0  0  0  0  0  0  0
  1  4  4  0
  1 22  4  0
  2 20  4  0
  2 27  4  0
  3 12  4  0
  3 23  4  0
  4 25  4  0
  4 28  1  0
  5  8  4  0
  5 17  4  0
  6  7  4  0
  6 16  4  0
  7 18  4  0
  8 27  4  0
  9 13  4  0
  9 23  4  0
 10 11  1  0
 11 14  2  0
 11 27  1  0
 12 19  1  0
 12 24  4  0
 13 24  4  0
 15 18  1  0
 16 25  4  0
 16 26  4  0
 17 20  4  0
 17 28  1  0
 18 21  4  0
 21 26  4  0
 22 26  4  0
M  END
$$$$

 Created by Python create_sdf_string function

 28 30  0  0  0  0  0  0  0  0999 V2000
    5.7174   -8.4529   26.7190 C   0  0  0  0  0  0  0  0  0  0  0  0
    0.3974   -7.0711   27.5149 C   0  0  0  0  0  0  0  0  0  0  0  0
    2.5338   -7.6891   16.0102 C   0  0  0  0  0  0  0  0  0  0  0  0
    4.8690   -7.4380   26.4151 C   0  0  0  0  0  0  0  0  0  0  0  0
    2.3021   -5.6726   26.0378 C   0  0  0  0  0  0  0  0  0  0  0  0
    7.0880   -4.6163   27.0010 C   0  0  0  0  0  0  0  0  0  0  0  0
    8.3117   -4.3698   27.4436 C   0  0  0  0  0  0  0  0  0  0  0  0
    1.1339   -5.0515   26.3541 C   0  0  0  0  0  0  0  0  0  0  0  0
    4.8080   -8.0362   16.7101 C   0  0  0  0  0  0  0  0  0  0  0  0
   -1.2173   -3.9294   26.9717 O   0  0  0  0  0  0  0  0  0  0  0  0
   -1.0025   -5.0942   27.4586 C   0  0  0  0  0  0  0  0  0  0  0  0
    2.2474   -8.9123   16.6273 C   0  0  0  0  0  0  0  0  0  0  0  0
    4.4957   -9.2636   17.3041 C   0  0  0  0  0  0  0  0  0  0  0  0
   -1.8070   -5.6086   28.1920 O   0  0  0  0  0  0  0  0  0  0  0  0
   10.4296   -5.1799   28.3140 C   0  0  0  0  0  0  0  0  0  0  0  0
    6.6017   -5.9004   26.9187 C   0  0  0  0  0  0  0  0  0  0  0  0
    2.4761   -6.9940   26.4111 N   0  0  0  0  0  0  0  0  0  0  0  0
    9.1353   -5.4053   27.8239 C   0  0  0  0  0  0  0  0  0  0  0  0
    0.9922   -9.3232   16.5995 O   0  0  0  0  0  0  0  0  0  0  0  0
    1.5232   -7.6869   27.1182 C   0  0  0  0  0  0  0  0  0  0  0  0
    8.6878   -6.6715   27.7262 N   0  0  0  0  0  0  0  0  0  0  0  0
    6.9911   -8.2423   27.1808 C   0  0  0  0  0  0  0  0  0  0  0  0
    3.8436   -7.2758   16.0578 C   0  0  0  0  0  0  0  0  0  0  0  0
    3.1882   -9.7190   17.2566 C   0  0  0  0  0  0  0  0  0  0  0  0
    5.3488   -6.1737   26.5092 C   0  0  0  0  0  0  0  0  0  0  0  0
    7.4567   -6.9464   27.2858 C   0  0  0  0  0  0  0  0  0  0  0  0
    0.1921   -5.7592   27.1123 C   0  0  0  0  0  0  0  0  0  0  0  0
    3.5517   -7.7407   25.9711 C   0  0  0  0  0  0  0  0  0  0  0  0
  1  4  4  0
  1 22  4  0
  2 20  4  0
  2 27  4  0
  3 12  4  0
  3 23  4  0
  4 25  4  0
  4 28  1  0
  5  8  4  0
  5 17  4  0
  6  7  4  0
  6 16  4  0
  7 18  4  0
  8 27  4  0
  9 13  4  0
  9 23  4  0
 10 11  1  0
 11 14  2  0
 11 27  1  0
 12 19  1  0
 12 24  4  0
 13 24  4  0
 15 18  1  0
 16 25  4  0
 16 26  4  0
 17 20  4  0
 17 28  1  0
 18 21  4  0
 21 26  4  0
 22 26  4  0
M  END
$$$$

 Created by Python create_sdf_string function

 28 30  0  0  0  0  0  0  0  0999 V2000
    5.7174   -8.4529   26.7190 C   0  0  0  0  0  0  0  0  0  0  0  0
    0.3974   -7.0711   27.5149 C   0  0  0  0  0  0  0  0  0  0  0  0
    2.5338   -7.6891   16.0102 C   0  0  0  0  0  0  0  0  0  0  0  0
    4.8690   -7.4380   26.4151 C   0  0  0  0  0  0  0  0  0  0  0  0
    2.3021   -5.6726   26.0378 C   0  0  0  0  0  0  0  0  0  0  0  0
    7.0880   -4.6163   27.0010 C   0  0  0  0  0  0  0  0  0  0  0  0
    8.3117   -4.3698   27.4436 C   0  0  0  0  0  0  0  0  0  0  0  0
    1.1339   -5.0515   26.3541 C   0  0  0  0  0  0  0  0  0  0  0  0
    4.8080   -8.0362   16.7101 C   0  0  0  0  0  0  0  0  0  0  0  0
   -1.2173   -3.9294   26.9717 O   0  0  0  0  0  0  0  0  0  0  0  0
   -1.0025   -5.0942   27.4586 C   0  0  0  0  0  0  0  0  0  0  0  0
    2.2474   -8.9123   16.6273 C   0  0  0  0  0  0  0  0  0  0  0  0
    4.4957   -9.2636   17.3041 C   0  0  0  0  0  0  0  0  0  0  0  0
   -1.8070   -5.6086   28.1920 O   0  0  0  0  0  0  0  0  0  0  0  0
   10.4296   -5.1799   28.3140 C   0  0  0  0  0  0  0  0  0  0  0  0
    6.6017   -5.9004   26.9187 C   0  0  0  0  0  0  0  0  0  0  0  0
    2.4761   -6.9940   26.4111 N   0  0  0  0  0  0  0  0  0  0  0  0
    9.1353   -5.4053   27.8239 C   0  0  0  0  0  0  0  0  0  0  0  0
    0.9922   -9.3232   16.5995 O   0  0  0  0  0  0  0  0  0  0  0  0
    1.5232   -7.6869   27.1182 C   0  0  0  0  0  0  0  0  0  0  0  0
    8.6878   -6.6715   27.7262 N   0  0  0  0  0  0  0  0  0  0  0  0
    6.9911   -8.2423   27.1808 C   0  0  0  0  0  0  0  0  0  0  0  0
    3.8436   -7.2758   16.0578 C   0  0  0  0  0  0  0  0  0  0  0  0
    3.1882   -9.7190   17.2566 C   0  0  0  0  0  0  0  0  0  0  0  0
    5.3488   -6.1737   26.5092 C   0  0  0  0  0  0  0  0  0  0  0  0
    7.4567   -6.9464   27.2858 C   0  0  0  0  0  0  0  0  0  0  0  0
    0.1921   -5.7592   27.1123 C   0  0  0  0  0  0  0  0  0  0  0  0
    3.5517   -7.7407   25.9711 C   0  0  0  0  0  0  0  0  0  0  0  0
  1  4  4  0
  1 22  4  0
  2 20  4  0
  2 27  4  0
  3 12  4  0
  3 23  4  0
  4 25  4  0
  4 28  1  0
  5  8  4  0
  5 17  4  0
  6  7  4  0
  6 16  4  0
  7 18  4  0
  8 27  4  0
  9 13  4  0
  9 23  4  0
 10 11  1  0
 11 14  2  0
 11 27  1  0
 12 19  1  0
 12 24  4  0
 13 24  4  0
 15 18  1  0
 16 25  4  0
 16 26  4  0
 17 20  4  0
 17 28  1  0
 18 21  4  0
 21 26  4  0
 22 26  4  0
M  END
$$$$

 Created by Python create_sdf_string function

 28 30  0  0  0  0  0  0  0  0999 V2000
    5.7174   -8.4529   26.7190 C   0  0  0  0  0  0  0  0  0  0  0  0
    0.3974   -7.0711   27.5149 C   0  0  0  0  0  0  0  0  0  0  0  0
    2.5338   -7.6891   16.0102 C   0  0  0  0  0  0  0  0  0  0  0  0
    4.8690   -7.4380   26.4151 C   0  0  0  0  0  0  0  0  0  0  0  0
    2.3021   -5.6726   26.0378 C   0  0  0  0  0  0  0  0  0  0  0  0
    7.0880   -4.6163   27.0010 C   0  0  0  0  0  0  0  0  0  0  0  0
    8.3117   -4.3698   27.4436 C   0  0  0  0  0  0  0  0  0  0  0  0
    1.1339   -5.0515   26.3541 C   0  0  0  0  0  0  0  0  0  0  0  0
    4.8080   -8.0362   16.7101 C   0  0  0  0  0  0  0  0  0  0  0  0
   -1.2173   -3.9294   26.9717 O   0  0  0  0  0  0  0  0  0  0  0  0
   -1.0025   -5.0942   27.4586 C   0  0  0  0  0  0  0  0  0  0  0  0
    2.2474   -8.9123   16.6273 C   0  0  0  0  0  0  0  0  0  0  0  0
    4.4957   -9.2636   17.3041 C   0  0  0  0  0  0  0  0  0  0  0  0
   -1.8070   -5.6086   28.1920 O   0  0  0  0  0  0  0  0  0  0  0  0
   10.4296   -5.1799   28.3140 C   0  0  0  0  0  0  0  0  0  0  0  0
    6.6017   -5.9004   26.9187 C   0  0  0  0  0  0  0  0  0  0  0  0
    2.4761   -6.9940   26.4111 N   0  0  0  0  0  0  0  0  0  0  0  0
    9.1353   -5.4053   27.8239 C   0  0  0  0  0  0  0  0  0  0  0  0
    0.9922   -9.3232   16.5995 O   0  0  0  0  0  0  0  0  0  0  0  0
    1.5232   -7.6869   27.1182 C   0  0  0  0  0  0  0  0  0  0  0  0
    8.6878   -6.6715   27.7262 N   0  0  0  0  0  0  0  0  0  0  0  0
    6.9911   -8.2423   27.1808 C   0  0  0  0  0  0  0  0  0  0  0  0
    3.8436   -7.2758   16.0578 C   0  0  0  0  0  0  0  0  0  0  0  0
    3.1882   -9.7190   17.2566 C   0  0  0  0  0  0  0  0  0  0  0  0
    5.3488   -6.1737   26.5092 C   0  0  0  0  0  0  0  0  0  0  0  0
    7.4567   -6.9464   27.2858 C   0  0  0  0  0  0  0  0  0  0  0  0
    0.1921   -5.7592   27.1123 C   0  0  0  0  0  0  0  0  0  0  0  0
    3.5517   -7.7407   25.9711 C   0  0  0  0  0  0  0  0  0  0  0  0
  1  4  4  0
  1 22  4  0
  2 20  4  0
  2 27  4  0
  3 12  4  0
  3 23  4  0
  4 25  4  0
  4 28  1  0
  5  8  4  0
  5 17  4  0
  6  7  4  0
  6 16  4  0
  7 18  4  0
  8 27  4  0
  9 13  4  0
  9 23  4  0
 10 11  1  0
 11 14  2  0
 11 27  1  0
 12 19  1  0
 12 24  4  0
 13 24  4  0
 15 18  1  0
 16 25  4  0
 16 26  4  0
 17 20  4  0
 17 28  1  0
 18 21  4  0
 21 26  4  0
 22 26  4  0
M  END
$$$$

 Created by Python create_sdf_string function

 28 30  0  0  0  0  0  0  0  0999 V2000
    5.7174   -8.4529   26.7190 C   0  0  0  0  0  0  0  0  0  0  0  0
    0.3974   -7.0711   27.5149 C   0  0  0  0  0  0  0  0  0  0  0  0
    2.5338   -7.6891   16.0102 C   0  0  0  0  0  0  0  0  0  0  0  0
    4.8690   -7.4380   26.4151 C   0  0  0  0  0  0  0  0  0  0  0  0
    2.3021   -5.6726   26.0378 C   0  0  0  0  0  0  0  0  0  0  0  0
    7.0880   -4.6163   27.0010 C   0  0  0  0  0  0  0  0  0  0  0  0
    8.3117   -4.3698   27.4436 C   0  0  0  0  0  0  0  0  0  0  0  0
    1.1339   -5.0515   26.3541 C   0  0  0  0  0  0  0  0  0  0  0  0
    4.8080   -8.0362   16.7101 C   0  0  0  0  0  0  0  0  0  0  0  0
   -1.2173   -3.9294   26.9717 O   0  0  0  0  0  0  0  0  0  0  0  0
   -1.0025   -5.0942   27.4586 C   0  0  0  0  0  0  0  0  0  0  0  0
    2.2474   -8.9123   16.6273 C   0  0  0  0  0  0  0  0  0  0  0  0
    4.4957   -9.2636   17.3041 C   0  0  0  0  0  0  0  0  0  0  0  0
   -1.8070   -5.6086   28.1920 O   0  0  0  0  0  0  0  0  0  0  0  0
   10.4296   -5.1799   28.3140 C   0  0  0  0  0  0  0  0  0  0  0  0
    6.6017   -5.9004   26.9187 C   0  0  0  0  0  0  0  0  0  0  0  0
    2.4761   -6.9940   26.4111 N   0  0  0  0  0  0  0  0  0  0  0  0
    9.1353   -5.4053   27.8239 C   0  0  0  0  0  0  0  0  0  0  0  0
    0.9922   -9.3232   16.5995 O   0  0  0  0  0  0  0  0  0  0  0  0
    1.5232   -7.6869   27.1182 C   0  0  0  0  0  0  0  0  0  0  0  0
    8.6878   -6.6715   27.7262 N   0  0  0  0  0  0  0  0  0  0  0  0
    6.9911   -8.2423   27.1808 C   0  0  0  0  0  0  0  0  0  0  0  0
    3.8436   -7.2758   16.0578 C   0  0  0  0  0  0  0  0  0  0  0  0
    3.1882   -9.7190   17.2566 C   0  0  0  0  0  0  0  0  0  0  0  0
    5.3488   -6.1737   26.5092 C   0  0  0  0  0  0  0  0  0  0  0  0
    7.4567   -6.9464   27.2858 C   0  0  0  0  0  0  0  0  0  0  0  0
    0.1921   -5.7592   27.1123 C   0  0  0  0  0  0  0  0  0  0  0  0
    3.5517   -7.7407   25.9711 C   0  0  0  0  0  0  0  0  0  0  0  0
  1  4  4  0
  1 22  4  0
  2 20  4  0
  2 27  4  0
  3 12  4  0
  3 23  4  0
  4 25  4  0
  4 28  1  0
  5  8  4  0
  5 17  4  0
  6  7  4  0
  6 16  4  0
  7 18  4  0
  8 27  4  0
  9 13  4  0
  9 23  4  0
 10 11  1  0
 11 14  2  0
 11 27  1  0
 12 19  1  0
 12 24  4  0
 13 24  4  0
 15 18  1  0
 16 25  4  0
 16 26  4  0
 17 20  4  0
 17 28  1  0
 18 21  4  0
 21 26  4  0
 22 26  4  0
M  END
$$$$

 Created by Python create_sdf_string function

 28 30  0  0  0  0  0  0  0  0999 V2000
    5.7174   -8.4529   26.7190 C   0  0  0  0  0  0  0  0  0  0  0  0
    0.3974   -7.0711   27.5149 C   0  0  0  0  0  0  0  0  0  0  0  0
    2.5338   -7.6891   16.0102 C   0  0  0  0  0  0  0  0  0  0  0  0
    4.8690   -7.4380   26.4151 C   0  0  0  0  0  0  0  0  0  0  0  0
    2.3021   -5.6726   26.0378 C   0  0  0  0  0  0  0  0  0  0  0  0
    7.0880   -4.6163   27.0010 C   0  0  0  0  0  0  0  0  0  0  0  0
    8.3117   -4.3698   27.4436 C   0  0  0  0  0  0  0  0  0  0  0  0
    1.1339   -5.0515   26.3541 C   0  0  0  0  0  0  0  0  0  0  0  0
    4.8080   -8.0362   16.7101 C   0  0  0  0  0  0  0  0  0  0  0  0
   -1.2173   -3.9294   26.9717 O   0  0  0  0  0  0  0  0  0  0  0  0
   -1.0025   -5.0942   27.4586 C   0  0  0  0  0  0  0  0  0  0  0  0
    2.2474   -8.9123   16.6273 C   0  0  0  0  0  0  0  0  0  0  0  0
    4.4957   -9.2636   17.3041 C   0  0  0  0  0  0  0  0  0  0  0  0
   -1.8070   -5.6086   28.1920 O   0  0  0  0  0  0  0  0  0  0  0  0
   10.4296   -5.1799   28.3140 C   0  0  0  0  0  0  0  0  0  0  0  0
    6.6017   -5.9004   26.9187 C   0  0  0  0  0  0  0  0  0  0  0  0
    2.4761   -6.9940   26.4111 N   0  0  0  0  0  0  0  0  0  0  0  0
    9.1353   -5.4053   27.8239 C   0  0  0  0  0  0  0  0  0  0  0  0
    0.9922   -9.3232   16.5995 O   0  0  0  0  0  0  0  0  0  0  0  0
    1.5232   -7.6869   27.1182 C   0  0  0  0  0  0  0  0  0  0  0  0
    8.6878   -6.6715   27.7262 N   0  0  0  0  0  0  0  0  0  0  0  0
    6.9911   -8.2423   27.1808 C   0  0  0  0  0  0  0  0  0  0  0  0
    3.8436   -7.2758   16.0578 C   0  0  0  0  0  0  0  0  0  0  0  0
    3.1882   -9.7190   17.2566 C   0  0  0  0  0  0  0  0  0  0  0  0
    5.3488   -6.1737   26.5092 C   0  0  0  0  0  0  0  0  0  0  0  0
    7.4567   -6.9464   27.2858 C   0  0  0  0  0  0  0  0  0  0  0  0
    0.1921   -5.7592   27.1123 C   0  0  0  0  0  0  0  0  0  0  0  0
    3.5517   -7.7407   25.9711 C   0  0  0  0  0  0  0  0  0  0  0  0
  1  4  4  0
  1 22  4  0
  2 20  4  0
  2 27  4  0
  3 12  4  0
  3 23  4  0
  4 25  4  0
  4 28  1  0
  5  8  4  0
  5 17  4  0
  6  7  4  0
  6 16  4  0
  7 18  4  0
  8 27  4  0
  9 13  4  0
  9 23  4  0
 10 11  1  0
 11 14  2  0
 11 27  1  0
 12 19  1  0
 12 24  4  0
 13 24  4  0
 15 18  1  0
 16 25  4  0
 16 26  4  0
 17 20  4  0
 17 28  1  0
 18 21  4  0
 21 26  4  0
 22 26  4  0
M  END
$$$$

 Created by Python create_sdf_string function

 28 30  0  0  0  0  0  0  0  0999 V2000
    5.7174   -8.4529   26.7190 C   0  0  0  0  0  0  0  0  0  0  0  0
    0.3974   -7.0711   27.5149 C   0  0  0  0  0  0  0  0  0  0  0  0
    2.5338   -7.6891   16.0102 C   0  0  0  0  0  0  0  0  0  0  0  0
    4.8690   -7.4380   26.4151 C   0  0  0  0  0  0  0  0  0  0  0  0
    2.3021   -5.6726   26.0378 C   0  0  0  0  0  0  0  0  0  0  0  0
    7.0880   -4.6163   27.0010 C   0  0  0  0  0  0  0  0  0  0  0  0
    8.3117   -4.3698   27.4436 C   0  0  0  0  0  0  0  0  0  0  0  0
    1.1339   -5.0515   26.3541 C   0  0  0  0  0  0  0  0  0  0  0  0
    4.8080   -8.0362   16.7101 C   0  0  0  0  0  0  0  0  0  0  0  0
   -1.2173   -3.9294   26.9717 O   0  0  0  0  0  0  0  0  0  0  0  0
   -1.0025   -5.0942   27.4586 C   0  0  0  0  0  0  0  0  0  0  0  0
    2.2474   -8.9123   16.6273 C   0  0  0  0  0  0  0  0  0  0  0  0
    4.4957   -9.2636   17.3041 C   0  0  0  0  0  0  0  0  0  0  0  0
   -1.8070   -5.6086   28.1920 O   0  0  0  0  0  0  0  0  0  0  0  0
   10.4296   -5.1799   28.3140 C   0  0  0  0  0  0  0  0  0  0  0  0
    6.6017   -5.9004   26.9187 C   0  0  0  0  0  0  0  0  0  0  0  0
    2.4761   -6.9940   26.4111 N   0  0  0  0  0  0  0  0  0  0  0  0
    9.1353   -5.4053   27.8239 C   0  0  0  0  0  0  0  0  0  0  0  0
    0.9922   -9.3232   16.5995 O   0  0  0  0  0  0  0  0  0  0  0  0
    1.5232   -7.6869   27.1182 C   0  0  0  0  0  0  0  0  0  0  0  0
    8.6878   -6.6715   27.7262 N   0  0  0  0  0  0  0  0  0  0  0  0
    6.9911   -8.2423   27.1808 C   0  0  0  0  0  0  0  0  0  0  0  0
    3.8436   -7.2758   16.0578 C   0  0  0  0  0  0  0  0  0  0  0  0
    3.1882   -9.7190   17.2566 C   0  0  0  0  0  0  0  0  0  0  0  0
    5.3488   -6.1737   26.5092 C   0  0  0  0  0  0  0  0  0  0  0  0
    7.4567   -6.9464   27.2858 C   0  0  0  0  0  0  0  0  0  0  0  0
    0.1921   -5.7592   27.1123 C   0  0  0  0  0  0  0  0  0  0  0  0
    3.5517   -7.7407   25.9711 C   0  0  0  0  0  0  0  0  0  0  0  0
  1  4  4  0
  1 22  4  0
  2 20  4  0
  2 27  4  0
  3 12  4  0
  3 23  4  0
  4 25  4  0
  4 28  1  0
  5  8  4  0
  5 17  4  0
  6  7  4  0
  6 16  4  0
  7 18  4  0
  8 27  4  0
  9 13  4  0
  9 23  4  0
 10 11  1  0
 11 14  2  0
 11 27  1  0
 12 19  1  0
 12 24  4  0
 13 24  4  0
 15 18  1  0
 16 25  4  0
 16 26  4  0
 17 20  4  0
 17 28  1  0
 18 21  4  0
 21 26  4  0
 22 26  4  0
M  END
$$$$

 Created by Python create_sdf_string function

 28 30  0  0  0  0  0  0  0  0999 V2000
    5.7174   -8.4529   26.7190 C   0  0  0  0  0  0  0  0  0  0  0  0
    0.3974   -7.0711   27.5149 C   0  0  0  0  0  0  0  0  0  0  0  0
    2.5338   -7.6891   16.0102 C   0  0  0  0  0  0  0  0  0  0  0  0
    4.8690   -7.4380   26.4151 C   0  0  0  0  0  0  0  0  0  0  0  0
    2.3021   -5.6726   26.0378 C   0  0  0  0  0  0  0  0  0  0  0  0
    7.0880   -4.6163   27.0010 C   0  0  0  0  0  0  0  0  0  0  0  0
    8.3117   -4.3698   27.4436 C   0  0  0  0  0  0  0  0  0  0  0  0
    1.1339   -5.0515   26.3541 C   0  0  0  0  0  0  0  0  0  0  0  0
    4.8080   -8.0362   16.7101 C   0  0  0  0  0  0  0  0  0  0  0  0
   -1.2173   -3.9294   26.9717 O   0  0  0  0  0  0  0  0  0  0  0  0
   -1.0025   -5.0942   27.4586 C   0  0  0  0  0  0  0  0  0  0  0  0
    2.2474   -8.9123   16.6273 C   0  0  0  0  0  0  0  0  0  0  0  0
    4.4957   -9.2636   17.3041 C   0  0  0  0  0  0  0  0  0  0  0  0
   -1.8070   -5.6086   28.1920 O   0  0  0  0  0  0  0  0  0  0  0  0
   10.4296   -5.1799   28.3140 C   0  0  0  0  0  0  0  0  0  0  0  0
    6.6017   -5.9004   26.9187 C   0  0  0  0  0  0  0  0  0  0  0  0
    2.4761   -6.9940   26.4111 N   0  0  0  0  0  0  0  0  0  0  0  0
    9.1353   -5.4053   27.8239 C   0  0  0  0  0  0  0  0  0  0  0  0
    0.9922   -9.3232   16.5995 O   0  0  0  0  0  0  0  0  0  0  0  0
    1.5232   -7.6869   27.1182 C   0  0  0  0  0  0  0  0  0  0  0  0
    8.6878   -6.6715   27.7262 N   0  0  0  0  0  0  0  0  0  0  0  0
    6.9911   -8.2423   27.1808 C   0  0  0  0  0  0  0  0  0  0  0  0
    3.8436   -7.2758   16.0578 C   0  0  0  0  0  0  0  0  0  0  0  0
    3.1882   -9.7190   17.2566 C   0  0  0  0  0  0  0  0  0  0  0  0
    5.3488   -6.1737   26.5092 C   0  0  0  0  0  0  0  0  0  0  0  0
    7.4567   -6.9464   27.2858 C   0  0  0  0  0  0  0  0  0  0  0  0
    0.1921   -5.7592   27.1123 C   0  0  0  0  0  0  0  0  0  0  0  0
    3.5517   -7.7407   25.9711 C   0  0  0  0  0  0  0  0  0  0  0  0
  1  4  4  0
  1 22  4  0
  2 20  4  0
  2 27  4  0
  3 12  4  0
  3 23  4  0
  4 25  4  0
  4 28  1  0
  5  8  4  0
  5 17  4  0
  6  7  4  0
  6 16  4  0
  7 18  4  0
  8 27  4  0
  9 13  4  0
  9 23  4  0
 10 11  1  0
 11 14  2  0
 11 27  1  0
 12 19  1  0
 12 24  4  0
 13 24  4  0
 15 18  1  0
 16 25  4  0
 16 26  4  0
 17 20  4  0
 17 28  1  0
 18 21  4  0
 21 26  4  0
 22 26  4  0
M  END
$$$$

 Created by Python create_sdf_string function

 28 30  0  0  0  0  0  0  0  0999 V2000
    5.7174   -8.4529   26.7190 C   0  0  0  0  0  0  0  0  0  0  0  0
    0.3974   -7.0711   27.5149 C   0  0  0  0  0  0  0  0  0  0  0  0
    2.5338   -7.6891   16.0102 C   0  0  0  0  0  0  0  0  0  0  0  0
    4.8690   -7.4380   26.4151 C   0  0  0  0  0  0  0  0  0  0  0  0
    2.3021   -5.6726   26.0378 C   0  0  0  0  0  0  0  0  0  0  0  0
    7.0880   -4.6163   27.0010 C   0  0  0  0  0  0  0  0  0  0  0  0
    8.3117   -4.3698   27.4436 C   0  0  0  0  0  0  0  0  0  0  0  0
    1.1339   -5.0515   26.3541 C   0  0  0  0  0  0  0  0  0  0  0  0
    4.8080   -8.0362   16.7101 C   0  0  0  0  0  0  0  0  0  0  0  0
   -1.2173   -3.9294   26.9717 O   0  0  0  0  0  0  0  0  0  0  0  0
   -1.0025   -5.0942   27.4586 C   0  0  0  0  0  0  0  0  0  0  0  0
    2.2474   -8.9123   16.6273 C   0  0  0  0  0  0  0  0  0  0  0  0
    4.4957   -9.2636   17.3041 C   0  0  0  0  0  0  0  0  0  0  0  0
   -1.8070   -5.6086   28.1920 O   0  0  0  0  0  0  0  0  0  0  0  0
   10.4296   -5.1799   28.3140 C   0  0  0  0  0  0  0  0  0  0  0  0
    6.6017   -5.9004   26.9187 C   0  0  0  0  0  0  0  0  0  0  0  0
    2.4761   -6.9940   26.4111 N   0  0  0  0  0  0  0  0  0  0  0  0
    9.1353   -5.4053   27.8239 C   0  0  0  0  0  0  0  0  0  0  0  0
    0.9922   -9.3232   16.5995 O   0  0  0  0  0  0  0  0  0  0  0  0
    1.5232   -7.6869   27.1182 C   0  0  0  0  0  0  0  0  0  0  0  0
    8.6878   -6.6715   27.7262 N   0  0  0  0  0  0  0  0  0  0  0  0
    6.9911   -8.2423   27.1808 C   0  0  0  0  0  0  0  0  0  0  0  0
    3.8436   -7.2758   16.0578 C   0  0  0  0  0  0  0  0  0  0  0  0
    3.1882   -9.7190   17.2566 C   0  0  0  0  0  0  0  0  0  0  0  0
    5.3488   -6.1737   26.5092 C   0  0  0  0  0  0  0  0  0  0  0  0
    7.4567   -6.9464   27.2858 C   0  0  0  0  0  0  0  0  0  0  0  0
    0.1921   -5.7592   27.1123 C   0  0  0  0  0  0  0  0  0  0  0  0
    3.5517   -7.7407   25.9711 C   0  0  0  0  0  0  0  0  0  0  0  0
  1  4  4  0
  1 22  4  0
  2 20  4  0
  2 27  4  0
  3 12  4  0
  3 23  4  0
  4 25  4  0
  4 28  1  0
  5  8  4  0
  5 17  4  0
  6  7  4  0
  6 16  4  0
  7 18  4  0
  8 27  4  0
  9 13  4  0
  9 23  4  0
 10 11  1  0
 11 14  2  0
 11 27  1  0
 12 19  1  0
 12 24  4  0
 13 24  4  0
 15 18  1  0
 16 25  4  0
 16 26  4  0
 17 20  4  0
 17 28  1  0
 18 21  4  0
 21 26  4  0
 22 26  4  0
M  END
$$$$

 Created by Python create_sdf_string function

 28 30  0  0  0  0  0  0  0  0999 V2000
    5.7174   -8.4529   26.7190 C   0  0  0  0  0  0  0  0  0  0  0  0
    0.3974   -7.0711   27.5149 C   0  0  0  0  0  0  0  0  0  0  0  0
    2.5338   -7.6891   16.0102 C   0  0  0  0  0  0  0  0  0  0  0  0
    4.8690   -7.4380   26.4151 C   0  0  0  0  0  0  0  0  0  0  0  0
    2.3021   -5.6726   26.0378 C   0  0  0  0  0  0  0  0  0  0  0  0
    7.0880   -4.6163   27.0010 C   0  0  0  0  0  0  0  0  0  0  0  0
    8.3117   -4.3698   27.4436 C   0  0  0  0  0  0  0  0  0  0  0  0
    1.1339   -5.0515   26.3541 C   0  0  0  0  0  0  0  0  0  0  0  0
    4.8080   -8.0362   16.7101 C   0  0  0  0  0  0  0  0  0  0  0  0
   -1.2173   -3.9294   26.9717 O   0  0  0  0  0  0  0  0  0  0  0  0
   -1.0025   -5.0942   27.4586 C   0  0  0  0  0  0  0  0  0  0  0  0
    2.2474   -8.9123   16.6273 C   0  0  0  0  0  0  0  0  0  0  0  0
    4.4957   -9.2636   17.3041 C   0  0  0  0  0  0  0  0  0  0  0  0
   -1.8070   -5.6086   28.1920 O   0  0  0  0  0  0  0  0  0  0  0  0
   10.4296   -5.1799   28.3140 C   0  0  0  0  0  0  0  0  0  0  0  0
    6.6017   -5.9004   26.9187 C   0  0  0  0  0  0  0  0  0  0  0  0
    2.4761   -6.9940   26.4111 N   0  0  0  0  0  0  0  0  0  0  0  0
    9.1353   -5.4053   27.8239 C   0  0  0  0  0  0  0  0  0  0  0  0
    0.9922   -9.3232   16.5995 O   0  0  0  0  0  0  0  0  0  0  0  0
    1.5232   -7.6869   27.1182 C   0  0  0  0  0  0  0  0  0  0  0  0
    8.6878   -6.6715   27.7262 N   0  0  0  0  0  0  0  0  0  0  0  0
    6.9911   -8.2423   27.1808 C   0  0  0  0  0  0  0  0  0  0  0  0
    3.8436   -7.2758   16.0578 C   0  0  0  0  0  0  0  0  0  0  0  0
    3.1882   -9.7190   17.2566 C   0  0  0  0  0  0  0  0  0  0  0  0
    5.3488   -6.1737   26.5092 C   0  0  0  0  0  0  0  0  0  0  0  0
    7.4567   -6.9464   27.2858 C   0  0  0  0  0  0  0  0  0  0  0  0
    0.1921   -5.7592   27.1123 C   0  0  0  0  0  0  0  0  0  0  0  0
    3.5517   -7.7407   25.9711 C   0  0  0  0  0  0  0  0  0  0  0  0
  1  4  4  0
  1 22  4  0
  2 20  4  0
  2 27  4  0
  3 12  4  0
  3 23  4  0
  4 25  4  0
  4 28  1  0
  5  8  4  0
  5 17  4  0
  6  7  4  0
  6 16  4  0
  7 18  4  0
  8 27  4  0
  9 13  4  0
  9 23  4  0
 10 11  1  0
 11 14  2  0
 11 27  1  0
 12 19  1  0
 12 24  4  0
 13 24  4  0
 15 18  1  0
 16 25  4  0
 16 26  4  0
 17 20  4  0
 17 28  1  0
 18 21  4  0
 21 26  4  0
 22 26  4  0
M  END
$$$$

 Created by Python create_sdf_string function

 28 30  0  0  0  0  0  0  0  0999 V2000
    5.7174   -8.4529   26.7190 C   0  0  0  0  0  0  0  0  0  0  0  0
    0.3974   -7.0711   27.5149 C   0  0  0  0  0  0  0  0  0  0  0  0
    2.5338   -7.6891   16.0102 C   0  0  0  0  0  0  0  0  0  0  0  0
    4.8690   -7.4380   26.4151 C   0  0  0  0  0  0  0  0  0  0  0  0
    2.3021   -5.6726   26.0378 C   0  0  0  0  0  0  0  0  0  0  0  0
    7.0880   -4.6163   27.0010 C   0  0  0  0  0  0  0  0  0  0  0  0
    8.3117   -4.3698   27.4436 C   0  0  0  0  0  0  0  0  0  0  0  0
    1.1339   -5.0515   26.3541 C   0  0  0  0  0  0  0  0  0  0  0  0
    4.8080   -8.0362   16.7101 C   0  0  0  0  0  0  0  0  0  0  0  0
   -1.2173   -3.9294   26.9717 O   0  0  0  0  0  0  0  0  0  0  0  0
   -1.0025   -5.0942   27.4586 C   0  0  0  0  0  0  0  0  0  0  0  0
    2.2474   -8.9123   16.6273 C   0  0  0  0  0  0  0  0  0  0  0  0
    4.4957   -9.2636   17.3041 C   0  0  0  0  0  0  0  0  0  0  0  0
   -1.8070   -5.6086   28.1920 O   0  0  0  0  0  0  0  0  0  0  0  0
   10.4296   -5.1799   28.3140 C   0  0  0  0  0  0  0  0  0  0  0  0
    6.6017   -5.9004   26.9187 C   0  0  0  0  0  0  0  0  0  0  0  0
    2.4761   -6.9940   26.4111 N   0  0  0  0  0  0  0  0  0  0  0  0
    9.1353   -5.4053   27.8239 C   0  0  0  0  0  0  0  0  0  0  0  0
    0.9922   -9.3232   16.5995 O   0  0  0  0  0  0  0  0  0  0  0  0
    1.5232   -7.6869   27.1182 C   0  0  0  0  0  0  0  0  0  0  0  0
    8.6878   -6.6715   27.7262 N   0  0  0  0  0  0  0  0  0  0  0  0
    6.9911   -8.2423   27.1808 C   0  0  0  0  0  0  0  0  0  0  0  0
    3.8436   -7.2758   16.0578 C   0  0  0  0  0  0  0  0  0  0  0  0
    3.1882   -9.7190   17.2566 C   0  0  0  0  0  0  0  0  0  0  0  0
    5.3488   -6.1737   26.5092 C   0  0  0  0  0  0  0  0  0  0  0  0
    7.4567   -6.9464   27.2858 C   0  0  0  0  0  0  0  0  0  0  0  0
    0.1921   -5.7592   27.1123 C   0  0  0  0  0  0  0  0  0  0  0  0
    3.5517   -7.7407   25.9711 C   0  0  0  0  0  0  0  0  0  0  0  0
  1  4  4  0
  1 22  4  0
  2 20  4  0
  2 27  4  0
  3 12  4  0
  3 23  4  0
  4 25  4  0
  4 28  1  0
  5  8  4  0
  5 17  4  0
  6  7  4  0
  6 16  4  0
  7 18  4  0
  8 27  4  0
  9 13  4  0
  9 23  4  0
 10 11  1  0
 11 14  2  0
 11 27  1  0
 12 19  1  0
 12 24  4  0
 13 24  4  0
 15 18  1  0
 16 25  4  0
 16 26  4  0
 17 20  4  0
 17 28  1  0
 18 21  4  0
 21 26  4  0
 22 26  4  0
M  END
$$$$

 Created by Python create_sdf_string function

 28 30  0  0  0  0  0  0  0  0999 V2000
    5.7174   -8.4529   26.7190 C   0  0  0  0  0  0  0  0  0  0  0  0
    0.3974   -7.0711   27.5149 C   0  0  0  0  0  0  0  0  0  0  0  0
    2.5338   -7.6891   16.0102 C   0  0  0  0  0  0  0  0  0  0  0  0
    4.8690   -7.4380   26.4151 C   0  0  0  0  0  0  0  0  0  0  0  0
    2.3021   -5.6726   26.0378 C   0  0  0  0  0  0  0  0  0  0  0  0
    7.0880   -4.6163   27.0010 C   0  0  0  0  0  0  0  0  0  0  0  0
    8.3117   -4.3698   27.4436 C   0  0  0  0  0  0  0  0  0  0  0  0
    1.1339   -5.0515   26.3541 C   0  0  0  0  0  0  0  0  0  0  0  0
    4.8080   -8.0362   16.7101 C   0  0  0  0  0  0  0  0  0  0  0  0
   -1.2173   -3.9294   26.9717 O   0  0  0  0  0  0  0  0  0  0  0  0
   -1.0025   -5.0942   27.4586 C   0  0  0  0  0  0  0  0  0  0  0  0
    2.2474   -8.9123   16.6273 C   0  0  0  0  0  0  0  0  0  0  0  0
    4.4957   -9.2636   17.3041 C   0  0  0  0  0  0  0  0  0  0  0  0
   -1.8070   -5.6086   28.1920 O   0  0  0  0  0  0  0  0  0  0  0  0
   10.4296   -5.1799   28.3140 C   0  0  0  0  0  0  0  0  0  0  0  0
    6.6017   -5.9004   26.9187 C   0  0  0  0  0  0  0  0  0  0  0  0
    2.4761   -6.9940   26.4111 N   0  0  0  0  0  0  0  0  0  0  0  0
    9.1353   -5.4053   27.8239 C   0  0  0  0  0  0  0  0  0  0  0  0
    0.9922   -9.3232   16.5995 O   0  0  0  0  0  0  0  0  0  0  0  0
    1.5232   -7.6869   27.1182 C   0  0  0  0  0  0  0  0  0  0  0  0
    8.6878   -6.6715   27.7262 N   0  0  0  0  0  0  0  0  0  0  0  0
    6.9911   -8.2423   27.1808 C   0  0  0  0  0  0  0  0  0  0  0  0
    3.8436   -7.2758   16.0578 C   0  0  0  0  0  0  0  0  0  0  0  0
    3.1882   -9.7190   17.2566 C   0  0  0  0  0  0  0  0  0  0  0  0
    5.3488   -6.1737   26.5092 C   0  0  0  0  0  0  0  0  0  0  0  0
    7.4567   -6.9464   27.2858 C   0  0  0  0  0  0  0  0  0  0  0  0
    0.1921   -5.7592   27.1123 C   0  0  0  0  0  0  0  0  0  0  0  0
    3.5517   -7.7407   25.9711 C   0  0  0  0  0  0  0  0  0  0  0  0
  1  4  4  0
  1 22  4  0
  2 20  4  0
  2 27  4  0
  3 12  4  0
  3 23  4  0
  4 25  4  0
  4 28  1  0
  5  8  4  0
  5 17  4  0
  6  7  4  0
  6 16  4  0
  7 18  4  0
  8 27  4  0
  9 13  4  0
  9 23  4  0
 10 11  1  0
 11 14  2  0
 11 27  1  0
 12 19  1  0
 12 24  4  0
 13 24  4  0
 15 18  1  0
 16 25  4  0
 16 26  4  0
 17 20  4  0
 17 28  1  0
 18 21  4  0
 21 26  4  0
 22 26  4  0
M  END
$$$$

 Created by Python create_sdf_string function

 28 30  0  0  0  0  0  0  0  0999 V2000
    5.7174   -8.4529   26.7190 C   0  0  0  0  0  0  0  0  0  0  0  0
    0.3974   -7.0711   27.5149 C   0  0  0  0  0  0  0  0  0  0  0  0
    2.5338   -7.6891   16.0102 C   0  0  0  0  0  0  0  0  0  0  0  0
    4.8690   -7.4380   26.4151 C   0  0  0  0  0  0  0  0  0  0  0  0
    2.3021   -5.6726   26.0378 C   0  0  0  0  0  0  0  0  0  0  0  0
    7.0880   -4.6163   27.0010 C   0  0  0  0  0  0  0  0  0  0  0  0
    8.3117   -4.3698   27.4436 C   0  0  0  0  0  0  0  0  0  0  0  0
    1.1339   -5.0515   26.3541 C   0  0  0  0  0  0  0  0  0  0  0  0
    4.8080   -8.0362   16.7101 C   0  0  0  0  0  0  0  0  0  0  0  0
   -1.2173   -3.9294   26.9717 O   0  0  0  0  0  0  0  0  0  0  0  0
   -1.0025   -5.0942   27.4586 C   0  0  0  0  0  0  0  0  0  0  0  0
    2.2474   -8.9123   16.6273 C   0  0  0  0  0  0  0  0  0  0  0  0
    4.4957   -9.2636   17.3041 C   0  0  0  0  0  0  0  0  0  0  0  0
   -1.8070   -5.6086   28.1920 O   0  0  0  0  0  0  0  0  0  0  0  0
   10.4296   -5.1799   28.3140 C   0  0  0  0  0  0  0  0  0  0  0  0
    6.6017   -5.9004   26.9187 C   0  0  0  0  0  0  0  0  0  0  0  0
    2.4761   -6.9940   26.4111 N   0  0  0  0  0  0  0  0  0  0  0  0
    9.1353   -5.4053   27.8239 C   0  0  0  0  0  0  0  0  0  0  0  0
    0.9922   -9.3232   16.5995 O   0  0  0  0  0  0  0  0  0  0  0  0
    1.5232   -7.6869   27.1182 C   0  0  0  0  0  0  0  0  0  0  0  0
    8.6878   -6.6715   27.7262 N   0  0  0  0  0  0  0  0  0  0  0  0
    6.9911   -8.2423   27.1808 C   0  0  0  0  0  0  0  0  0  0  0  0
    3.8436   -7.2758   16.0578 C   0  0  0  0  0  0  0  0  0  0  0  0
    3.1882   -9.7190   17.2566 C   0  0  0  0  0  0  0  0  0  0  0  0
    5.3488   -6.1737   26.5092 C   0  0  0  0  0  0  0  0  0  0  0  0
    7.4567   -6.9464   27.2858 C   0  0  0  0  0  0  0  0  0  0  0  0
    0.1921   -5.7592   27.1123 C   0  0  0  0  0  0  0  0  0  0  0  0
    3.5517   -7.7407   25.9711 C   0  0  0  0  0  0  0  0  0  0  0  0
  1  4  4  0
  1 22  4  0
  2 20  4  0
  2 27  4  0
  3 12  4  0
  3 23  4  0
  4 25  4  0
  4 28  1  0
  5  8  4  0
  5 17  4  0
  6  7  4  0
  6 16  4  0
  7 18  4  0
  8 27  4  0
  9 13  4  0
  9 23  4  0
 10 11  1  0
 11 14  2  0
 11 27  1  0
 12 19  1  0
 12 24  4  0
 13 24  4  0
 15 18  1  0
 16 25  4  0
 16 26  4  0
 17 20  4  0
 17 28  1  0
 18 21  4  0
 21 26  4  0
 22 26  4  0
M  END
$$$$

 Created by Python create_sdf_string function

 28 30  0  0  0  0  0  0  0  0999 V2000
    5.7174   -8.4529   26.7190 C   0  0  0  0  0  0  0  0  0  0  0  0
    0.3974   -7.0711   27.5149 C   0  0  0  0  0  0  0  0  0  0  0  0
    2.5338   -7.6891   16.0102 C   0  0  0  0  0  0  0  0  0  0  0  0
    4.8690   -7.4380   26.4151 C   0  0  0  0  0  0  0  0  0  0  0  0
    2.3021   -5.6726   26.0378 C   0  0  0  0  0  0  0  0  0  0  0  0
    7.0880   -4.6163   27.0010 C   0  0  0  0  0  0  0  0  0  0  0  0
    8.3117   -4.3698   27.4436 C   0  0  0  0  0  0  0  0  0  0  0  0
    1.1339   -5.0515   26.3541 C   0  0  0  0  0  0  0  0  0  0  0  0
    4.8080   -8.0362   16.7101 C   0  0  0  0  0  0  0  0  0  0  0  0
   -1.2173   -3.9294   26.9717 O   0  0  0  0  0  0  0  0  0  0  0  0
   -1.0025   -5.0942   27.4586 C   0  0  0  0  0  0  0  0  0  0  0  0
    2.2474   -8.9123   16.6273 C   0  0  0  0  0  0  0  0  0  0  0  0
    4.4957   -9.2636   17.3041 C   0  0  0  0  0  0  0  0  0  0  0  0
   -1.8070   -5.6086   28.1920 O   0  0  0  0  0  0  0  0  0  0  0  0
   10.4296   -5.1799   28.3140 C   0  0  0  0  0  0  0  0  0  0  0  0
    6.6017   -5.9004   26.9187 C   0  0  0  0  0  0  0  0  0  0  0  0
    2.4761   -6.9940   26.4111 N   0  0  0  0  0  0  0  0  0  0  0  0
    9.1353   -5.4053   27.8239 C   0  0  0  0  0  0  0  0  0  0  0  0
    0.9922   -9.3232   16.5995 O   0  0  0  0  0  0  0  0  0  0  0  0
    1.5232   -7.6869   27.1182 C   0  0  0  0  0  0  0  0  0  0  0  0
    8.6878   -6.6715   27.7262 N   0  0  0  0  0  0  0  0  0  0  0  0
    6.9911   -8.2423   27.1808 C   0  0  0  0  0  0  0  0  0  0  0  0
    3.8436   -7.2758   16.0578 C   0  0  0  0  0  0  0  0  0  0  0  0
    3.1882   -9.7190   17.2566 C   0  0  0  0  0  0  0  0  0  0  0  0
    5.3488   -6.1737   26.5092 C   0  0  0  0  0  0  0  0  0  0  0  0
    7.4567   -6.9464   27.2858 C   0  0  0  0  0  0  0  0  0  0  0  0
    0.1921   -5.7592   27.1123 C   0  0  0  0  0  0  0  0  0  0  0  0
    3.5517   -7.7407   25.9711 C   0  0  0  0  0  0  0  0  0  0  0  0
  1  4  4  0
  1 22  4  0
  2 20  4  0
  2 27  4  0
  3 12  4  0
  3 23  4  0
  4 25  4  0
  4 28  1  0
  5  8  4  0
  5 17  4  0
  6  7  4  0
  6 16  4  0
  7 18  4  0
  8 27  4  0
  9 13  4  0
  9 23  4  0
 10 11  1  0
 11 14  2  0
 11 27  1  0
 12 19  1  0
 12 24  4  0
 13 24  4  0
 15 18  1  0
 16 25  4  0
 16 26  4  0
 17 20  4  0
 17 28  1  0
 18 21  4  0
 21 26  4  0
 22 26  4  0
M  END
$$$$

 Created by Python create_sdf_string function

 28 30  0  0  0  0  0  0  0  0999 V2000
    5.7174   -8.4529   26.7190 C   0  0  0  0  0  0  0  0  0  0  0  0
    0.3974   -7.0711   27.5149 C   0  0  0  0  0  0  0  0  0  0  0  0
    2.5338   -7.6891   16.0102 C   0  0  0  0  0  0  0  0  0  0  0  0
    4.8690   -7.4380   26.4151 C   0  0  0  0  0  0  0  0  0  0  0  0
    2.3021   -5.6726   26.0378 C   0  0  0  0  0  0  0  0  0  0  0  0
    7.0880   -4.6163   27.0010 C   0  0  0  0  0  0  0  0  0  0  0  0
    8.3117   -4.3698   27.4436 C   0  0  0  0  0  0  0  0  0  0  0  0
    1.1339   -5.0515   26.3541 C   0  0  0  0  0  0  0  0  0  0  0  0
    4.8080   -8.0362   16.7101 C   0  0  0  0  0  0  0  0  0  0  0  0
   -1.2173   -3.9294   26.9717 O   0  0  0  0  0  0  0  0  0  0  0  0
   -1.0025   -5.0942   27.4586 C   0  0  0  0  0  0  0  0  0  0  0  0
    2.2474   -8.9123   16.6273 C   0  0  0  0  0  0  0  0  0  0  0  0
    4.4957   -9.2636   17.3041 C   0  0  0  0  0  0  0  0  0  0  0  0
   -1.8070   -5.6086   28.1920 O   0  0  0  0  0  0  0  0  0  0  0  0
   10.4296   -5.1799   28.3140 C   0  0  0  0  0  0  0  0  0  0  0  0
    6.6017   -5.9004   26.9187 C   0  0  0  0  0  0  0  0  0  0  0  0
    2.4761   -6.9940   26.4111 N   0  0  0  0  0  0  0  0  0  0  0  0
    9.1353   -5.4053   27.8239 C   0  0  0  0  0  0  0  0  0  0  0  0
    0.9922   -9.3232   16.5995 O   0  0  0  0  0  0  0  0  0  0  0  0
    1.5232   -7.6869   27.1182 C   0  0  0  0  0  0  0  0  0  0  0  0
    8.6878   -6.6715   27.7262 N   0  0  0  0  0  0  0  0  0  0  0  0
    6.9911   -8.2423   27.1808 C   0  0  0  0  0  0  0  0  0  0  0  0
    3.8436   -7.2758   16.0578 C   0  0  0  0  0  0  0  0  0  0  0  0
    3.1882   -9.7190   17.2566 C   0  0  0  0  0  0  0  0  0  0  0  0
    5.3488   -6.1737   26.5092 C   0  0  0  0  0  0  0  0  0  0  0  0
    7.4567   -6.9464   27.2858 C   0  0  0  0  0  0  0  0  0  0  0  0
    0.1921   -5.7592   27.1123 C   0  0  0  0  0  0  0  0  0  0  0  0
    3.5517   -7.7407   25.9711 C   0  0  0  0  0  0  0  0  0  0  0  0
  1  4  4  0
  1 22  4  0
  2 20  4  0
  2 27  4  0
  3 12  4  0
  3 23  4  0
  4 25  4  0
  4 28  1  0
  5  8  4  0
  5 17  4  0
  6  7  4  0
  6 16  4  0
  7 18  4  0
  8 27  4  0
  9 13  4  0
  9 23  4  0
 10 11  1  0
 11 14  2  0
 11 27  1  0
 12 19  1  0
 12 24  4  0
 13 24  4  0
 15 18  1  0
 16 25  4  0
 16 26  4  0
 17 20  4  0
 17 28  1  0
 18 21  4  0
 21 26  4  0
 22 26  4  0
M  END
$$$$

 Created by Python create_sdf_string function

 28 30  0  0  0  0  0  0  0  0999 V2000
    5.7174   -8.4529   26.7190 C   0  0  0  0  0  0  0  0  0  0  0  0
    0.3974   -7.0711   27.5149 C   0  0  0  0  0  0  0  0  0  0  0  0
    2.5338   -7.6891   16.0102 C   0  0  0  0  0  0  0  0  0  0  0  0
    4.8690   -7.4380   26.4151 C   0  0  0  0  0  0  0  0  0  0  0  0
    2.3021   -5.6726   26.0378 C   0  0  0  0  0  0  0  0  0  0  0  0
    7.0880   -4.6163   27.0010 C   0  0  0  0  0  0  0  0  0  0  0  0
    8.3117   -4.3698   27.4436 C   0  0  0  0  0  0  0  0  0  0  0  0
    1.1339   -5.0515   26.3541 C   0  0  0  0  0  0  0  0  0  0  0  0
    4.8080   -8.0362   16.7101 C   0  0  0  0  0  0  0  0  0  0  0  0
   -1.2173   -3.9294   26.9717 O   0  0  0  0  0  0  0  0  0  0  0  0
   -1.0025   -5.0942   27.4586 C   0  0  0  0  0  0  0  0  0  0  0  0
    2.2474   -8.9123   16.6273 C   0  0  0  0  0  0  0  0  0  0  0  0
    4.4957   -9.2636   17.3041 C   0  0  0  0  0  0  0  0  0  0  0  0
   -1.8070   -5.6086   28.1920 O   0  0  0  0  0  0  0  0  0  0  0  0
   10.4296   -5.1799   28.3140 C   0  0  0  0  0  0  0  0  0  0  0  0
    6.6017   -5.9004   26.9187 C   0  0  0  0  0  0  0  0  0  0  0  0
    2.4761   -6.9940   26.4111 N   0  0  0  0  0  0  0  0  0  0  0  0
    9.1353   -5.4053   27.8239 C   0  0  0  0  0  0  0  0  0  0  0  0
    0.9922   -9.3232   16.5995 O   0  0  0  0  0  0  0  0  0  0  0  0
    1.5232   -7.6869   27.1182 C   0  0  0  0  0  0  0  0  0  0  0  0
    8.6878   -6.6715   27.7262 N   0  0  0  0  0  0  0  0  0  0  0  0
    6.9911   -8.2423   27.1808 C   0  0  0  0  0  0  0  0  0  0  0  0
    3.8436   -7.2758   16.0578 C   0  0  0  0  0  0  0  0  0  0  0  0
    3.1882   -9.7190   17.2566 C   0  0  0  0  0  0  0  0  0  0  0  0
    5.3488   -6.1737   26.5092 C   0  0  0  0  0  0  0  0  0  0  0  0
    7.4567   -6.9464   27.2858 C   0  0  0  0  0  0  0  0  0  0  0  0
    0.1921   -5.7592   27.1123 C   0  0  0  0  0  0  0  0  0  0  0  0
    3.5517   -7.7407   25.9711 C   0  0  0  0  0  0  0  0  0  0  0  0
  1  4  4  0
  1 22  4  0
  2 20  4  0
  2 27  4  0
  3 12  4  0
  3 23  4  0
  4 25  4  0
  4 28  1  0
  5  8  4  0
  5 17  4  0
  6  7  4  0
  6 16  4  0
  7 18  4  0
  8 27  4  0
  9 13  4  0
  9 23  4  0
 10 11  1  0
 11 14  2  0
 11 27  1  0
 12 19  1  0
 12 24  4  0
 13 24  4  0
 15 18  1  0
 16 25  4  0
 16 26  4  0
 17 20  4  0
 17 28  1  0
 18 21  4  0
 21 26  4  0
 22 26  4  0
M  END
$$$$

 Created by Python create_sdf_string function

 28 30  0  0  0  0  0  0  0  0999 V2000
    5.7174   -8.4529   26.7190 C   0  0  0  0  0  0  0  0  0  0  0  0
    0.3974   -7.0711   27.5149 C   0  0  0  0  0  0  0  0  0  0  0  0
    2.5338   -7.6891   16.0102 C   0  0  0  0  0  0  0  0  0  0  0  0
    4.8690   -7.4380   26.4151 C   0  0  0  0  0  0  0  0  0  0  0  0
    2.3021   -5.6726   26.0378 C   0  0  0  0  0  0  0  0  0  0  0  0
    7.0880   -4.6163   27.0010 C   0  0  0  0  0  0  0  0  0  0  0  0
    8.3117   -4.3698   27.4436 C   0  0  0  0  0  0  0  0  0  0  0  0
    1.1339   -5.0515   26.3541 C   0  0  0  0  0  0  0  0  0  0  0  0
    4.8080   -8.0362   16.7101 C   0  0  0  0  0  0  0  0  0  0  0  0
   -1.2173   -3.9294   26.9717 O   0  0  0  0  0  0  0  0  0  0  0  0
   -1.0025   -5.0942   27.4586 C   0  0  0  0  0  0  0  0  0  0  0  0
    2.2474   -8.9123   16.6273 C   0  0  0  0  0  0  0  0  0  0  0  0
    4.4957   -9.2636   17.3041 C   0  0  0  0  0  0  0  0  0  0  0  0
   -1.8070   -5.6086   28.1920 O   0  0  0  0  0  0  0  0  0  0  0  0
   10.4296   -5.1799   28.3140 C   0  0  0  0  0  0  0  0  0  0  0  0
    6.6017   -5.9004   26.9187 C   0  0  0  0  0  0  0  0  0  0  0  0
    2.4761   -6.9940   26.4111 N   0  0  0  0  0  0  0  0  0  0  0  0
    9.1353   -5.4053   27.8239 C   0  0  0  0  0  0  0  0  0  0  0  0
    0.9922   -9.3232   16.5995 O   0  0  0  0  0  0  0  0  0  0  0  0
    1.5232   -7.6869   27.1182 C   0  0  0  0  0  0  0  0  0  0  0  0
    8.6878   -6.6715   27.7262 N   0  0  0  0  0  0  0  0  0  0  0  0
    6.9911   -8.2423   27.1808 C   0  0  0  0  0  0  0  0  0  0  0  0
    3.8436   -7.2758   16.0578 C   0  0  0  0  0  0  0  0  0  0  0  0
    3.1882   -9.7190   17.2566 C   0  0  0  0  0  0  0  0  0  0  0  0
    5.3488   -6.1737   26.5092 C   0  0  0  0  0  0  0  0  0  0  0  0
    7.4567   -6.9464   27.2858 C   0  0  0  0  0  0  0  0  0  0  0  0
    0.1921   -5.7592   27.1123 C   0  0  0  0  0  0  0  0  0  0  0  0
    3.5517   -7.7407   25.9711 C   0  0  0  0  0  0  0  0  0  0  0  0
  1  4  4  0
  1 22  4  0
  2 20  4  0
  2 27  4  0
  3 12  4  0
  3 23  4  0
  4 25  4  0
  4 28  1  0
  5  8  4  0
  5 17  4  0
  6  7  4  0
  6 16  4  0
  7 18  4  0
  8 27  4  0
  9 13  4  0
  9 23  4  0
 10 11  1  0
 11 14  2  0
 11 27  1  0
 12 19  1  0
 12 24  4  0
 13 24  4  0
 15 18  1  0
 16 25  4  0
 16 26  4  0
 17 20  4  0
 17 28  1  0
 18 21  4  0
 21 26  4  0
 22 26  4  0
M  END
$$$$

 Created by Python create_sdf_string function

 28 30  0  0  0  0  0  0  0  0999 V2000
    5.7174   -8.4529   26.7190 C   0  0  0  0  0  0  0  0  0  0  0  0
    0.3974   -7.0711   27.5149 C   0  0  0  0  0  0  0  0  0  0  0  0
    2.5338   -7.6891   16.0102 C   0  0  0  0  0  0  0  0  0  0  0  0
    4.8690   -7.4380   26.4151 C   0  0  0  0  0  0  0  0  0  0  0  0
    2.3021   -5.6726   26.0378 C   0  0  0  0  0  0  0  0  0  0  0  0
    7.0880   -4.6163   27.0010 C   0  0  0  0  0  0  0  0  0  0  0  0
    8.3117   -4.3698   27.4436 C   0  0  0  0  0  0  0  0  0  0  0  0
    1.1339   -5.0515   26.3541 C   0  0  0  0  0  0  0  0  0  0  0  0
    4.8080   -8.0362   16.7101 C   0  0  0  0  0  0  0  0  0  0  0  0
   -1.2173   -3.9294   26.9717 O   0  0  0  0  0  0  0  0  0  0  0  0
   -1.0025   -5.0942   27.4586 C   0  0  0  0  0  0  0  0  0  0  0  0
    2.2474   -8.9123   16.6273 C   0  0  0  0  0  0  0  0  0  0  0  0
    4.4957   -9.2636   17.3041 C   0  0  0  0  0  0  0  0  0  0  0  0
   -1.8070   -5.6086   28.1920 O   0  0  0  0  0  0  0  0  0  0  0  0
   10.4296   -5.1799   28.3140 C   0  0  0  0  0  0  0  0  0  0  0  0
    6.6017   -5.9004   26.9187 C   0  0  0  0  0  0  0  0  0  0  0  0
    2.4761   -6.9940   26.4111 N   0  0  0  0  0  0  0  0  0  0  0  0
    9.1353   -5.4053   27.8239 C   0  0  0  0  0  0  0  0  0  0  0  0
    0.9922   -9.3232   16.5995 O   0  0  0  0  0  0  0  0  0  0  0  0
    1.5232   -7.6869   27.1182 C   0  0  0  0  0  0  0  0  0  0  0  0
    8.6878   -6.6715   27.7262 N   0  0  0  0  0  0  0  0  0  0  0  0
    6.9911   -8.2423   27.1808 C   0  0  0  0  0  0  0  0  0  0  0  0
    3.8436   -7.2758   16.0578 C   0  0  0  0  0  0  0  0  0  0  0  0
    3.1882   -9.7190   17.2566 C   0  0  0  0  0  0  0  0  0  0  0  0
    5.3488   -6.1737   26.5092 C   0  0  0  0  0  0  0  0  0  0  0  0
    7.4567   -6.9464   27.2858 C   0  0  0  0  0  0  0  0  0  0  0  0
    0.1921   -5.7592   27.1123 C   0  0  0  0  0  0  0  0  0  0  0  0
    3.5517   -7.7407   25.9711 C   0  0  0  0  0  0  0  0  0  0  0  0
  1  4  4  0
  1 22  4  0
  2 20  4  0
  2 27  4  0
  3 12  4  0
  3 23  4  0
  4 25  4  0
  4 28  1  0
  5  8  4  0
  5 17  4  0
  6  7  4  0
  6 16  4  0
  7 18  4  0
  8 27  4  0
  9 13  4  0
  9 23  4  0
 10 11  1  0
 11 14  2  0
 11 27  1  0
 12 19  1  0
 12 24  4  0
 13 24  4  0
 15 18  1  0
 16 25  4  0
 16 26  4  0
 17 20  4  0
 17 28  1  0
 18 21  4  0
 21 26  4  0
 22 26  4  0
M  END
$$$$

 Created by Python create_sdf_string function

 28 30  0  0  0  0  0  0  0  0999 V2000
    5.7174   -8.4529   26.7190 C   0  0  0  0  0  0  0  0  0  0  0  0
    0.3974   -7.0711   27.5149 C   0  0  0  0  0  0  0  0  0  0  0  0
    2.5338   -7.6891   16.0102 C   0  0  0  0  0  0  0  0  0  0  0  0
    4.8690   -7.4380   26.4151 C   0  0  0  0  0  0  0  0  0  0  0  0
    2.3021   -5.6726   26.0378 C   0  0  0  0  0  0  0  0  0  0  0  0
    7.0880   -4.6163   27.0010 C   0  0  0  0  0  0  0  0  0  0  0  0
    8.3117   -4.3698   27.4436 C   0  0  0  0  0  0  0  0  0  0  0  0
    1.1339   -5.0515   26.3541 C   0  0  0  0  0  0  0  0  0  0  0  0
    4.8080   -8.0362   16.7101 C   0  0  0  0  0  0  0  0  0  0  0  0
   -1.2173   -3.9294   26.9717 O   0  0  0  0  0  0  0  0  0  0  0  0
   -1.0025   -5.0942   27.4586 C   0  0  0  0  0  0  0  0  0  0  0  0
    2.2474   -8.9123   16.6273 C   0  0  0  0  0  0  0  0  0  0  0  0
    4.4957   -9.2636   17.3041 C   0  0  0  0  0  0  0  0  0  0  0  0
   -1.8070   -5.6086   28.1920 O   0  0  0  0  0  0  0  0  0  0  0  0
   10.4296   -5.1799   28.3140 C   0  0  0  0  0  0  0  0  0  0  0  0
    6.6017   -5.9004   26.9187 C   0  0  0  0  0  0  0  0  0  0  0  0
    2.4761   -6.9940   26.4111 N   0  0  0  0  0  0  0  0  0  0  0  0
    9.1353   -5.4053   27.8239 C   0  0  0  0  0  0  0  0  0  0  0  0
    0.9922   -9.3232   16.5995 O   0  0  0  0  0  0  0  0  0  0  0  0
    1.5232   -7.6869   27.1182 C   0  0  0  0  0  0  0  0  0  0  0  0
    8.6878   -6.6715   27.7262 N   0  0  0  0  0  0  0  0  0  0  0  0
    6.9911   -8.2423   27.1808 C   0  0  0  0  0  0  0  0  0  0  0  0
    3.8436   -7.2758   16.0578 C   0  0  0  0  0  0  0  0  0  0  0  0
    3.1882   -9.7190   17.2566 C   0  0  0  0  0  0  0  0  0  0  0  0
    5.3488   -6.1737   26.5092 C   0  0  0  0  0  0  0  0  0  0  0  0
    7.4567   -6.9464   27.2858 C   0  0  0  0  0  0  0  0  0  0  0  0
    0.1921   -5.7592   27.1123 C   0  0  0  0  0  0  0  0  0  0  0  0
    3.5517   -7.7407   25.9711 C   0  0  0  0  0  0  0  0  0  0  0  0
  1  4  4  0
  1 22  4  0
  2 20  4  0
  2 27  4  0
  3 12  4  0
  3 23  4  0
  4 25  4  0
  4 28  1  0
  5  8  4  0
  5 17  4  0
  6  7  4  0
  6 16  4  0
  7 18  4  0
  8 27  4  0
  9 13  4  0
  9 23  4  0
 10 11  1  0
 11 14  2  0
 11 27  1  0
 12 19  1  0
 12 24  4  0
 13 24  4  0
 15 18  1  0
 16 25  4  0
 16 26  4  0
 17 20  4  0
 17 28  1  0
 18 21  4  0
 21 26  4  0
 22 26  4  0
M  END
$$$$

 Created by Python create_sdf_string function

 28 30  0  0  0  0  0  0  0  0999 V2000
    5.7174   -8.4529   26.7190 C   0  0  0  0  0  0  0  0  0  0  0  0
    0.3974   -7.0711   27.5149 C   0  0  0  0  0  0  0  0  0  0  0  0
    2.5338   -7.6891   16.0102 C   0  0  0  0  0  0  0  0  0  0  0  0
    4.8690   -7.4380   26.4151 C   0  0  0  0  0  0  0  0  0  0  0  0
    2.3021   -5.6726   26.0378 C   0  0  0  0  0  0  0  0  0  0  0  0
    7.0880   -4.6163   27.0010 C   0  0  0  0  0  0  0  0  0  0  0  0
    8.3117   -4.3698   27.4436 C   0  0  0  0  0  0  0  0  0  0  0  0
    1.1339   -5.0515   26.3541 C   0  0  0  0  0  0  0  0  0  0  0  0
    4.8080   -8.0362   16.7101 C   0  0  0  0  0  0  0  0  0  0  0  0
   -1.2173   -3.9294   26.9717 O   0  0  0  0  0  0  0  0  0  0  0  0
   -1.0025   -5.0942   27.4586 C   0  0  0  0  0  0  0  0  0  0  0  0
    2.2474   -8.9123   16.6273 C   0  0  0  0  0  0  0  0  0  0  0  0
    4.4957   -9.2636   17.3041 C   0  0  0  0  0  0  0  0  0  0  0  0
   -1.8070   -5.6086   28.1920 O   0  0  0  0  0  0  0  0  0  0  0  0
   10.4296   -5.1799   28.3140 C   0  0  0  0  0  0  0  0  0  0  0  0
    6.6017   -5.9004   26.9187 C   0  0  0  0  0  0  0  0  0  0  0  0
    2.4761   -6.9940   26.4111 N   0  0  0  0  0  0  0  0  0  0  0  0
    9.1353   -5.4053   27.8239 C   0  0  0  0  0  0  0  0  0  0  0  0
    0.9922   -9.3232   16.5995 O   0  0  0  0  0  0  0  0  0  0  0  0
    1.5232   -7.6869   27.1182 C   0  0  0  0  0  0  0  0  0  0  0  0
    8.6878   -6.6715   27.7262 N   0  0  0  0  0  0  0  0  0  0  0  0
    6.9911   -8.2423   27.1808 C   0  0  0  0  0  0  0  0  0  0  0  0
    3.8436   -7.2758   16.0578 C   0  0  0  0  0  0  0  0  0  0  0  0
    3.1882   -9.7190   17.2566 C   0  0  0  0  0  0  0  0  0  0  0  0
    5.3488   -6.1737   26.5092 C   0  0  0  0  0  0  0  0  0  0  0  0
    7.4567   -6.9464   27.2858 C   0  0  0  0  0  0  0  0  0  0  0  0
    0.1921   -5.7592   27.1123 C   0  0  0  0  0  0  0  0  0  0  0  0
    3.5517   -7.7407   25.9711 C   0  0  0  0  0  0  0  0  0  0  0  0
  1  4  4  0
  1 22  4  0
  2 20  4  0
  2 27  4  0
  3 12  4  0
  3 23  4  0
  4 25  4  0
  4 28  1  0
  5  8  4  0
  5 17  4  0
  6  7  4  0
  6 16  4  0
  7 18  4  0
  8 27  4  0
  9 13  4  0
  9 23  4  0
 10 11  1  0
 11 14  2  0
 11 27  1  0
 12 19  1  0
 12 24  4  0
 13 24  4  0
 15 18  1  0
 16 25  4  0
 16 26  4  0
 17 20  4  0
 17 28  1  0
 18 21  4  0
 21 26  4  0
 22 26  4  0
M  END
$$$$

 Created by Python create_sdf_string function

 28 30  0  0  0  0  0  0  0  0999 V2000
    5.7174   -8.4529   26.7190 C   0  0  0  0  0  0  0  0  0  0  0  0
    0.3974   -7.0711   27.5149 C   0  0  0  0  0  0  0  0  0  0  0  0
    2.5338   -7.6891   16.0102 C   0  0  0  0  0  0  0  0  0  0  0  0
    4.8690   -7.4380   26.4151 C   0  0  0  0  0  0  0  0  0  0  0  0
    2.3021   -5.6726   26.0378 C   0  0  0  0  0  0  0  0  0  0  0  0
    7.0880   -4.6163   27.0010 C   0  0  0  0  0  0  0  0  0  0  0  0
    8.3117   -4.3698   27.4436 C   0  0  0  0  0  0  0  0  0  0  0  0
    1.1339   -5.0515   26.3541 C   0  0  0  0  0  0  0  0  0  0  0  0
    4.8080   -8.0362   16.7101 C   0  0  0  0  0  0  0  0  0  0  0  0
   -1.2173   -3.9294   26.9717 O   0  0  0  0  0  0  0  0  0  0  0  0
   -1.0025   -5.0942   27.4586 C   0  0  0  0  0  0  0  0  0  0  0  0
    2.2474   -8.9123   16.6273 C   0  0  0  0  0  0  0  0  0  0  0  0
    4.4957   -9.2636   17.3041 C   0  0  0  0  0  0  0  0  0  0  0  0
   -1.8070   -5.6086   28.1920 O   0  0  0  0  0  0  0  0  0  0  0  0
   10.4296   -5.1799   28.3140 C   0  0  0  0  0  0  0  0  0  0  0  0
    6.6017   -5.9004   26.9187 C   0  0  0  0  0  0  0  0  0  0  0  0
    2.4761   -6.9940   26.4111 N   0  0  0  0  0  0  0  0  0  0  0  0
    9.1353   -5.4053   27.8239 C   0  0  0  0  0  0  0  0  0  0  0  0
    0.9922   -9.3232   16.5995 O   0  0  0  0  0  0  0  0  0  0  0  0
    1.5232   -7.6869   27.1182 C   0  0  0  0  0  0  0  0  0  0  0  0
    8.6878   -6.6715   27.7262 N   0  0  0  0  0  0  0  0  0  0  0  0
    6.9911   -8.2423   27.1808 C   0  0  0  0  0  0  0  0  0  0  0  0
    3.8436   -7.2758   16.0578 C   0  0  0  0  0  0  0  0  0  0  0  0
    3.1882   -9.7190   17.2566 C   0  0  0  0  0  0  0  0  0  0  0  0
    5.3488   -6.1737   26.5092 C   0  0  0  0  0  0  0  0  0  0  0  0
    7.4567   -6.9464   27.2858 C   0  0  0  0  0  0  0  0  0  0  0  0
    0.1921   -5.7592   27.1123 C   0  0  0  0  0  0  0  0  0  0  0  0
    3.5517   -7.7407   25.9711 C   0  0  0  0  0  0  0  0  0  0  0  0
  1  4  4  0
  1 22  4  0
  2 20  4  0
  2 27  4  0
  3 12  4  0
  3 23  4  0
  4 25  4  0
  4 28  1  0
  5  8  4  0
  5 17  4  0
  6  7  4  0
  6 16  4  0
  7 18  4  0
  8 27  4  0
  9 13  4  0
  9 23  4  0
 10 11  1  0
 11 14  2  0
 11 27  1  0
 12 19  1  0
 12 24  4  0
 13 24  4  0
 15 18  1  0
 16 25  4  0
 16 26  4  0
 17 20  4  0
 17 28  1  0
 18 21  4  0
 21 26  4  0
 22 26  4  0
M  END
$$$$

 Created by Python create_sdf_string function

 28 30  0  0  0  0  0  0  0  0999 V2000
    5.7174   -8.4529   26.7190 C   0  0  0  0  0  0  0  0  0  0  0  0
    0.3974   -7.0711   27.5149 C   0  0  0  0  0  0  0  0  0  0  0  0
    2.5338   -7.6891   16.0102 C   0  0  0  0  0  0  0  0  0  0  0  0
    4.8690   -7.4380   26.4151 C   0  0  0  0  0  0  0  0  0  0  0  0
    2.3021   -5.6726   26.0378 C   0  0  0  0  0  0  0  0  0  0  0  0
    7.0880   -4.6163   27.0010 C   0  0  0  0  0  0  0  0  0  0  0  0
    8.3117   -4.3698   27.4436 C   0  0  0  0  0  0  0  0  0  0  0  0
    1.1339   -5.0515   26.3541 C   0  0  0  0  0  0  0  0  0  0  0  0
    4.8080   -8.0362   16.7101 C   0  0  0  0  0  0  0  0  0  0  0  0
   -1.2173   -3.9294   26.9717 O   0  0  0  0  0  0  0  0  0  0  0  0
   -1.0025   -5.0942   27.4586 C   0  0  0  0  0  0  0  0  0  0  0  0
    2.2474   -8.9123   16.6273 C   0  0  0  0  0  0  0  0  0  0  0  0
    4.4957   -9.2636   17.3041 C   0  0  0  0  0  0  0  0  0  0  0  0
   -1.8070   -5.6086   28.1920 O   0  0  0  0  0  0  0  0  0  0  0  0
   10.4296   -5.1799   28.3140 C   0  0  0  0  0  0  0  0  0  0  0  0
    6.6017   -5.9004   26.9187 C   0  0  0  0  0  0  0  0  0  0  0  0
    2.4761   -6.9940   26.4111 N   0  0  0  0  0  0  0  0  0  0  0  0
    9.1353   -5.4053   27.8239 C   0  0  0  0  0  0  0  0  0  0  0  0
    0.9922   -9.3232   16.5995 O   0  0  0  0  0  0  0  0  0  0  0  0
    1.5232   -7.6869   27.1182 C   0  0  0  0  0  0  0  0  0  0  0  0
    8.6878   -6.6715   27.7262 N   0  0  0  0  0  0  0  0  0  0  0  0
    6.9911   -8.2423   27.1808 C   0  0  0  0  0  0  0  0  0  0  0  0
    3.8436   -7.2758   16.0578 C   0  0  0  0  0  0  0  0  0  0  0  0
    3.1882   -9.7190   17.2566 C   0  0  0  0  0  0  0  0  0  0  0  0
    5.3488   -6.1737   26.5092 C   0  0  0  0  0  0  0  0  0  0  0  0
    7.4567   -6.9464   27.2858 C   0  0  0  0  0  0  0  0  0  0  0  0
    0.1921   -5.7592   27.1123 C   0  0  0  0  0  0  0  0  0  0  0  0
    3.5517   -7.7407   25.9711 C   0  0  0  0  0  0  0  0  0  0  0  0
  1  4  4  0
  1 22  4  0
  2 20  4  0
  2 27  4  0
  3 12  4  0
  3 23  4  0
  4 25  4  0
  4 28  1  0
  5  8  4  0
  5 17  4  0
  6  7  4  0
  6 16  4  0
  7 18  4  0
  8 27  4  0
  9 13  4  0
  9 23  4  0
 10 11  1  0
 11 14  2  0
 11 27  1  0
 12 19  1  0
 12 24  4  0
 13 24  4  0
 15 18  1  0
 16 25  4  0
 16 26  4  0
 17 20  4  0
 17 28  1  0
 18 21  4  0
 21 26  4  0
 22 26  4  0
M  END
$$$$

 Created by Python create_sdf_string function

 28 30  0  0  0  0  0  0  0  0999 V2000
    5.7174   -8.4529   26.7190 C   0  0  0  0  0  0  0  0  0  0  0  0
    0.3974   -7.0711   27.5149 C   0  0  0  0  0  0  0  0  0  0  0  0
    2.5338   -7.6891   16.0102 C   0  0  0  0  0  0  0  0  0  0  0  0
    4.8690   -7.4380   26.4151 C   0  0  0  0  0  0  0  0  0  0  0  0
    2.3021   -5.6726   26.0378 C   0  0  0  0  0  0  0  0  0  0  0  0
    7.0880   -4.6163   27.0010 C   0  0  0  0  0  0  0  0  0  0  0  0
    8.3117   -4.3698   27.4436 C   0  0  0  0  0  0  0  0  0  0  0  0
    1.1339   -5.0515   26.3541 C   0  0  0  0  0  0  0  0  0  0  0  0
    4.8080   -8.0362   16.7101 C   0  0  0  0  0  0  0  0  0  0  0  0
   -1.2173   -3.9294   26.9717 O   0  0  0  0  0  0  0  0  0  0  0  0
   -1.0025   -5.0942   27.4586 C   0  0  0  0  0  0  0  0  0  0  0  0
    2.2474   -8.9123   16.6273 C   0  0  0  0  0  0  0  0  0  0  0  0
    4.4957   -9.2636   17.3041 C   0  0  0  0  0  0  0  0  0  0  0  0
   -1.8070   -5.6086   28.1920 O   0  0  0  0  0  0  0  0  0  0  0  0
   10.4296   -5.1799   28.3140 C   0  0  0  0  0  0  0  0  0  0  0  0
    6.6017   -5.9004   26.9187 C   0  0  0  0  0  0  0  0  0  0  0  0
    2.4761   -6.9940   26.4111 N   0  0  0  0  0  0  0  0  0  0  0  0
    9.1353   -5.4053   27.8239 C   0  0  0  0  0  0  0  0  0  0  0  0
    0.9922   -9.3232   16.5995 O   0  0  0  0  0  0  0  0  0  0  0  0
    1.5232   -7.6869   27.1182 C   0  0  0  0  0  0  0  0  0  0  0  0
    8.6878   -6.6715   27.7262 N   0  0  0  0  0  0  0  0  0  0  0  0
    6.9911   -8.2423   27.1808 C   0  0  0  0  0  0  0  0  0  0  0  0
    3.8436   -7.2758   16.0578 C   0  0  0  0  0  0  0  0  0  0  0  0
    3.1882   -9.7190   17.2566 C   0  0  0  0  0  0  0  0  0  0  0  0
    5.3488   -6.1737   26.5092 C   0  0  0  0  0  0  0  0  0  0  0  0
    7.4567   -6.9464   27.2858 C   0  0  0  0  0  0  0  0  0  0  0  0
    0.1921   -5.7592   27.1123 C   0  0  0  0  0  0  0  0  0  0  0  0
    3.5517   -7.7407   25.9711 C   0  0  0  0  0  0  0  0  0  0  0  0
  1  4  4  0
  1 22  4  0
  2 20  4  0
  2 27  4  0
  3 12  4  0
  3 23  4  0
  4 25  4  0
  4 28  1  0
  5  8  4  0
  5 17  4  0
  6  7  4  0
  6 16  4  0
  7 18  4  0
  8 27  4  0
  9 13  4  0
  9 23  4  0
 10 11  1  0
 11 14  2  0
 11 27  1  0
 12 19  1  0
 12 24  4  0
 13 24  4  0
 15 18  1  0
 16 25  4  0
 16 26  4  0
 17 20  4  0
 17 28  1  0
 18 21  4  0
 21 26  4  0
 22 26  4  0
M  END
$$$$

 Created by Python create_sdf_string function

 28 30  0  0  0  0  0  0  0  0999 V2000
    5.7174   -8.4529   26.7190 C   0  0  0  0  0  0  0  0  0  0  0  0
    0.3974   -7.0711   27.5149 C   0  0  0  0  0  0  0  0  0  0  0  0
    2.5338   -7.6891   16.0102 C   0  0  0  0  0  0  0  0  0  0  0  0
    4.8690   -7.4380   26.4151 C   0  0  0  0  0  0  0  0  0  0  0  0
    2.3021   -5.6726   26.0378 C   0  0  0  0  0  0  0  0  0  0  0  0
    7.0880   -4.6163   27.0010 C   0  0  0  0  0  0  0  0  0  0  0  0
    8.3117   -4.3698   27.4436 C   0  0  0  0  0  0  0  0  0  0  0  0
    1.1339   -5.0515   26.3541 C   0  0  0  0  0  0  0  0  0  0  0  0
    4.8080   -8.0362   16.7101 C   0  0  0  0  0  0  0  0  0  0  0  0
   -1.2173   -3.9294   26.9717 O   0  0  0  0  0  0  0  0  0  0  0  0
   -1.0025   -5.0942   27.4586 C   0  0  0  0  0  0  0  0  0  0  0  0
    2.2474   -8.9123   16.6273 C   0  0  0  0  0  0  0  0  0  0  0  0
    4.4957   -9.2636   17.3041 C   0  0  0  0  0  0  0  0  0  0  0  0
   -1.8070   -5.6086   28.1920 O   0  0  0  0  0  0  0  0  0  0  0  0
   10.4296   -5.1799   28.3140 C   0  0  0  0  0  0  0  0  0  0  0  0
    6.6017   -5.9004   26.9187 C   0  0  0  0  0  0  0  0  0  0  0  0
    2.4761   -6.9940   26.4111 N   0  0  0  0  0  0  0  0  0  0  0  0
    9.1353   -5.4053   27.8239 C   0  0  0  0  0  0  0  0  0  0  0  0
    0.9922   -9.3232   16.5995 O   0  0  0  0  0  0  0  0  0  0  0  0
    1.5232   -7.6869   27.1182 C   0  0  0  0  0  0  0  0  0  0  0  0
    8.6878   -6.6715   27.7262 N   0  0  0  0  0  0  0  0  0  0  0  0
    6.9911   -8.2423   27.1808 C   0  0  0  0  0  0  0  0  0  0  0  0
    3.8436   -7.2758   16.0578 C   0  0  0  0  0  0  0  0  0  0  0  0
    3.1882   -9.7190   17.2566 C   0  0  0  0  0  0  0  0  0  0  0  0
    5.3488   -6.1737   26.5092 C   0  0  0  0  0  0  0  0  0  0  0  0
    7.4567   -6.9464   27.2858 C   0  0  0  0  0  0  0  0  0  0  0  0
    0.1921   -5.7592   27.1123 C   0  0  0  0  0  0  0  0  0  0  0  0
    3.5517   -7.7407   25.9711 C   0  0  0  0  0  0  0  0  0  0  0  0
  1  4  4  0
  1 22  4  0
  2 20  4  0
  2 27  4  0
  3 12  4  0
  3 23  4  0
  4 25  4  0
  4 28  1  0
  5  8  4  0
  5 17  4  0
  6  7  4  0
  6 16  4  0
  7 18  4  0
  8 27  4  0
  9 13  4  0
  9 23  4  0
 10 11  1  0
 11 14  2  0
 11 27  1  0
 12 19  1  0
 12 24  4  0
 13 24  4  0
 15 18  1  0
 16 25  4  0
 16 26  4  0
 17 20  4  0
 17 28  1  0
 18 21  4  0
 21 26  4  0
 22 26  4  0
M  END
$$$$

 Created by Python create_sdf_string function

 28 30  0  0  0  0  0  0  0  0999 V2000
    5.7174   -8.4529   26.7190 C   0  0  0  0  0  0  0  0  0  0  0  0
    0.3974   -7.0711   27.5149 C   0  0  0  0  0  0  0  0  0  0  0  0
    2.5338   -7.6891   16.0102 C   0  0  0  0  0  0  0  0  0  0  0  0
    4.8690   -7.4380   26.4151 C   0  0  0  0  0  0  0  0  0  0  0  0
    2.3021   -5.6726   26.0378 C   0  0  0  0  0  0  0  0  0  0  0  0
    7.0880   -4.6163   27.0010 C   0  0  0  0  0  0  0  0  0  0  0  0
    8.3117   -4.3698   27.4436 C   0  0  0  0  0  0  0  0  0  0  0  0
    1.1339   -5.0515   26.3541 C   0  0  0  0  0  0  0  0  0  0  0  0
    4.8080   -8.0362   16.7101 C   0  0  0  0  0  0  0  0  0  0  0  0
   -1.2173   -3.9294   26.9717 O   0  0  0  0  0  0  0  0  0  0  0  0
   -1.0025   -5.0942   27.4586 C   0  0  0  0  0  0  0  0  0  0  0  0
    2.2474   -8.9123   16.6273 C   0  0  0  0  0  0  0  0  0  0  0  0
    4.4957   -9.2636   17.3041 C   0  0  0  0  0  0  0  0  0  0  0  0
   -1.8070   -5.6086   28.1920 O   0  0  0  0  0  0  0  0  0  0  0  0
   10.4296   -5.1799   28.3140 C   0  0  0  0  0  0  0  0  0  0  0  0
    6.6017   -5.9004   26.9187 C   0  0  0  0  0  0  0  0  0  0  0  0
    2.4761   -6.9940   26.4111 N   0  0  0  0  0  0  0  0  0  0  0  0
    9.1353   -5.4053   27.8239 C   0  0  0  0  0  0  0  0  0  0  0  0
    0.9922   -9.3232   16.5995 O   0  0  0  0  0  0  0  0  0  0  0  0
    1.5232   -7.6869   27.1182 C   0  0  0  0  0  0  0  0  0  0  0  0
    8.6878   -6.6715   27.7262 N   0  0  0  0  0  0  0  0  0  0  0  0
    6.9911   -8.2423   27.1808 C   0  0  0  0  0  0  0  0  0  0  0  0
    3.8436   -7.2758   16.0578 C   0  0  0  0  0  0  0  0  0  0  0  0
    3.1882   -9.7190   17.2566 C   0  0  0  0  0  0  0  0  0  0  0  0
    5.3488   -6.1737   26.5092 C   0  0  0  0  0  0  0  0  0  0  0  0
    7.4567   -6.9464   27.2858 C   0  0  0  0  0  0  0  0  0  0  0  0
    0.1921   -5.7592   27.1123 C   0  0  0  0  0  0  0  0  0  0  0  0
    3.5517   -7.7407   25.9711 C   0  0  0  0  0  0  0  0  0  0  0  0
  1  4  4  0
  1 22  4  0
  2 20  4  0
  2 27  4  0
  3 12  4  0
  3 23  4  0
  4 25  4  0
  4 28  1  0
  5  8  4  0
  5 17  4  0
  6  7  4  0
  6 16  4  0
  7 18  4  0
  8 27  4  0
  9 13  4  0
  9 23  4  0
 10 11  1  0
 11 14  2  0
 11 27  1  0
 12 19  1  0
 12 24  4  0
 13 24  4  0
 15 18  1  0
 16 25  4  0
 16 26  4  0
 17 20  4  0
 17 28  1  0
 18 21  4  0
 21 26  4  0
 22 26  4  0
M  END
$$$$

 Created by Python create_sdf_string function

 28 30  0  0  0  0  0  0  0  0999 V2000
    5.7174   -8.4529   26.7190 C   0  0  0  0  0  0  0  0  0  0  0  0
    0.3974   -7.0711   27.5149 C   0  0  0  0  0  0  0  0  0  0  0  0
    2.5338   -7.6891   16.0102 C   0  0  0  0  0  0  0  0  0  0  0  0
    4.8690   -7.4380   26.4151 C   0  0  0  0  0  0  0  0  0  0  0  0
    2.3021   -5.6726   26.0378 C   0  0  0  0  0  0  0  0  0  0  0  0
    7.0880   -4.6163   27.0010 C   0  0  0  0  0  0  0  0  0  0  0  0
    8.3117   -4.3698   27.4436 C   0  0  0  0  0  0  0  0  0  0  0  0
    1.1339   -5.0515   26.3541 C   0  0  0  0  0  0  0  0  0  0  0  0
    4.8080   -8.0362   16.7101 C   0  0  0  0  0  0  0  0  0  0  0  0
   -1.2173   -3.9294   26.9717 O   0  0  0  0  0  0  0  0  0  0  0  0
   -1.0025   -5.0942   27.4586 C   0  0  0  0  0  0  0  0  0  0  0  0
    2.2474   -8.9123   16.6273 C   0  0  0  0  0  0  0  0  0  0  0  0
    4.4957   -9.2636   17.3041 C   0  0  0  0  0  0  0  0  0  0  0  0
   -1.8070   -5.6086   28.1920 O   0  0  0  0  0  0  0  0  0  0  0  0
   10.4296   -5.1799   28.3140 C   0  0  0  0  0  0  0  0  0  0  0  0
    6.6017   -5.9004   26.9187 C   0  0  0  0  0  0  0  0  0  0  0  0
    2.4761   -6.9940   26.4111 N   0  0  0  0  0  0  0  0  0  0  0  0
    9.1353   -5.4053   27.8239 C   0  0  0  0  0  0  0  0  0  0  0  0
    0.9922   -9.3232   16.5995 O   0  0  0  0  0  0  0  0  0  0  0  0
    1.5232   -7.6869   27.1182 C   0  0  0  0  0  0  0  0  0  0  0  0
    8.6878   -6.6715   27.7262 N   0  0  0  0  0  0  0  0  0  0  0  0
    6.9911   -8.2423   27.1808 C   0  0  0  0  0  0  0  0  0  0  0  0
    3.8436   -7.2758   16.0578 C   0  0  0  0  0  0  0  0  0  0  0  0
    3.1882   -9.7190   17.2566 C   0  0  0  0  0  0  0  0  0  0  0  0
    5.3488   -6.1737   26.5092 C   0  0  0  0  0  0  0  0  0  0  0  0
    7.4567   -6.9464   27.2858 C   0  0  0  0  0  0  0  0  0  0  0  0
    0.1921   -5.7592   27.1123 C   0  0  0  0  0  0  0  0  0  0  0  0
    3.5517   -7.7407   25.9711 C   0  0  0  0  0  0  0  0  0  0  0  0
  1  4  4  0
  1 22  4  0
  2 20  4  0
  2 27  4  0
  3 12  4  0
  3 23  4  0
  4 25  4  0
  4 28  1  0
  5  8  4  0
  5 17  4  0
  6  7  4  0
  6 16  4  0
  7 18  4  0
  8 27  4  0
  9 13  4  0
  9 23  4  0
 10 11  1  0
 11 14  2  0
 11 27  1  0
 12 19  1  0
 12 24  4  0
 13 24  4  0
 15 18  1  0
 16 25  4  0
 16 26  4  0
 17 20  4  0
 17 28  1  0
 18 21  4  0
 21 26  4  0
 22 26  4  0
M  END
$$$$

 Created by Python create_sdf_string function

 28 30  0  0  0  0  0  0  0  0999 V2000
    5.7174   -8.4529   26.7190 C   0  0  0  0  0  0  0  0  0  0  0  0
    0.3974   -7.0711   27.5149 C   0  0  0  0  0  0  0  0  0  0  0  0
    2.5338   -7.6891   16.0102 C   0  0  0  0  0  0  0  0  0  0  0  0
    4.8690   -7.4380   26.4151 C   0  0  0  0  0  0  0  0  0  0  0  0
    2.3021   -5.6726   26.0378 C   0  0  0  0  0  0  0  0  0  0  0  0
    7.0880   -4.6163   27.0010 C   0  0  0  0  0  0  0  0  0  0  0  0
    8.3117   -4.3698   27.4436 C   0  0  0  0  0  0  0  0  0  0  0  0
    1.1339   -5.0515   26.3541 C   0  0  0  0  0  0  0  0  0  0  0  0
    4.8080   -8.0362   16.7101 C   0  0  0  0  0  0  0  0  0  0  0  0
   -1.2173   -3.9294   26.9717 O   0  0  0  0  0  0  0  0  0  0  0  0
   -1.0025   -5.0942   27.4586 C   0  0  0  0  0  0  0  0  0  0  0  0
    2.2474   -8.9123   16.6273 C   0  0  0  0  0  0  0  0  0  0  0  0
    4.4957   -9.2636   17.3041 C   0  0  0  0  0  0  0  0  0  0  0  0
   -1.8070   -5.6086   28.1920 O   0  0  0  0  0  0  0  0  0  0  0  0
   10.4296   -5.1799   28.3140 C   0  0  0  0  0  0  0  0  0  0  0  0
    6.6017   -5.9004   26.9187 C   0  0  0  0  0  0  0  0  0  0  0  0
    2.4761   -6.9940   26.4111 N   0  0  0  0  0  0  0  0  0  0  0  0
    9.1353   -5.4053   27.8239 C   0  0  0  0  0  0  0  0  0  0  0  0
    0.9922   -9.3232   16.5995 O   0  0  0  0  0  0  0  0  0  0  0  0
    1.5232   -7.6869   27.1182 C   0  0  0  0  0  0  0  0  0  0  0  0
    8.6878   -6.6715   27.7262 N   0  0  0  0  0  0  0  0  0  0  0  0
    6.9911   -8.2423   27.1808 C   0  0  0  0  0  0  0  0  0  0  0  0
    3.8436   -7.2758   16.0578 C   0  0  0  0  0  0  0  0  0  0  0  0
    3.1882   -9.7190   17.2566 C   0  0  0  0  0  0  0  0  0  0  0  0
    5.3488   -6.1737   26.5092 C   0  0  0  0  0  0  0  0  0  0  0  0
    7.4567   -6.9464   27.2858 C   0  0  0  0  0  0  0  0  0  0  0  0
    0.1921   -5.7592   27.1123 C   0  0  0  0  0  0  0  0  0  0  0  0
    3.5517   -7.7407   25.9711 C   0  0  0  0  0  0  0  0  0  0  0  0
  1  4  4  0
  1 22  4  0
  2 20  4  0
  2 27  4  0
  3 12  4  0
  3 23  4  0
  4 25  4  0
  4 28  1  0
  5  8  4  0
  5 17  4  0
  6  7  4  0
  6 16  4  0
  7 18  4  0
  8 27  4  0
  9 13  4  0
  9 23  4  0
 10 11  1  0
 11 14  2  0
 11 27  1  0
 12 19  1  0
 12 24  4  0
 13 24  4  0
 15 18  1  0
 16 25  4  0
 16 26  4  0
 17 20  4  0
 17 28  1  0
 18 21  4  0
 21 26  4  0
 22 26  4  0
M  END
$$$$

 Created by Python create_sdf_string function

 28 30  0  0  0  0  0  0  0  0999 V2000
    5.7174   -8.4529   26.7190 C   0  0  0  0  0  0  0  0  0  0  0  0
    0.3974   -7.0711   27.5149 C   0  0  0  0  0  0  0  0  0  0  0  0
    2.5338   -7.6891   16.0102 C   0  0  0  0  0  0  0  0  0  0  0  0
    4.8690   -7.4380   26.4151 C   0  0  0  0  0  0  0  0  0  0  0  0
    2.3021   -5.6726   26.0378 C   0  0  0  0  0  0  0  0  0  0  0  0
    7.0880   -4.6163   27.0010 C   0  0  0  0  0  0  0  0  0  0  0  0
    8.3117   -4.3698   27.4436 C   0  0  0  0  0  0  0  0  0  0  0  0
    1.1339   -5.0515   26.3541 C   0  0  0  0  0  0  0  0  0  0  0  0
    4.8080   -8.0362   16.7101 C   0  0  0  0  0  0  0  0  0  0  0  0
   -1.2173   -3.9294   26.9717 O   0  0  0  0  0  0  0  0  0  0  0  0
   -1.0025   -5.0942   27.4586 C   0  0  0  0  0  0  0  0  0  0  0  0
    2.2474   -8.9123   16.6273 C   0  0  0  0  0  0  0  0  0  0  0  0
    4.4957   -9.2636   17.3041 C   0  0  0  0  0  0  0  0  0  0  0  0
   -1.8070   -5.6086   28.1920 O   0  0  0  0  0  0  0  0  0  0  0  0
   10.4296   -5.1799   28.3140 C   0  0  0  0  0  0  0  0  0  0  0  0
    6.6017   -5.9004   26.9187 C   0  0  0  0  0  0  0  0  0  0  0  0
    2.4761   -6.9940   26.4111 N   0  0  0  0  0  0  0  0  0  0  0  0
    9.1353   -5.4053   27.8239 C   0  0  0  0  0  0  0  0  0  0  0  0
    0.9922   -9.3232   16.5995 O   0  0  0  0  0  0  0  0  0  0  0  0
    1.5232   -7.6869   27.1182 C   0  0  0  0  0  0  0  0  0  0  0  0
    8.6878   -6.6715   27.7262 N   0  0  0  0  0  0  0  0  0  0  0  0
    6.9911   -8.2423   27.1808 C   0  0  0  0  0  0  0  0  0  0  0  0
    3.8436   -7.2758   16.0578 C   0  0  0  0  0  0  0  0  0  0  0  0
    3.1882   -9.7190   17.2566 C   0  0  0  0  0  0  0  0  0  0  0  0
    5.3488   -6.1737   26.5092 C   0  0  0  0  0  0  0  0  0  0  0  0
    7.4567   -6.9464   27.2858 C   0  0  0  0  0  0  0  0  0  0  0  0
    0.1921   -5.7592   27.1123 C   0  0  0  0  0  0  0  0  0  0  0  0
    3.5517   -7.7407   25.9711 C   0  0  0  0  0  0  0  0  0  0  0  0
  1  4  4  0
  1 22  4  0
  2 20  4  0
  2 27  4  0
  3 12  4  0
  3 23  4  0
  4 25  4  0
  4 28  1  0
  5  8  4  0
  5 17  4  0
  6  7  4  0
  6 16  4  0
  7 18  4  0
  8 27  4  0
  9 13  4  0
  9 23  4  0
 10 11  1  0
 11 14  2  0
 11 27  1  0
 12 19  1  0
 12 24  4  0
 13 24  4  0
 15 18  1  0
 16 25  4  0
 16 26  4  0
 17 20  4  0
 17 28  1  0
 18 21  4  0
 21 26  4  0
 22 26  4  0
M  END
$$$$

 Created by Python create_sdf_string function

 28 30  0  0  0  0  0  0  0  0999 V2000
    5.7174   -8.4529   26.7190 C   0  0  0  0  0  0  0  0  0  0  0  0
    0.3974   -7.0711   27.5149 C   0  0  0  0  0  0  0  0  0  0  0  0
    2.5338   -7.6891   16.0102 C   0  0  0  0  0  0  0  0  0  0  0  0
    4.8690   -7.4380   26.4151 C   0  0  0  0  0  0  0  0  0  0  0  0
    2.3021   -5.6726   26.0378 C   0  0  0  0  0  0  0  0  0  0  0  0
    7.0880   -4.6163   27.0010 C   0  0  0  0  0  0  0  0  0  0  0  0
    8.3117   -4.3698   27.4436 C   0  0  0  0  0  0  0  0  0  0  0  0
    1.1339   -5.0515   26.3541 C   0  0  0  0  0  0  0  0  0  0  0  0
    4.8080   -8.0362   16.7101 C   0  0  0  0  0  0  0  0  0  0  0  0
   -1.2173   -3.9294   26.9717 O   0  0  0  0  0  0  0  0  0  0  0  0
   -1.0025   -5.0942   27.4586 C   0  0  0  0  0  0  0  0  0  0  0  0
    2.2474   -8.9123   16.6273 C   0  0  0  0  0  0  0  0  0  0  0  0
    4.4957   -9.2636   17.3041 C   0  0  0  0  0  0  0  0  0  0  0  0
   -1.8070   -5.6086   28.1920 O   0  0  0  0  0  0  0  0  0  0  0  0
   10.4296   -5.1799   28.3140 C   0  0  0  0  0  0  0  0  0  0  0  0
    6.6017   -5.9004   26.9187 C   0  0  0  0  0  0  0  0  0  0  0  0
    2.4761   -6.9940   26.4111 N   0  0  0  0  0  0  0  0  0  0  0  0
    9.1353   -5.4053   27.8239 C   0  0  0  0  0  0  0  0  0  0  0  0
    0.9922   -9.3232   16.5995 O   0  0  0  0  0  0  0  0  0  0  0  0
    1.5232   -7.6869   27.1182 C   0  0  0  0  0  0  0  0  0  0  0  0
    8.6878   -6.6715   27.7262 N   0  0  0  0  0  0  0  0  0  0  0  0
    6.9911   -8.2423   27.1808 C   0  0  0  0  0  0  0  0  0  0  0  0
    3.8436   -7.2758   16.0578 C   0  0  0  0  0  0  0  0  0  0  0  0
    3.1882   -9.7190   17.2566 C   0  0  0  0  0  0  0  0  0  0  0  0
    5.3488   -6.1737   26.5092 C   0  0  0  0  0  0  0  0  0  0  0  0
    7.4567   -6.9464   27.2858 C   0  0  0  0  0  0  0  0  0  0  0  0
    0.1921   -5.7592   27.1123 C   0  0  0  0  0  0  0  0  0  0  0  0
    3.5517   -7.7407   25.9711 C   0  0  0  0  0  0  0  0  0  0  0  0
  1  4  4  0
  1 22  4  0
  2 20  4  0
  2 27  4  0
  3 12  4  0
  3 23  4  0
  4 25  4  0
  4 28  1  0
  5  8  4  0
  5 17  4  0
  6  7  4  0
  6 16  4  0
  7 18  4  0
  8 27  4  0
  9 13  4  0
  9 23  4  0
 10 11  1  0
 11 14  2  0
 11 27  1  0
 12 19  1  0
 12 24  4  0
 13 24  4  0
 15 18  1  0
 16 25  4  0
 16 26  4  0
 17 20  4  0
 17 28  1  0
 18 21  4  0
 21 26  4  0
 22 26  4  0
M  END
$$$$

 Created by Python create_sdf_string function

 28 30  0  0  0  0  0  0  0  0999 V2000
    5.7174   -8.4529   26.7190 C   0  0  0  0  0  0  0  0  0  0  0  0
    0.3974   -7.0711   27.5149 C   0  0  0  0  0  0  0  0  0  0  0  0
    2.5338   -7.6891   16.0102 C   0  0  0  0  0  0  0  0  0  0  0  0
    4.8690   -7.4380   26.4151 C   0  0  0  0  0  0  0  0  0  0  0  0
    2.3021   -5.6726   26.0378 C   0  0  0  0  0  0  0  0  0  0  0  0
    7.0880   -4.6163   27.0010 C   0  0  0  0  0  0  0  0  0  0  0  0
    8.3117   -4.3698   27.4436 C   0  0  0  0  0  0  0  0  0  0  0  0
    1.1339   -5.0515   26.3541 C   0  0  0  0  0  0  0  0  0  0  0  0
    4.8080   -8.0362   16.7101 C   0  0  0  0  0  0  0  0  0  0  0  0
   -1.2173   -3.9294   26.9717 O   0  0  0  0  0  0  0  0  0  0  0  0
   -1.0025   -5.0942   27.4586 C   0  0  0  0  0  0  0  0  0  0  0  0
    2.2474   -8.9123   16.6273 C   0  0  0  0  0  0  0  0  0  0  0  0
    4.4957   -9.2636   17.3041 C   0  0  0  0  0  0  0  0  0  0  0  0
   -1.8070   -5.6086   28.1920 O   0  0  0  0  0  0  0  0  0  0  0  0
   10.4296   -5.1799   28.3140 C   0  0  0  0  0  0  0  0  0  0  0  0
    6.6017   -5.9004   26.9187 C   0  0  0  0  0  0  0  0  0  0  0  0
    2.4761   -6.9940   26.4111 N   0  0  0  0  0  0  0  0  0  0  0  0
    9.1353   -5.4053   27.8239 C   0  0  0  0  0  0  0  0  0  0  0  0
    0.9922   -9.3232   16.5995 O   0  0  0  0  0  0  0  0  0  0  0  0
    1.5232   -7.6869   27.1182 C   0  0  0  0  0  0  0  0  0  0  0  0
    8.6878   -6.6715   27.7262 N   0  0  0  0  0  0  0  0  0  0  0  0
    6.9911   -8.2423   27.1808 C   0  0  0  0  0  0  0  0  0  0  0  0
    3.8436   -7.2758   16.0578 C   0  0  0  0  0  0  0  0  0  0  0  0
    3.1882   -9.7190   17.2566 C   0  0  0  0  0  0  0  0  0  0  0  0
    5.3488   -6.1737   26.5092 C   0  0  0  0  0  0  0  0  0  0  0  0
    7.4567   -6.9464   27.2858 C   0  0  0  0  0  0  0  0  0  0  0  0
    0.1921   -5.7592   27.1123 C   0  0  0  0  0  0  0  0  0  0  0  0
    3.5517   -7.7407   25.9711 C   0  0  0  0  0  0  0  0  0  0  0  0
  1  4  4  0
  1 22  4  0
  2 20  4  0
  2 27  4  0
  3 12  4  0
  3 23  4  0
  4 25  4  0
  4 28  1  0
  5  8  4  0
  5 17  4  0
  6  7  4  0
  6 16  4  0
  7 18  4  0
  8 27  4  0
  9 13  4  0
  9 23  4  0
 10 11  1  0
 11 14  2  0
 11 27  1  0
 12 19  1  0
 12 24  4  0
 13 24  4  0
 15 18  1  0
 16 25  4  0
 16 26  4  0
 17 20  4  0
 17 28  1  0
 18 21  4  0
 21 26  4  0
 22 26  4  0
M  END
$$$$

 Created by Python create_sdf_string function

 28 30  0  0  0  0  0  0  0  0999 V2000
    5.7174   -8.4529   26.7190 C   0  0  0  0  0  0  0  0  0  0  0  0
    0.3974   -7.0711   27.5149 C   0  0  0  0  0  0  0  0  0  0  0  0
    2.5338   -7.6891   16.0102 C   0  0  0  0  0  0  0  0  0  0  0  0
    4.8690   -7.4380   26.4151 C   0  0  0  0  0  0  0  0  0  0  0  0
    2.3021   -5.6726   26.0378 C   0  0  0  0  0  0  0  0  0  0  0  0
    7.0880   -4.6163   27.0010 C   0  0  0  0  0  0  0  0  0  0  0  0
    8.3117   -4.3698   27.4436 C   0  0  0  0  0  0  0  0  0  0  0  0
    1.1339   -5.0515   26.3541 C   0  0  0  0  0  0  0  0  0  0  0  0
    4.8080   -8.0362   16.7101 C   0  0  0  0  0  0  0  0  0  0  0  0
   -1.2173   -3.9294   26.9717 O   0  0  0  0  0  0  0  0  0  0  0  0
   -1.0025   -5.0942   27.4586 C   0  0  0  0  0  0  0  0  0  0  0  0
    2.2474   -8.9123   16.6273 C   0  0  0  0  0  0  0  0  0  0  0  0
    4.4957   -9.2636   17.3041 C   0  0  0  0  0  0  0  0  0  0  0  0
   -1.8070   -5.6086   28.1920 O   0  0  0  0  0  0  0  0  0  0  0  0
   10.4296   -5.1799   28.3140 C   0  0  0  0  0  0  0  0  0  0  0  0
    6.6017   -5.9004   26.9187 C   0  0  0  0  0  0  0  0  0  0  0  0
    2.4761   -6.9940   26.4111 N   0  0  0  0  0  0  0  0  0  0  0  0
    9.1353   -5.4053   27.8239 C   0  0  0  0  0  0  0  0  0  0  0  0
    0.9922   -9.3232   16.5995 O   0  0  0  0  0  0  0  0  0  0  0  0
    1.5232   -7.6869   27.1182 C   0  0  0  0  0  0  0  0  0  0  0  0
    8.6878   -6.6715   27.7262 N   0  0  0  0  0  0  0  0  0  0  0  0
    6.9911   -8.2423   27.1808 C   0  0  0  0  0  0  0  0  0  0  0  0
    3.8436   -7.2758   16.0578 C   0  0  0  0  0  0  0  0  0  0  0  0
    3.1882   -9.7190   17.2566 C   0  0  0  0  0  0  0  0  0  0  0  0
    5.3488   -6.1737   26.5092 C   0  0  0  0  0  0  0  0  0  0  0  0
    7.4567   -6.9464   27.2858 C   0  0  0  0  0  0  0  0  0  0  0  0
    0.1921   -5.7592   27.1123 C   0  0  0  0  0  0  0  0  0  0  0  0
    3.5517   -7.7407   25.9711 C   0  0  0  0  0  0  0  0  0  0  0  0
  1  4  4  0
  1 22  4  0
  2 20  4  0
  2 27  4  0
  3 12  4  0
  3 23  4  0
  4 25  4  0
  4 28  1  0
  5  8  4  0
  5 17  4  0
  6  7  4  0
  6 16  4  0
  7 18  4  0
  8 27  4  0
  9 13  4  0
  9 23  4  0
 10 11  1  0
 11 14  2  0
 11 27  1  0
 12 19  1  0
 12 24  4  0
 13 24  4  0
 15 18  1  0
 16 25  4  0
 16 26  4  0
 17 20  4  0
 17 28  1  0
 18 21  4  0
 21 26  4  0
 22 26  4  0
M  END
$$$$

 Created by Python create_sdf_string function

 28 30  0  0  0  0  0  0  0  0999 V2000
    5.7174   -8.4529   26.7190 C   0  0  0  0  0  0  0  0  0  0  0  0
    0.3974   -7.0711   27.5149 C   0  0  0  0  0  0  0  0  0  0  0  0
    2.5338   -7.6891   16.0102 C   0  0  0  0  0  0  0  0  0  0  0  0
    4.8690   -7.4380   26.4151 C   0  0  0  0  0  0  0  0  0  0  0  0
    2.3021   -5.6726   26.0378 C   0  0  0  0  0  0  0  0  0  0  0  0
    7.0880   -4.6163   27.0010 C   0  0  0  0  0  0  0  0  0  0  0  0
    8.3117   -4.3698   27.4436 C   0  0  0  0  0  0  0  0  0  0  0  0
    1.1339   -5.0515   26.3541 C   0  0  0  0  0  0  0  0  0  0  0  0
    4.8080   -8.0362   16.7101 C   0  0  0  0  0  0  0  0  0  0  0  0
   -1.2173   -3.9294   26.9717 O   0  0  0  0  0  0  0  0  0  0  0  0
   -1.0025   -5.0942   27.4586 C   0  0  0  0  0  0  0  0  0  0  0  0
    2.2474   -8.9123   16.6273 C   0  0  0  0  0  0  0  0  0  0  0  0
    4.4957   -9.2636   17.3041 C   0  0  0  0  0  0  0  0  0  0  0  0
   -1.8070   -5.6086   28.1920 O   0  0  0  0  0  0  0  0  0  0  0  0
   10.4296   -5.1799   28.3140 C   0  0  0  0  0  0  0  0  0  0  0  0
    6.6017   -5.9004   26.9187 C   0  0  0  0  0  0  0  0  0  0  0  0
    2.4761   -6.9940   26.4111 N   0  0  0  0  0  0  0  0  0  0  0  0
    9.1353   -5.4053   27.8239 C   0  0  0  0  0  0  0  0  0  0  0  0
    0.9922   -9.3232   16.5995 O   0  0  0  0  0  0  0  0  0  0  0  0
    1.5232   -7.6869   27.1182 C   0  0  0  0  0  0  0  0  0  0  0  0
    8.6878   -6.6715   27.7262 N   0  0  0  0  0  0  0  0  0  0  0  0
    6.9911   -8.2423   27.1808 C   0  0  0  0  0  0  0  0  0  0  0  0
    3.8436   -7.2758   16.0578 C   0  0  0  0  0  0  0  0  0  0  0  0
    3.1882   -9.7190   17.2566 C   0  0  0  0  0  0  0  0  0  0  0  0
    5.3488   -6.1737   26.5092 C   0  0  0  0  0  0  0  0  0  0  0  0
    7.4567   -6.9464   27.2858 C   0  0  0  0  0  0  0  0  0  0  0  0
    0.1921   -5.7592   27.1123 C   0  0  0  0  0  0  0  0  0  0  0  0
    3.5517   -7.7407   25.9711 C   0  0  0  0  0  0  0  0  0  0  0  0
  1  4  4  0
  1 22  4  0
  2 20  4  0
  2 27  4  0
  3 12  4  0
  3 23  4  0
  4 25  4  0
  4 28  1  0
  5  8  4  0
  5 17  4  0
  6  7  4  0
  6 16  4  0
  7 18  4  0
  8 27  4  0
  9 13  4  0
  9 23  4  0
 10 11  1  0
 11 14  2  0
 11 27  1  0
 12 19  1  0
 12 24  4  0
 13 24  4  0
 15 18  1  0
 16 25  4  0
 16 26  4  0
 17 20  4  0
 17 28  1  0
 18 21  4  0
 21 26  4  0
 22 26  4  0
M  END
$$$$

 Created by Python create_sdf_string function

 28 30  0  0  0  0  0  0  0  0999 V2000
    5.7174   -8.4529   26.7190 C   0  0  0  0  0  0  0  0  0  0  0  0
    0.3974   -7.0711   27.5149 C   0  0  0  0  0  0  0  0  0  0  0  0
    2.5338   -7.6891   16.0102 C   0  0  0  0  0  0  0  0  0  0  0  0
    4.8690   -7.4380   26.4151 C   0  0  0  0  0  0  0  0  0  0  0  0
    2.3021   -5.6726   26.0378 C   0  0  0  0  0  0  0  0  0  0  0  0
    7.0880   -4.6163   27.0010 C   0  0  0  0  0  0  0  0  0  0  0  0
    8.3117   -4.3698   27.4436 C   0  0  0  0  0  0  0  0  0  0  0  0
    1.1339   -5.0515   26.3541 C   0  0  0  0  0  0  0  0  0  0  0  0
    4.8080   -8.0362   16.7101 C   0  0  0  0  0  0  0  0  0  0  0  0
   -1.2173   -3.9294   26.9717 O   0  0  0  0  0  0  0  0  0  0  0  0
   -1.0025   -5.0942   27.4586 C   0  0  0  0  0  0  0  0  0  0  0  0
    2.2474   -8.9123   16.6273 C   0  0  0  0  0  0  0  0  0  0  0  0
    4.4957   -9.2636   17.3041 C   0  0  0  0  0  0  0  0  0  0  0  0
   -1.8070   -5.6086   28.1920 O   0  0  0  0  0  0  0  0  0  0  0  0
   10.4296   -5.1799   28.3140 C   0  0  0  0  0  0  0  0  0  0  0  0
    6.6017   -5.9004   26.9187 C   0  0  0  0  0  0  0  0  0  0  0  0
    2.4761   -6.9940   26.4111 N   0  0  0  0  0  0  0  0  0  0  0  0
    9.1353   -5.4053   27.8239 C   0  0  0  0  0  0  0  0  0  0  0  0
    0.9922   -9.3232   16.5995 O   0  0  0  0  0  0  0  0  0  0  0  0
    1.5232   -7.6869   27.1182 C   0  0  0  0  0  0  0  0  0  0  0  0
    8.6878   -6.6715   27.7262 N   0  0  0  0  0  0  0  0  0  0  0  0
    6.9911   -8.2423   27.1808 C   0  0  0  0  0  0  0  0  0  0  0  0
    3.8436   -7.2758   16.0578 C   0  0  0  0  0  0  0  0  0  0  0  0
    3.1882   -9.7190   17.2566 C   0  0  0  0  0  0  0  0  0  0  0  0
    5.3488   -6.1737   26.5092 C   0  0  0  0  0  0  0  0  0  0  0  0
    7.4567   -6.9464   27.2858 C   0  0  0  0  0  0  0  0  0  0  0  0
    0.1921   -5.7592   27.1123 C   0  0  0  0  0  0  0  0  0  0  0  0
    3.5517   -7.7407   25.9711 C   0  0  0  0  0  0  0  0  0  0  0  0
  1  4  4  0
  1 22  4  0
  2 20  4  0
  2 27  4  0
  3 12  4  0
  3 23  4  0
  4 25  4  0
  4 28  1  0
  5  8  4  0
  5 17  4  0
  6  7  4  0
  6 16  4  0
  7 18  4  0
  8 27  4  0
  9 13  4  0
  9 23  4  0
 10 11  1  0
 11 14  2  0
 11 27  1  0
 12 19  1  0
 12 24  4  0
 13 24  4  0
 15 18  1  0
 16 25  4  0
 16 26  4  0
 17 20  4  0
 17 28  1  0
 18 21  4  0
 21 26  4  0
 22 26  4  0
M  END
$$$$

 Created by Python create_sdf_string function

 28 30  0  0  0  0  0  0  0  0999 V2000
    5.7174   -8.4529   26.7190 C   0  0  0  0  0  0  0  0  0  0  0  0
    0.3974   -7.0711   27.5149 C   0  0  0  0  0  0  0  0  0  0  0  0
    2.5338   -7.6891   16.0102 C   0  0  0  0  0  0  0  0  0  0  0  0
    4.8690   -7.4380   26.4151 C   0  0  0  0  0  0  0  0  0  0  0  0
    2.3021   -5.6726   26.0378 C   0  0  0  0  0  0  0  0  0  0  0  0
    7.0880   -4.6163   27.0010 C   0  0  0  0  0  0  0  0  0  0  0  0
    8.3117   -4.3698   27.4436 C   0  0  0  0  0  0  0  0  0  0  0  0
    1.1339   -5.0515   26.3541 C   0  0  0  0  0  0  0  0  0  0  0  0
    4.8080   -8.0362   16.7101 C   0  0  0  0  0  0  0  0  0  0  0  0
   -1.2173   -3.9294   26.9717 O   0  0  0  0  0  0  0  0  0  0  0  0
   -1.0025   -5.0942   27.4586 C   0  0  0  0  0  0  0  0  0  0  0  0
    2.2474   -8.9123   16.6273 C   0  0  0  0  0  0  0  0  0  0  0  0
    4.4957   -9.2636   17.3041 C   0  0  0  0  0  0  0  0  0  0  0  0
   -1.8070   -5.6086   28.1920 O   0  0  0  0  0  0  0  0  0  0  0  0
   10.4296   -5.1799   28.3140 C   0  0  0  0  0  0  0  0  0  0  0  0
    6.6017   -5.9004   26.9187 C   0  0  0  0  0  0  0  0  0  0  0  0
    2.4761   -6.9940   26.4111 N   0  0  0  0  0  0  0  0  0  0  0  0
    9.1353   -5.4053   27.8239 C   0  0  0  0  0  0  0  0  0  0  0  0
    0.9922   -9.3232   16.5995 O   0  0  0  0  0  0  0  0  0  0  0  0
    1.5232   -7.6869   27.1182 C   0  0  0  0  0  0  0  0  0  0  0  0
    8.6878   -6.6715   27.7262 N   0  0  0  0  0  0  0  0  0  0  0  0
    6.9911   -8.2423   27.1808 C   0  0  0  0  0  0  0  0  0  0  0  0
    3.8436   -7.2758   16.0578 C   0  0  0  0  0  0  0  0  0  0  0  0
    3.1882   -9.7190   17.2566 C   0  0  0  0  0  0  0  0  0  0  0  0
    5.3488   -6.1737   26.5092 C   0  0  0  0  0  0  0  0  0  0  0  0
    7.4567   -6.9464   27.2858 C   0  0  0  0  0  0  0  0  0  0  0  0
    0.1921   -5.7592   27.1123 C   0  0  0  0  0  0  0  0  0  0  0  0
    3.5517   -7.7407   25.9711 C   0  0  0  0  0  0  0  0  0  0  0  0
  1  4  4  0
  1 22  4  0
  2 20  4  0
  2 27  4  0
  3 12  4  0
  3 23  4  0
  4 25  4  0
  4 28  1  0
  5  8  4  0
  5 17  4  0
  6  7  4  0
  6 16  4  0
  7 18  4  0
  8 27  4  0
  9 13  4  0
  9 23  4  0
 10 11  1  0
 11 14  2  0
 11 27  1  0
 12 19  1  0
 12 24  4  0
 13 24  4  0
 15 18  1  0
 16 25  4  0
 16 26  4  0
 17 20  4  0
 17 28  1  0
 18 21  4  0
 21 26  4  0
 22 26  4  0
M  END
$$$$

 Created by Python create_sdf_string function

 28 30  0  0  0  0  0  0  0  0999 V2000
    5.7174   -8.4529   26.7190 C   0  0  0  0  0  0  0  0  0  0  0  0
    0.3974   -7.0711   27.5149 C   0  0  0  0  0  0  0  0  0  0  0  0
    2.5338   -7.6891   16.0102 C   0  0  0  0  0  0  0  0  0  0  0  0
    4.8690   -7.4380   26.4151 C   0  0  0  0  0  0  0  0  0  0  0  0
    2.3021   -5.6726   26.0378 C   0  0  0  0  0  0  0  0  0  0  0  0
    7.0880   -4.6163   27.0010 C   0  0  0  0  0  0  0  0  0  0  0  0
    8.3117   -4.3698   27.4436 C   0  0  0  0  0  0  0  0  0  0  0  0
    1.1339   -5.0515   26.3541 C   0  0  0  0  0  0  0  0  0  0  0  0
    4.8080   -8.0362   16.7101 C   0  0  0  0  0  0  0  0  0  0  0  0
   -1.2173   -3.9294   26.9717 O   0  0  0  0  0  0  0  0  0  0  0  0
   -1.0025   -5.0942   27.4586 C   0  0  0  0  0  0  0  0  0  0  0  0
    2.2474   -8.9123   16.6273 C   0  0  0  0  0  0  0  0  0  0  0  0
    4.4957   -9.2636   17.3041 C   0  0  0  0  0  0  0  0  0  0  0  0
   -1.8070   -5.6086   28.1920 O   0  0  0  0  0  0  0  0  0  0  0  0
   10.4296   -5.1799   28.3140 C   0  0  0  0  0  0  0  0  0  0  0  0
    6.6017   -5.9004   26.9187 C   0  0  0  0  0  0  0  0  0  0  0  0
    2.4761   -6.9940   26.4111 N   0  0  0  0  0  0  0  0  0  0  0  0
    9.1353   -5.4053   27.8239 C   0  0  0  0  0  0  0  0  0  0  0  0
    0.9922   -9.3232   16.5995 O   0  0  0  0  0  0  0  0  0  0  0  0
    1.5232   -7.6869   27.1182 C   0  0  0  0  0  0  0  0  0  0  0  0
    8.6878   -6.6715   27.7262 N   0  0  0  0  0  0  0  0  0  0  0  0
    6.9911   -8.2423   27.1808 C   0  0  0  0  0  0  0  0  0  0  0  0
    3.8436   -7.2758   16.0578 C   0  0  0  0  0  0  0  0  0  0  0  0
    3.1882   -9.7190   17.2566 C   0  0  0  0  0  0  0  0  0  0  0  0
    5.3488   -6.1737   26.5092 C   0  0  0  0  0  0  0  0  0  0  0  0
    7.4567   -6.9464   27.2858 C   0  0  0  0  0  0  0  0  0  0  0  0
    0.1921   -5.7592   27.1123 C   0  0  0  0  0  0  0  0  0  0  0  0
    3.5517   -7.7407   25.9711 C   0  0  0  0  0  0  0  0  0  0  0  0
  1  4  4  0
  1 22  4  0
  2 20  4  0
  2 27  4  0
  3 12  4  0
  3 23  4  0
  4 25  4  0
  4 28  1  0
  5  8  4  0
  5 17  4  0
  6  7  4  0
  6 16  4  0
  7 18  4  0
  8 27  4  0
  9 13  4  0
  9 23  4  0
 10 11  1  0
 11 14  2  0
 11 27  1  0
 12 19  1  0
 12 24  4  0
 13 24  4  0
 15 18  1  0
 16 25  4  0
 16 26  4  0
 17 20  4  0
 17 28  1  0
 18 21  4  0
 21 26  4  0
 22 26  4  0
M  END
$$$$

 Created by Python create_sdf_string function

 28 30  0  0  0  0  0  0  0  0999 V2000
    5.7174   -8.4529   26.7190 C   0  0  0  0  0  0  0  0  0  0  0  0
    0.3974   -7.0711   27.5149 C   0  0  0  0  0  0  0  0  0  0  0  0
    2.5338   -7.6891   16.0102 C   0  0  0  0  0  0  0  0  0  0  0  0
    4.8690   -7.4380   26.4151 C   0  0  0  0  0  0  0  0  0  0  0  0
    2.3021   -5.6726   26.0378 C   0  0  0  0  0  0  0  0  0  0  0  0
    7.0880   -4.6163   27.0010 C   0  0  0  0  0  0  0  0  0  0  0  0
    8.3117   -4.3698   27.4436 C   0  0  0  0  0  0  0  0  0  0  0  0
    1.1339   -5.0515   26.3541 C   0  0  0  0  0  0  0  0  0  0  0  0
    4.8080   -8.0362   16.7101 C   0  0  0  0  0  0  0  0  0  0  0  0
   -1.2173   -3.9294   26.9717 O   0  0  0  0  0  0  0  0  0  0  0  0
   -1.0025   -5.0942   27.4586 C   0  0  0  0  0  0  0  0  0  0  0  0
    2.2474   -8.9123   16.6273 C   0  0  0  0  0  0  0  0  0  0  0  0
    4.4957   -9.2636   17.3041 C   0  0  0  0  0  0  0  0  0  0  0  0
   -1.8070   -5.6086   28.1920 O   0  0  0  0  0  0  0  0  0  0  0  0
   10.4296   -5.1799   28.3140 C   0  0  0  0  0  0  0  0  0  0  0  0
    6.6017   -5.9004   26.9187 C   0  0  0  0  0  0  0  0  0  0  0  0
    2.4761   -6.9940   26.4111 N   0  0  0  0  0  0  0  0  0  0  0  0
    9.1353   -5.4053   27.8239 C   0  0  0  0  0  0  0  0  0  0  0  0
    0.9922   -9.3232   16.5995 O   0  0  0  0  0  0  0  0  0  0  0  0
    1.5232   -7.6869   27.1182 C   0  0  0  0  0  0  0  0  0  0  0  0
    8.6878   -6.6715   27.7262 N   0  0  0  0  0  0  0  0  0  0  0  0
    6.9911   -8.2423   27.1808 C   0  0  0  0  0  0  0  0  0  0  0  0
    3.8436   -7.2758   16.0578 C   0  0  0  0  0  0  0  0  0  0  0  0
    3.1882   -9.7190   17.2566 C   0  0  0  0  0  0  0  0  0  0  0  0
    5.3488   -6.1737   26.5092 C   0  0  0  0  0  0  0  0  0  0  0  0
    7.4567   -6.9464   27.2858 C   0  0  0  0  0  0  0  0  0  0  0  0
    0.1921   -5.7592   27.1123 C   0  0  0  0  0  0  0  0  0  0  0  0
    3.5517   -7.7407   25.9711 C   0  0  0  0  0  0  0  0  0  0  0  0
  1  4  4  0
  1 22  4  0
  2 20  4  0
  2 27  4  0
  3 12  4  0
  3 23  4  0
  4 25  4  0
  4 28  1  0
  5  8  4  0
  5 17  4  0
  6  7  4  0
  6 16  4  0
  7 18  4  0
  8 27  4  0
  9 13  4  0
  9 23  4  0
 10 11  1  0
 11 14  2  0
 11 27  1  0
 12 19  1  0
 12 24  4  0
 13 24  4  0
 15 18  1  0
 16 25  4  0
 16 26  4  0
 17 20  4  0
 17 28  1  0
 18 21  4  0
 21 26  4  0
 22 26  4  0
M  END
$$$$

 Created by Python create_sdf_string function

 28 30  0  0  0  0  0  0  0  0999 V2000
    5.7174   -8.4529   26.7190 C   0  0  0  0  0  0  0  0  0  0  0  0
    0.3974   -7.0711   27.5149 C   0  0  0  0  0  0  0  0  0  0  0  0
    2.5338   -7.6891   16.0102 C   0  0  0  0  0  0  0  0  0  0  0  0
    4.8690   -7.4380   26.4151 C   0  0  0  0  0  0  0  0  0  0  0  0
    2.3021   -5.6726   26.0378 C   0  0  0  0  0  0  0  0  0  0  0  0
    7.0880   -4.6163   27.0010 C   0  0  0  0  0  0  0  0  0  0  0  0
    8.3117   -4.3698   27.4436 C   0  0  0  0  0  0  0  0  0  0  0  0
    1.1339   -5.0515   26.3541 C   0  0  0  0  0  0  0  0  0  0  0  0
    4.8080   -8.0362   16.7101 C   0  0  0  0  0  0  0  0  0  0  0  0
   -1.2173   -3.9294   26.9717 O   0  0  0  0  0  0  0  0  0  0  0  0
   -1.0025   -5.0942   27.4586 C   0  0  0  0  0  0  0  0  0  0  0  0
    2.2474   -8.9123   16.6273 C   0  0  0  0  0  0  0  0  0  0  0  0
    4.4957   -9.2636   17.3041 C   0  0  0  0  0  0  0  0  0  0  0  0
   -1.8070   -5.6086   28.1920 O   0  0  0  0  0  0  0  0  0  0  0  0
   10.4296   -5.1799   28.3140 C   0  0  0  0  0  0  0  0  0  0  0  0
    6.6017   -5.9004   26.9187 C   0  0  0  0  0  0  0  0  0  0  0  0
    2.4761   -6.9940   26.4111 N   0  0  0  0  0  0  0  0  0  0  0  0
    9.1353   -5.4053   27.8239 C   0  0  0  0  0  0  0  0  0  0  0  0
    0.9922   -9.3232   16.5995 O   0  0  0  0  0  0  0  0  0  0  0  0
    1.5232   -7.6869   27.1182 C   0  0  0  0  0  0  0  0  0  0  0  0
    8.6878   -6.6715   27.7262 N   0  0  0  0  0  0  0  0  0  0  0  0
    6.9911   -8.2423   27.1808 C   0  0  0  0  0  0  0  0  0  0  0  0
    3.8436   -7.2758   16.0578 C   0  0  0  0  0  0  0  0  0  0  0  0
    3.1882   -9.7190   17.2566 C   0  0  0  0  0  0  0  0  0  0  0  0
    5.3488   -6.1737   26.5092 C   0  0  0  0  0  0  0  0  0  0  0  0
    7.4567   -6.9464   27.2858 C   0  0  0  0  0  0  0  0  0  0  0  0
    0.1921   -5.7592   27.1123 C   0  0  0  0  0  0  0  0  0  0  0  0
    3.5517   -7.7407   25.9711 C   0  0  0  0  0  0  0  0  0  0  0  0
  1  4  4  0
  1 22  4  0
  2 20  4  0
  2 27  4  0
  3 12  4  0
  3 23  4  0
  4 25  4  0
  4 28  1  0
  5  8  4  0
  5 17  4  0
  6  7  4  0
  6 16  4  0
  7 18  4  0
  8 27  4  0
  9 13  4  0
  9 23  4  0
 10 11  1  0
 11 14  2  0
 11 27  1  0
 12 19  1  0
 12 24  4  0
 13 24  4  0
 15 18  1  0
 16 25  4  0
 16 26  4  0
 17 20  4  0
 17 28  1  0
 18 21  4  0
 21 26  4  0
 22 26  4  0
M  END
$$$$

 Created by Python create_sdf_string function

 28 30  0  0  0  0  0  0  0  0999 V2000
    5.7174   -8.4529   26.7190 C   0  0  0  0  0  0  0  0  0  0  0  0
    0.3974   -7.0711   27.5149 C   0  0  0  0  0  0  0  0  0  0  0  0
    2.5338   -7.6891   16.0102 C   0  0  0  0  0  0  0  0  0  0  0  0
    4.8690   -7.4380   26.4151 C   0  0  0  0  0  0  0  0  0  0  0  0
    2.3021   -5.6726   26.0378 C   0  0  0  0  0  0  0  0  0  0  0  0
    7.0880   -4.6163   27.0010 C   0  0  0  0  0  0  0  0  0  0  0  0
    8.3117   -4.3698   27.4436 C   0  0  0  0  0  0  0  0  0  0  0  0
    1.1339   -5.0515   26.3541 C   0  0  0  0  0  0  0  0  0  0  0  0
    4.8080   -8.0362   16.7101 C   0  0  0  0  0  0  0  0  0  0  0  0
   -1.2173   -3.9294   26.9717 O   0  0  0  0  0  0  0  0  0  0  0  0
   -1.0025   -5.0942   27.4586 C   0  0  0  0  0  0  0  0  0  0  0  0
    2.2474   -8.9123   16.6273 C   0  0  0  0  0  0  0  0  0  0  0  0
    4.4957   -9.2636   17.3041 C   0  0  0  0  0  0  0  0  0  0  0  0
   -1.8070   -5.6086   28.1920 O   0  0  0  0  0  0  0  0  0  0  0  0
   10.4296   -5.1799   28.3140 C   0  0  0  0  0  0  0  0  0  0  0  0
    6.6017   -5.9004   26.9187 C   0  0  0  0  0  0  0  0  0  0  0  0
    2.4761   -6.9940   26.4111 N   0  0  0  0  0  0  0  0  0  0  0  0
    9.1353   -5.4053   27.8239 C   0  0  0  0  0  0  0  0  0  0  0  0
    0.9922   -9.3232   16.5995 O   0  0  0  0  0  0  0  0  0  0  0  0
    1.5232   -7.6869   27.1182 C   0  0  0  0  0  0  0  0  0  0  0  0
    8.6878   -6.6715   27.7262 N   0  0  0  0  0  0  0  0  0  0  0  0
    6.9911   -8.2423   27.1808 C   0  0  0  0  0  0  0  0  0  0  0  0
    3.8436   -7.2758   16.0578 C   0  0  0  0  0  0  0  0  0  0  0  0
    3.1882   -9.7190   17.2566 C   0  0  0  0  0  0  0  0  0  0  0  0
    5.3488   -6.1737   26.5092 C   0  0  0  0  0  0  0  0  0  0  0  0
    7.4567   -6.9464   27.2858 C   0  0  0  0  0  0  0  0  0  0  0  0
    0.1921   -5.7592   27.1123 C   0  0  0  0  0  0  0  0  0  0  0  0
    3.5517   -7.7407   25.9711 C   0  0  0  0  0  0  0  0  0  0  0  0
  1  4  4  0
  1 22  4  0
  2 20  4  0
  2 27  4  0
  3 12  4  0
  3 23  4  0
  4 25  4  0
  4 28  1  0
  5  8  4  0
  5 17  4  0
  6  7  4  0
  6 16  4  0
  7 18  4  0
  8 27  4  0
  9 13  4  0
  9 23  4  0
 10 11  1  0
 11 14  2  0
 11 27  1  0
 12 19  1  0
 12 24  4  0
 13 24  4  0
 15 18  1  0
 16 25  4  0
 16 26  4  0
 17 20  4  0
 17 28  1  0
 18 21  4  0
 21 26  4  0
 22 26  4  0
M  END
$$$$

 Created by Python create_sdf_string function

 28 30  0  0  0  0  0  0  0  0999 V2000
    5.7174   -8.4529   26.7190 C   0  0  0  0  0  0  0  0  0  0  0  0
    0.3974   -7.0711   27.5149 C   0  0  0  0  0  0  0  0  0  0  0  0
    2.5338   -7.6891   16.0102 C   0  0  0  0  0  0  0  0  0  0  0  0
    4.8690   -7.4380   26.4151 C   0  0  0  0  0  0  0  0  0  0  0  0
    2.3021   -5.6726   26.0378 C   0  0  0  0  0  0  0  0  0  0  0  0
    7.0880   -4.6163   27.0010 C   0  0  0  0  0  0  0  0  0  0  0  0
    8.3117   -4.3698   27.4436 C   0  0  0  0  0  0  0  0  0  0  0  0
    1.1339   -5.0515   26.3541 C   0  0  0  0  0  0  0  0  0  0  0  0
    4.8080   -8.0362   16.7101 C   0  0  0  0  0  0  0  0  0  0  0  0
   -1.2173   -3.9294   26.9717 O   0  0  0  0  0  0  0  0  0  0  0  0
   -1.0025   -5.0942   27.4586 C   0  0  0  0  0  0  0  0  0  0  0  0
    2.2474   -8.9123   16.6273 C   0  0  0  0  0  0  0  0  0  0  0  0
    4.4957   -9.2636   17.3041 C   0  0  0  0  0  0  0  0  0  0  0  0
   -1.8070   -5.6086   28.1920 O   0  0  0  0  0  0  0  0  0  0  0  0
   10.4296   -5.1799   28.3140 C   0  0  0  0  0  0  0  0  0  0  0  0
    6.6017   -5.9004   26.9187 C   0  0  0  0  0  0  0  0  0  0  0  0
    2.4761   -6.9940   26.4111 N   0  0  0  0  0  0  0  0  0  0  0  0
    9.1353   -5.4053   27.8239 C   0  0  0  0  0  0  0  0  0  0  0  0
    0.9922   -9.3232   16.5995 O   0  0  0  0  0  0  0  0  0  0  0  0
    1.5232   -7.6869   27.1182 C   0  0  0  0  0  0  0  0  0  0  0  0
    8.6878   -6.6715   27.7262 N   0  0  0  0  0  0  0  0  0  0  0  0
    6.9911   -8.2423   27.1808 C   0  0  0  0  0  0  0  0  0  0  0  0
    3.8436   -7.2758   16.0578 C   0  0  0  0  0  0  0  0  0  0  0  0
    3.1882   -9.7190   17.2566 C   0  0  0  0  0  0  0  0  0  0  0  0
    5.3488   -6.1737   26.5092 C   0  0  0  0  0  0  0  0  0  0  0  0
    7.4567   -6.9464   27.2858 C   0  0  0  0  0  0  0  0  0  0  0  0
    0.1921   -5.7592   27.1123 C   0  0  0  0  0  0  0  0  0  0  0  0
    3.5517   -7.7407   25.9711 C   0  0  0  0  0  0  0  0  0  0  0  0
  1  4  4  0
  1 22  4  0
  2 20  4  0
  2 27  4  0
  3 12  4  0
  3 23  4  0
  4 25  4  0
  4 28  1  0
  5  8  4  0
  5 17  4  0
  6  7  4  0
  6 16  4  0
  7 18  4  0
  8 27  4  0
  9 13  4  0
  9 23  4  0
 10 11  1  0
 11 14  2  0
 11 27  1  0
 12 19  1  0
 12 24  4  0
 13 24  4  0
 15 18  1  0
 16 25  4  0
 16 26  4  0
 17 20  4  0
 17 28  1  0
 18 21  4  0
 21 26  4  0
 22 26  4  0
M  END
$$$$

 Created by Python create_sdf_string function

 28 30  0  0  0  0  0  0  0  0999 V2000
    5.7174   -8.4529   26.7190 C   0  0  0  0  0  0  0  0  0  0  0  0
    0.3974   -7.0711   27.5149 C   0  0  0  0  0  0  0  0  0  0  0  0
    2.5338   -7.6891   16.0102 C   0  0  0  0  0  0  0  0  0  0  0  0
    4.8690   -7.4380   26.4151 C   0  0  0  0  0  0  0  0  0  0  0  0
    2.3021   -5.6726   26.0378 C   0  0  0  0  0  0  0  0  0  0  0  0
    7.0880   -4.6163   27.0010 C   0  0  0  0  0  0  0  0  0  0  0  0
    8.3117   -4.3698   27.4436 C   0  0  0  0  0  0  0  0  0  0  0  0
    1.1339   -5.0515   26.3541 C   0  0  0  0  0  0  0  0  0  0  0  0
    4.8080   -8.0362   16.7101 C   0  0  0  0  0  0  0  0  0  0  0  0
   -1.2173   -3.9294   26.9717 O   0  0  0  0  0  0  0  0  0  0  0  0
   -1.0025   -5.0942   27.4586 C   0  0  0  0  0  0  0  0  0  0  0  0
    2.2474   -8.9123   16.6273 C   0  0  0  0  0  0  0  0  0  0  0  0
    4.4957   -9.2636   17.3041 C   0  0  0  0  0  0  0  0  0  0  0  0
   -1.8070   -5.6086   28.1920 O   0  0  0  0  0  0  0  0  0  0  0  0
   10.4296   -5.1799   28.3140 C   0  0  0  0  0  0  0  0  0  0  0  0
    6.6017   -5.9004   26.9187 C   0  0  0  0  0  0  0  0  0  0  0  0
    2.4761   -6.9940   26.4111 N   0  0  0  0  0  0  0  0  0  0  0  0
    9.1353   -5.4053   27.8239 C   0  0  0  0  0  0  0  0  0  0  0  0
    0.9922   -9.3232   16.5995 O   0  0  0  0  0  0  0  0  0  0  0  0
    1.5232   -7.6869   27.1182 C   0  0  0  0  0  0  0  0  0  0  0  0
    8.6878   -6.6715   27.7262 N   0  0  0  0  0  0  0  0  0  0  0  0
    6.9911   -8.2423   27.1808 C   0  0  0  0  0  0  0  0  0  0  0  0
    3.8436   -7.2758   16.0578 C   0  0  0  0  0  0  0  0  0  0  0  0
    3.1882   -9.7190   17.2566 C   0  0  0  0  0  0  0  0  0  0  0  0
    5.3488   -6.1737   26.5092 C   0  0  0  0  0  0  0  0  0  0  0  0
    7.4567   -6.9464   27.2858 C   0  0  0  0  0  0  0  0  0  0  0  0
    0.1921   -5.7592   27.1123 C   0  0  0  0  0  0  0  0  0  0  0  0
    3.5517   -7.7407   25.9711 C   0  0  0  0  0  0  0  0  0  0  0  0
  1  4  4  0
  1 22  4  0
  2 20  4  0
  2 27  4  0
  3 12  4  0
  3 23  4  0
  4 25  4  0
  4 28  1  0
  5  8  4  0
  5 17  4  0
  6  7  4  0
  6 16  4  0
  7 18  4  0
  8 27  4  0
  9 13  4  0
  9 23  4  0
 10 11  1  0
 11 14  2  0
 11 27  1  0
 12 19  1  0
 12 24  4  0
 13 24  4  0
 15 18  1  0
 16 25  4  0
 16 26  4  0
 17 20  4  0
 17 28  1  0
 18 21  4  0
 21 26  4  0
 22 26  4  0
M  END
$$$$

 Created by Python create_sdf_string function

 28 30  0  0  0  0  0  0  0  0999 V2000
    5.7174   -8.4529   26.7190 C   0  0  0  0  0  0  0  0  0  0  0  0
    0.3974   -7.0711   27.5149 C   0  0  0  0  0  0  0  0  0  0  0  0
    2.5338   -7.6891   16.0102 C   0  0  0  0  0  0  0  0  0  0  0  0
    4.8690   -7.4380   26.4151 C   0  0  0  0  0  0  0  0  0  0  0  0
    2.3021   -5.6726   26.0378 C   0  0  0  0  0  0  0  0  0  0  0  0
    7.0880   -4.6163   27.0010 C   0  0  0  0  0  0  0  0  0  0  0  0
    8.3117   -4.3698   27.4436 C   0  0  0  0  0  0  0  0  0  0  0  0
    1.1339   -5.0515   26.3541 C   0  0  0  0  0  0  0  0  0  0  0  0
    4.8080   -8.0362   16.7101 C   0  0  0  0  0  0  0  0  0  0  0  0
   -1.2173   -3.9294   26.9717 O   0  0  0  0  0  0  0  0  0  0  0  0
   -1.0025   -5.0942   27.4586 C   0  0  0  0  0  0  0  0  0  0  0  0
    2.2474   -8.9123   16.6273 C   0  0  0  0  0  0  0  0  0  0  0  0
    4.4957   -9.2636   17.3041 C   0  0  0  0  0  0  0  0  0  0  0  0
   -1.8070   -5.6086   28.1920 O   0  0  0  0  0  0  0  0  0  0  0  0
   10.4296   -5.1799   28.3140 C   0  0  0  0  0  0  0  0  0  0  0  0
    6.6017   -5.9004   26.9187 C   0  0  0  0  0  0  0  0  0  0  0  0
    2.4761   -6.9940   26.4111 N   0  0  0  0  0  0  0  0  0  0  0  0
    9.1353   -5.4053   27.8239 C   0  0  0  0  0  0  0  0  0  0  0  0
    0.9922   -9.3232   16.5995 O   0  0  0  0  0  0  0  0  0  0  0  0
    1.5232   -7.6869   27.1182 C   0  0  0  0  0  0  0  0  0  0  0  0
    8.6878   -6.6715   27.7262 N   0  0  0  0  0  0  0  0  0  0  0  0
    6.9911   -8.2423   27.1808 C   0  0  0  0  0  0  0  0  0  0  0  0
    3.8436   -7.2758   16.0578 C   0  0  0  0  0  0  0  0  0  0  0  0
    3.1882   -9.7190   17.2566 C   0  0  0  0  0  0  0  0  0  0  0  0
    5.3488   -6.1737   26.5092 C   0  0  0  0  0  0  0  0  0  0  0  0
    7.4567   -6.9464   27.2858 C   0  0  0  0  0  0  0  0  0  0  0  0
    0.1921   -5.7592   27.1123 C   0  0  0  0  0  0  0  0  0  0  0  0
    3.5517   -7.7407   25.9711 C   0  0  0  0  0  0  0  0  0  0  0  0
  1  4  4  0
  1 22  4  0
  2 20  4  0
  2 27  4  0
  3 12  4  0
  3 23  4  0
  4 25  4  0
  4 28  1  0
  5  8  4  0
  5 17  4  0
  6  7  4  0
  6 16  4  0
  7 18  4  0
  8 27  4  0
  9 13  4  0
  9 23  4  0
 10 11  1  0
 11 14  2  0
 11 27  1  0
 12 19  1  0
 12 24  4  0
 13 24  4  0
 15 18  1  0
 16 25  4  0
 16 26  4  0
 17 20  4  0
 17 28  1  0
 18 21  4  0
 21 26  4  0
 22 26  4  0
M  END
$$$$

 Created by Python create_sdf_string function

 28 30  0  0  0  0  0  0  0  0999 V2000
    5.7174   -8.4529   26.7190 C   0  0  0  0  0  0  0  0  0  0  0  0
    0.3974   -7.0711   27.5149 C   0  0  0  0  0  0  0  0  0  0  0  0
    2.5338   -7.6891   16.0102 C   0  0  0  0  0  0  0  0  0  0  0  0
    4.8690   -7.4380   26.4151 C   0  0  0  0  0  0  0  0  0  0  0  0
    2.3021   -5.6726   26.0378 C   0  0  0  0  0  0  0  0  0  0  0  0
    7.0880   -4.6163   27.0010 C   0  0  0  0  0  0  0  0  0  0  0  0
    8.3117   -4.3698   27.4436 C   0  0  0  0  0  0  0  0  0  0  0  0
    1.1339   -5.0515   26.3541 C   0  0  0  0  0  0  0  0  0  0  0  0
    4.8080   -8.0362   16.7101 C   0  0  0  0  0  0  0  0  0  0  0  0
   -1.2173   -3.9294   26.9717 O   0  0  0  0  0  0  0  0  0  0  0  0
   -1.0025   -5.0942   27.4586 C   0  0  0  0  0  0  0  0  0  0  0  0
    2.2474   -8.9123   16.6273 C   0  0  0  0  0  0  0  0  0  0  0  0
    4.4957   -9.2636   17.3041 C   0  0  0  0  0  0  0  0  0  0  0  0
   -1.8070   -5.6086   28.1920 O   0  0  0  0  0  0  0  0  0  0  0  0
   10.4296   -5.1799   28.3140 C   0  0  0  0  0  0  0  0  0  0  0  0
    6.6017   -5.9004   26.9187 C   0  0  0  0  0  0  0  0  0  0  0  0
    2.4761   -6.9940   26.4111 N   0  0  0  0  0  0  0  0  0  0  0  0
    9.1353   -5.4053   27.8239 C   0  0  0  0  0  0  0  0  0  0  0  0
    0.9922   -9.3232   16.5995 O   0  0  0  0  0  0  0  0  0  0  0  0
    1.5232   -7.6869   27.1182 C   0  0  0  0  0  0  0  0  0  0  0  0
    8.6878   -6.6715   27.7262 N   0  0  0  0  0  0  0  0  0  0  0  0
    6.9911   -8.2423   27.1808 C   0  0  0  0  0  0  0  0  0  0  0  0
    3.8436   -7.2758   16.0578 C   0  0  0  0  0  0  0  0  0  0  0  0
    3.1882   -9.7190   17.2566 C   0  0  0  0  0  0  0  0  0  0  0  0
    5.3488   -6.1737   26.5092 C   0  0  0  0  0  0  0  0  0  0  0  0
    7.4567   -6.9464   27.2858 C   0  0  0  0  0  0  0  0  0  0  0  0
    0.1921   -5.7592   27.1123 C   0  0  0  0  0  0  0  0  0  0  0  0
    3.5517   -7.7407   25.9711 C   0  0  0  0  0  0  0  0  0  0  0  0
  1  4  4  0
  1 22  4  0
  2 20  4  0
  2 27  4  0
  3 12  4  0
  3 23  4  0
  4 25  4  0
  4 28  1  0
  5  8  4  0
  5 17  4  0
  6  7  4  0
  6 16  4  0
  7 18  4  0
  8 27  4  0
  9 13  4  0
  9 23  4  0
 10 11  1  0
 11 14  2  0
 11 27  1  0
 12 19  1  0
 12 24  4  0
 13 24  4  0
 15 18  1  0
 16 25  4  0
 16 26  4  0
 17 20  4  0
 17 28  1  0
 18 21  4  0
 21 26  4  0
 22 26  4  0
M  END
$$$$

 Created by Python create_sdf_string function

 28 30  0  0  0  0  0  0  0  0999 V2000
    5.7174   -8.4529   26.7190 C   0  0  0  0  0  0  0  0  0  0  0  0
    0.3974   -7.0711   27.5149 C   0  0  0  0  0  0  0  0  0  0  0  0
    2.5338   -7.6891   16.0102 C   0  0  0  0  0  0  0  0  0  0  0  0
    4.8690   -7.4380   26.4151 C   0  0  0  0  0  0  0  0  0  0  0  0
    2.3021   -5.6726   26.0378 C   0  0  0  0  0  0  0  0  0  0  0  0
    7.0880   -4.6163   27.0010 C   0  0  0  0  0  0  0  0  0  0  0  0
    8.3117   -4.3698   27.4436 C   0  0  0  0  0  0  0  0  0  0  0  0
    1.1339   -5.0515   26.3541 C   0  0  0  0  0  0  0  0  0  0  0  0
    4.8080   -8.0362   16.7101 C   0  0  0  0  0  0  0  0  0  0  0  0
   -1.2173   -3.9294   26.9717 O   0  0  0  0  0  0  0  0  0  0  0  0
   -1.0025   -5.0942   27.4586 C   0  0  0  0  0  0  0  0  0  0  0  0
    2.2474   -8.9123   16.6273 C   0  0  0  0  0  0  0  0  0  0  0  0
    4.4957   -9.2636   17.3041 C   0  0  0  0  0  0  0  0  0  0  0  0
   -1.8070   -5.6086   28.1920 O   0  0  0  0  0  0  0  0  0  0  0  0
   10.4296   -5.1799   28.3140 C   0  0  0  0  0  0  0  0  0  0  0  0
    6.6017   -5.9004   26.9187 C   0  0  0  0  0  0  0  0  0  0  0  0
    2.4761   -6.9940   26.4111 N   0  0  0  0  0  0  0  0  0  0  0  0
    9.1353   -5.4053   27.8239 C   0  0  0  0  0  0  0  0  0  0  0  0
    0.9922   -9.3232   16.5995 O   0  0  0  0  0  0  0  0  0  0  0  0
    1.5232   -7.6869   27.1182 C   0  0  0  0  0  0  0  0  0  0  0  0
    8.6878   -6.6715   27.7262 N   0  0  0  0  0  0  0  0  0  0  0  0
    6.9911   -8.2423   27.1808 C   0  0  0  0  0  0  0  0  0  0  0  0
    3.8436   -7.2758   16.0578 C   0  0  0  0  0  0  0  0  0  0  0  0
    3.1882   -9.7190   17.2566 C   0  0  0  0  0  0  0  0  0  0  0  0
    5.3488   -6.1737   26.5092 C   0  0  0  0  0  0  0  0  0  0  0  0
    7.4567   -6.9464   27.2858 C   0  0  0  0  0  0  0  0  0  0  0  0
    0.1921   -5.7592   27.1123 C   0  0  0  0  0  0  0  0  0  0  0  0
    3.5517   -7.7407   25.9711 C   0  0  0  0  0  0  0  0  0  0  0  0
  1  4  4  0
  1 22  4  0
  2 20  4  0
  2 27  4  0
  3 12  4  0
  3 23  4  0
  4 25  4  0
  4 28  1  0
  5  8  4  0
  5 17  4  0
  6  7  4  0
  6 16  4  0
  7 18  4  0
  8 27  4  0
  9 13  4  0
  9 23  4  0
 10 11  1  0
 11 14  2  0
 11 27  1  0
 12 19  1  0
 12 24  4  0
 13 24  4  0
 15 18  1  0
 16 25  4  0
 16 26  4  0
 17 20  4  0
 17 28  1  0
 18 21  4  0
 21 26  4  0
 22 26  4  0
M  END
$$$$

 Created by Python create_sdf_string function

 28 30  0  0  0  0  0  0  0  0999 V2000
    5.7174   -8.4529   26.7190 C   0  0  0  0  0  0  0  0  0  0  0  0
    0.3974   -7.0711   27.5149 C   0  0  0  0  0  0  0  0  0  0  0  0
    2.5338   -7.6891   16.0102 C   0  0  0  0  0  0  0  0  0  0  0  0
    4.8690   -7.4380   26.4151 C   0  0  0  0  0  0  0  0  0  0  0  0
    2.3021   -5.6726   26.0378 C   0  0  0  0  0  0  0  0  0  0  0  0
    7.0880   -4.6163   27.0010 C   0  0  0  0  0  0  0  0  0  0  0  0
    8.3117   -4.3698   27.4436 C   0  0  0  0  0  0  0  0  0  0  0  0
    1.1339   -5.0515   26.3541 C   0  0  0  0  0  0  0  0  0  0  0  0
    4.8080   -8.0362   16.7101 C   0  0  0  0  0  0  0  0  0  0  0  0
   -1.2173   -3.9294   26.9717 O   0  0  0  0  0  0  0  0  0  0  0  0
   -1.0025   -5.0942   27.4586 C   0  0  0  0  0  0  0  0  0  0  0  0
    2.2474   -8.9123   16.6273 C   0  0  0  0  0  0  0  0  0  0  0  0
    4.4957   -9.2636   17.3041 C   0  0  0  0  0  0  0  0  0  0  0  0
   -1.8070   -5.6086   28.1920 O   0  0  0  0  0  0  0  0  0  0  0  0
   10.4296   -5.1799   28.3140 C   0  0  0  0  0  0  0  0  0  0  0  0
    6.6017   -5.9004   26.9187 C   0  0  0  0  0  0  0  0  0  0  0  0
    2.4761   -6.9940   26.4111 N   0  0  0  0  0  0  0  0  0  0  0  0
    9.1353   -5.4053   27.8239 C   0  0  0  0  0  0  0  0  0  0  0  0
    0.9922   -9.3232   16.5995 O   0  0  0  0  0  0  0  0  0  0  0  0
    1.5232   -7.6869   27.1182 C   0  0  0  0  0  0  0  0  0  0  0  0
    8.6878   -6.6715   27.7262 N   0  0  0  0  0  0  0  0  0  0  0  0
    6.9911   -8.2423   27.1808 C   0  0  0  0  0  0  0  0  0  0  0  0
    3.8436   -7.2758   16.0578 C   0  0  0  0  0  0  0  0  0  0  0  0
    3.1882   -9.7190   17.2566 C   0  0  0  0  0  0  0  0  0  0  0  0
    5.3488   -6.1737   26.5092 C   0  0  0  0  0  0  0  0  0  0  0  0
    7.4567   -6.9464   27.2858 C   0  0  0  0  0  0  0  0  0  0  0  0
    0.1921   -5.7592   27.1123 C   0  0  0  0  0  0  0  0  0  0  0  0
    3.5517   -7.7407   25.9711 C   0  0  0  0  0  0  0  0  0  0  0  0
  1  4  4  0
  1 22  4  0
  2 20  4  0
  2 27  4  0
  3 12  4  0
  3 23  4  0
  4 25  4  0
  4 28  1  0
  5  8  4  0
  5 17  4  0
  6  7  4  0
  6 16  4  0
  7 18  4  0
  8 27  4  0
  9 13  4  0
  9 23  4  0
 10 11  1  0
 11 14  2  0
 11 27  1  0
 12 19  1  0
 12 24  4  0
 13 24  4  0
 15 18  1  0
 16 25  4  0
 16 26  4  0
 17 20  4  0
 17 28  1  0
 18 21  4  0
 21 26  4  0
 22 26  4  0
M  END
$$$$

 Created by Python create_sdf_string function

 28 30  0  0  0  0  0  0  0  0999 V2000
    5.7174   -8.4529   26.7190 C   0  0  0  0  0  0  0  0  0  0  0  0
    0.3974   -7.0711   27.5149 C   0  0  0  0  0  0  0  0  0  0  0  0
    2.5338   -7.6891   16.0102 C   0  0  0  0  0  0  0  0  0  0  0  0
    4.8690   -7.4380   26.4151 C   0  0  0  0  0  0  0  0  0  0  0  0
    2.3021   -5.6726   26.0378 C   0  0  0  0  0  0  0  0  0  0  0  0
    7.0880   -4.6163   27.0010 C   0  0  0  0  0  0  0  0  0  0  0  0
    8.3117   -4.3698   27.4436 C   0  0  0  0  0  0  0  0  0  0  0  0
    1.1339   -5.0515   26.3541 C   0  0  0  0  0  0  0  0  0  0  0  0
    4.8080   -8.0362   16.7101 C   0  0  0  0  0  0  0  0  0  0  0  0
   -1.2173   -3.9294   26.9717 O   0  0  0  0  0  0  0  0  0  0  0  0
   -1.0025   -5.0942   27.4586 C   0  0  0  0  0  0  0  0  0  0  0  0
    2.2474   -8.9123   16.6273 C   0  0  0  0  0  0  0  0  0  0  0  0
    4.4957   -9.2636   17.3041 C   0  0  0  0  0  0  0  0  0  0  0  0
   -1.8070   -5.6086   28.1920 O   0  0  0  0  0  0  0  0  0  0  0  0
   10.4296   -5.1799   28.3140 C   0  0  0  0  0  0  0  0  0  0  0  0
    6.6017   -5.9004   26.9187 C   0  0  0  0  0  0  0  0  0  0  0  0
    2.4761   -6.9940   26.4111 N   0  0  0  0  0  0  0  0  0  0  0  0
    9.1353   -5.4053   27.8239 C   0  0  0  0  0  0  0  0  0  0  0  0
    0.9922   -9.3232   16.5995 O   0  0  0  0  0  0  0  0  0  0  0  0
    1.5232   -7.6869   27.1182 C   0  0  0  0  0  0  0  0  0  0  0  0
    8.6878   -6.6715   27.7262 N   0  0  0  0  0  0  0  0  0  0  0  0
    6.9911   -8.2423   27.1808 C   0  0  0  0  0  0  0  0  0  0  0  0
    3.8436   -7.2758   16.0578 C   0  0  0  0  0  0  0  0  0  0  0  0
    3.1882   -9.7190   17.2566 C   0  0  0  0  0  0  0  0  0  0  0  0
    5.3488   -6.1737   26.5092 C   0  0  0  0  0  0  0  0  0  0  0  0
    7.4567   -6.9464   27.2858 C   0  0  0  0  0  0  0  0  0  0  0  0
    0.1921   -5.7592   27.1123 C   0  0  0  0  0  0  0  0  0  0  0  0
    3.5517   -7.7407   25.9711 C   0  0  0  0  0  0  0  0  0  0  0  0
  1  4  4  0
  1 22  4  0
  2 20  4  0
  2 27  4  0
  3 12  4  0
  3 23  4  0
  4 25  4  0
  4 28  1  0
  5  8  4  0
  5 17  4  0
  6  7  4  0
  6 16  4  0
  7 18  4  0
  8 27  4  0
  9 13  4  0
  9 23  4  0
 10 11  1  0
 11 14  2  0
 11 27  1  0
 12 19  1  0
 12 24  4  0
 13 24  4  0
 15 18  1  0
 16 25  4  0
 16 26  4  0
 17 20  4  0
 17 28  1  0
 18 21  4  0
 21 26  4  0
 22 26  4  0
M  END
$$$$

 Created by Python create_sdf_string function

 28 30  0  0  0  0  0  0  0  0999 V2000
    5.7174   -8.4529   26.7190 C   0  0  0  0  0  0  0  0  0  0  0  0
    0.3974   -7.0711   27.5149 C   0  0  0  0  0  0  0  0  0  0  0  0
    2.5338   -7.6891   16.0102 C   0  0  0  0  0  0  0  0  0  0  0  0
    4.8690   -7.4380   26.4151 C   0  0  0  0  0  0  0  0  0  0  0  0
    2.3021   -5.6726   26.0378 C   0  0  0  0  0  0  0  0  0  0  0  0
    7.0880   -4.6163   27.0010 C   0  0  0  0  0  0  0  0  0  0  0  0
    8.3117   -4.3698   27.4436 C   0  0  0  0  0  0  0  0  0  0  0  0
    1.1339   -5.0515   26.3541 C   0  0  0  0  0  0  0  0  0  0  0  0
    4.8080   -8.0362   16.7101 C   0  0  0  0  0  0  0  0  0  0  0  0
   -1.2173   -3.9294   26.9717 O   0  0  0  0  0  0  0  0  0  0  0  0
   -1.0025   -5.0942   27.4586 C   0  0  0  0  0  0  0  0  0  0  0  0
    2.2474   -8.9123   16.6273 C   0  0  0  0  0  0  0  0  0  0  0  0
    4.4957   -9.2636   17.3041 C   0  0  0  0  0  0  0  0  0  0  0  0
   -1.8070   -5.6086   28.1920 O   0  0  0  0  0  0  0  0  0  0  0  0
   10.4296   -5.1799   28.3140 C   0  0  0  0  0  0  0  0  0  0  0  0
    6.6017   -5.9004   26.9187 C   0  0  0  0  0  0  0  0  0  0  0  0
    2.4761   -6.9940   26.4111 N   0  0  0  0  0  0  0  0  0  0  0  0
    9.1353   -5.4053   27.8239 C   0  0  0  0  0  0  0  0  0  0  0  0
    0.9922   -9.3232   16.5995 O   0  0  0  0  0  0  0  0  0  0  0  0
    1.5232   -7.6869   27.1182 C   0  0  0  0  0  0  0  0  0  0  0  0
    8.6878   -6.6715   27.7262 N   0  0  0  0  0  0  0  0  0  0  0  0
    6.9911   -8.2423   27.1808 C   0  0  0  0  0  0  0  0  0  0  0  0
    3.8436   -7.2758   16.0578 C   0  0  0  0  0  0  0  0  0  0  0  0
    3.1882   -9.7190   17.2566 C   0  0  0  0  0  0  0  0  0  0  0  0
    5.3488   -6.1737   26.5092 C   0  0  0  0  0  0  0  0  0  0  0  0
    7.4567   -6.9464   27.2858 C   0  0  0  0  0  0  0  0  0  0  0  0
    0.1921   -5.7592   27.1123 C   0  0  0  0  0  0  0  0  0  0  0  0
    3.5517   -7.7407   25.9711 C   0  0  0  0  0  0  0  0  0  0  0  0
  1  4  4  0
  1 22  4  0
  2 20  4  0
  2 27  4  0
  3 12  4  0
  3 23  4  0
  4 25  4  0
  4 28  1  0
  5  8  4  0
  5 17  4  0
  6  7  4  0
  6 16  4  0
  7 18  4  0
  8 27  4  0
  9 13  4  0
  9 23  4  0
 10 11  1  0
 11 14  2  0
 11 27  1  0
 12 19  1  0
 12 24  4  0
 13 24  4  0
 15 18  1  0
 16 25  4  0
 16 26  4  0
 17 20  4  0
 17 28  1  0
 18 21  4  0
 21 26  4  0
 22 26  4  0
M  END
$$$$

 Created by Python create_sdf_string function

 28 30  0  0  0  0  0  0  0  0999 V2000
    5.7174   -8.4529   26.7190 C   0  0  0  0  0  0  0  0  0  0  0  0
    0.3974   -7.0711   27.5149 C   0  0  0  0  0  0  0  0  0  0  0  0
    2.5338   -7.6891   16.0102 C   0  0  0  0  0  0  0  0  0  0  0  0
    4.8690   -7.4380   26.4151 C   0  0  0  0  0  0  0  0  0  0  0  0
    2.3021   -5.6726   26.0378 C   0  0  0  0  0  0  0  0  0  0  0  0
    7.0880   -4.6163   27.0010 C   0  0  0  0  0  0  0  0  0  0  0  0
    8.3117   -4.3698   27.4436 C   0  0  0  0  0  0  0  0  0  0  0  0
    1.1339   -5.0515   26.3541 C   0  0  0  0  0  0  0  0  0  0  0  0
    4.8080   -8.0362   16.7101 C   0  0  0  0  0  0  0  0  0  0  0  0
   -1.2173   -3.9294   26.9717 O   0  0  0  0  0  0  0  0  0  0  0  0
   -1.0025   -5.0942   27.4586 C   0  0  0  0  0  0  0  0  0  0  0  0
    2.2474   -8.9123   16.6273 C   0  0  0  0  0  0  0  0  0  0  0  0
    4.4957   -9.2636   17.3041 C   0  0  0  0  0  0  0  0  0  0  0  0
   -1.8070   -5.6086   28.1920 O   0  0  0  0  0  0  0  0  0  0  0  0
   10.4296   -5.1799   28.3140 C   0  0  0  0  0  0  0  0  0  0  0  0
    6.6017   -5.9004   26.9187 C   0  0  0  0  0  0  0  0  0  0  0  0
    2.4761   -6.9940   26.4111 N   0  0  0  0  0  0  0  0  0  0  0  0
    9.1353   -5.4053   27.8239 C   0  0  0  0  0  0  0  0  0  0  0  0
    0.9922   -9.3232   16.5995 O   0  0  0  0  0  0  0  0  0  0  0  0
    1.5232   -7.6869   27.1182 C   0  0  0  0  0  0  0  0  0  0  0  0
    8.6878   -6.6715   27.7262 N   0  0  0  0  0  0  0  0  0  0  0  0
    6.9911   -8.2423   27.1808 C   0  0  0  0  0  0  0  0  0  0  0  0
    3.8436   -7.2758   16.0578 C   0  0  0  0  0  0  0  0  0  0  0  0
    3.1882   -9.7190   17.2566 C   0  0  0  0  0  0  0  0  0  0  0  0
    5.3488   -6.1737   26.5092 C   0  0  0  0  0  0  0  0  0  0  0  0
    7.4567   -6.9464   27.2858 C   0  0  0  0  0  0  0  0  0  0  0  0
    0.1921   -5.7592   27.1123 C   0  0  0  0  0  0  0  0  0  0  0  0
    3.5517   -7.7407   25.9711 C   0  0  0  0  0  0  0  0  0  0  0  0
  1  4  4  0
  1 22  4  0
  2 20  4  0
  2 27  4  0
  3 12  4  0
  3 23  4  0
  4 25  4  0
  4 28  1  0
  5  8  4  0
  5 17  4  0
  6  7  4  0
  6 16  4  0
  7 18  4  0
  8 27  4  0
  9 13  4  0
  9 23  4  0
 10 11  1  0
 11 14  2  0
 11 27  1  0
 12 19  1  0
 12 24  4  0
 13 24  4  0
 15 18  1  0
 16 25  4  0
 16 26  4  0
 17 20  4  0
 17 28  1  0
 18 21  4  0
 21 26  4  0
 22 26  4  0
M  END
$$$$

 Created by Python create_sdf_string function

 28 30  0  0  0  0  0  0  0  0999 V2000
    5.7174   -8.4529   26.7190 C   0  0  0  0  0  0  0  0  0  0  0  0
    0.3974   -7.0711   27.5149 C   0  0  0  0  0  0  0  0  0  0  0  0
    2.5338   -7.6891   16.0102 C   0  0  0  0  0  0  0  0  0  0  0  0
    4.8690   -7.4380   26.4151 C   0  0  0  0  0  0  0  0  0  0  0  0
    2.3021   -5.6726   26.0378 C   0  0  0  0  0  0  0  0  0  0  0  0
    7.0880   -4.6163   27.0010 C   0  0  0  0  0  0  0  0  0  0  0  0
    8.3117   -4.3698   27.4436 C   0  0  0  0  0  0  0  0  0  0  0  0
    1.1339   -5.0515   26.3541 C   0  0  0  0  0  0  0  0  0  0  0  0
    4.8080   -8.0362   16.7101 C   0  0  0  0  0  0  0  0  0  0  0  0
   -1.2173   -3.9294   26.9717 O   0  0  0  0  0  0  0  0  0  0  0  0
   -1.0025   -5.0942   27.4586 C   0  0  0  0  0  0  0  0  0  0  0  0
    2.2474   -8.9123   16.6273 C   0  0  0  0  0  0  0  0  0  0  0  0
    4.4957   -9.2636   17.3041 C   0  0  0  0  0  0  0  0  0  0  0  0
   -1.8070   -5.6086   28.1920 O   0  0  0  0  0  0  0  0  0  0  0  0
   10.4296   -5.1799   28.3140 C   0  0  0  0  0  0  0  0  0  0  0  0
    6.6017   -5.9004   26.9187 C   0  0  0  0  0  0  0  0  0  0  0  0
    2.4761   -6.9940   26.4111 N   0  0  0  0  0  0  0  0  0  0  0  0
    9.1353   -5.4053   27.8239 C   0  0  0  0  0  0  0  0  0  0  0  0
    0.9922   -9.3232   16.5995 O   0  0  0  0  0  0  0  0  0  0  0  0
    1.5232   -7.6869   27.1182 C   0  0  0  0  0  0  0  0  0  0  0  0
    8.6878   -6.6715   27.7262 N   0  0  0  0  0  0  0  0  0  0  0  0
    6.9911   -8.2423   27.1808 C   0  0  0  0  0  0  0  0  0  0  0  0
    3.8436   -7.2758   16.0578 C   0  0  0  0  0  0  0  0  0  0  0  0
    3.1882   -9.7190   17.2566 C   0  0  0  0  0  0  0  0  0  0  0  0
    5.3488   -6.1737   26.5092 C   0  0  0  0  0  0  0  0  0  0  0  0
    7.4567   -6.9464   27.2858 C   0  0  0  0  0  0  0  0  0  0  0  0
    0.1921   -5.7592   27.1123 C   0  0  0  0  0  0  0  0  0  0  0  0
    3.5517   -7.7407   25.9711 C   0  0  0  0  0  0  0  0  0  0  0  0
  1  4  4  0
  1 22  4  0
  2 20  4  0
  2 27  4  0
  3 12  4  0
  3 23  4  0
  4 25  4  0
  4 28  1  0
  5  8  4  0
  5 17  4  0
  6  7  4  0
  6 16  4  0
  7 18  4  0
  8 27  4  0
  9 13  4  0
  9 23  4  0
 10 11  1  0
 11 14  2  0
 11 27  1  0
 12 19  1  0
 12 24  4  0
 13 24  4  0
 15 18  1  0
 16 25  4  0
 16 26  4  0
 17 20  4  0
 17 28  1  0
 18 21  4  0
 21 26  4  0
 22 26  4  0
M  END
$$$$

 Created by Python create_sdf_string function

 28 30  0  0  0  0  0  0  0  0999 V2000
    5.7174   -8.4529   26.7190 C   0  0  0  0  0  0  0  0  0  0  0  0
    0.3974   -7.0711   27.5149 C   0  0  0  0  0  0  0  0  0  0  0  0
    2.5338   -7.6891   16.0102 C   0  0  0  0  0  0  0  0  0  0  0  0
    4.8690   -7.4380   26.4151 C   0  0  0  0  0  0  0  0  0  0  0  0
    2.3021   -5.6726   26.0378 C   0  0  0  0  0  0  0  0  0  0  0  0
    7.0880   -4.6163   27.0010 C   0  0  0  0  0  0  0  0  0  0  0  0
    8.3117   -4.3698   27.4436 C   0  0  0  0  0  0  0  0  0  0  0  0
    1.1339   -5.0515   26.3541 C   0  0  0  0  0  0  0  0  0  0  0  0
    4.8080   -8.0362   16.7101 C   0  0  0  0  0  0  0  0  0  0  0  0
   -1.2173   -3.9294   26.9717 O   0  0  0  0  0  0  0  0  0  0  0  0
   -1.0025   -5.0942   27.4586 C   0  0  0  0  0  0  0  0  0  0  0  0
    2.2474   -8.9123   16.6273 C   0  0  0  0  0  0  0  0  0  0  0  0
    4.4957   -9.2636   17.3041 C   0  0  0  0  0  0  0  0  0  0  0  0
   -1.8070   -5.6086   28.1920 O   0  0  0  0  0  0  0  0  0  0  0  0
   10.4296   -5.1799   28.3140 C   0  0  0  0  0  0  0  0  0  0  0  0
    6.6017   -5.9004   26.9187 C   0  0  0  0  0  0  0  0  0  0  0  0
    2.4761   -6.9940   26.4111 N   0  0  0  0  0  0  0  0  0  0  0  0
    9.1353   -5.4053   27.8239 C   0  0  0  0  0  0  0  0  0  0  0  0
    0.9922   -9.3232   16.5995 O   0  0  0  0  0  0  0  0  0  0  0  0
    1.5232   -7.6869   27.1182 C   0  0  0  0  0  0  0  0  0  0  0  0
    8.6878   -6.6715   27.7262 N   0  0  0  0  0  0  0  0  0  0  0  0
    6.9911   -8.2423   27.1808 C   0  0  0  0  0  0  0  0  0  0  0  0
    3.8436   -7.2758   16.0578 C   0  0  0  0  0  0  0  0  0  0  0  0
    3.1882   -9.7190   17.2566 C   0  0  0  0  0  0  0  0  0  0  0  0
    5.3488   -6.1737   26.5092 C   0  0  0  0  0  0  0  0  0  0  0  0
    7.4567   -6.9464   27.2858 C   0  0  0  0  0  0  0  0  0  0  0  0
    0.1921   -5.7592   27.1123 C   0  0  0  0  0  0  0  0  0  0  0  0
    3.5517   -7.7407   25.9711 C   0  0  0  0  0  0  0  0  0  0  0  0
  1  4  4  0
  1 22  4  0
  2 20  4  0
  2 27  4  0
  3 12  4  0
  3 23  4  0
  4 25  4  0
  4 28  1  0
  5  8  4  0
  5 17  4  0
  6  7  4  0
  6 16  4  0
  7 18  4  0
  8 27  4  0
  9 13  4  0
  9 23  4  0
 10 11  1  0
 11 14  2  0
 11 27  1  0
 12 19  1  0
 12 24  4  0
 13 24  4  0
 15 18  1  0
 16 25  4  0
 16 26  4  0
 17 20  4  0
 17 28  1  0
 18 21  4  0
 21 26  4  0
 22 26  4  0
M  END
$$$$

 Created by Python create_sdf_string function

 28 30  0  0  0  0  0  0  0  0999 V2000
    5.7174   -8.4529   26.7190 C   0  0  0  0  0  0  0  0  0  0  0  0
    0.3974   -7.0711   27.5149 C   0  0  0  0  0  0  0  0  0  0  0  0
    2.5338   -7.6891   16.0102 C   0  0  0  0  0  0  0  0  0  0  0  0
    4.8690   -7.4380   26.4151 C   0  0  0  0  0  0  0  0  0  0  0  0
    2.3021   -5.6726   26.0378 C   0  0  0  0  0  0  0  0  0  0  0  0
    7.0880   -4.6163   27.0010 C   0  0  0  0  0  0  0  0  0  0  0  0
    8.3117   -4.3698   27.4436 C   0  0  0  0  0  0  0  0  0  0  0  0
    1.1339   -5.0515   26.3541 C   0  0  0  0  0  0  0  0  0  0  0  0
    4.8080   -8.0362   16.7101 C   0  0  0  0  0  0  0  0  0  0  0  0
   -1.2173   -3.9294   26.9717 O   0  0  0  0  0  0  0  0  0  0  0  0
   -1.0025   -5.0942   27.4586 C   0  0  0  0  0  0  0  0  0  0  0  0
    2.2474   -8.9123   16.6273 C   0  0  0  0  0  0  0  0  0  0  0  0
    4.4957   -9.2636   17.3041 C   0  0  0  0  0  0  0  0  0  0  0  0
   -1.8070   -5.6086   28.1920 O   0  0  0  0  0  0  0  0  0  0  0  0
   10.4296   -5.1799   28.3140 C   0  0  0  0  0  0  0  0  0  0  0  0
    6.6017   -5.9004   26.9187 C   0  0  0  0  0  0  0  0  0  0  0  0
    2.4761   -6.9940   26.4111 N   0  0  0  0  0  0  0  0  0  0  0  0
    9.1353   -5.4053   27.8239 C   0  0  0  0  0  0  0  0  0  0  0  0
    0.9922   -9.3232   16.5995 O   0  0  0  0  0  0  0  0  0  0  0  0
    1.5232   -7.6869   27.1182 C   0  0  0  0  0  0  0  0  0  0  0  0
    8.6878   -6.6715   27.7262 N   0  0  0  0  0  0  0  0  0  0  0  0
    6.9911   -8.2423   27.1808 C   0  0  0  0  0  0  0  0  0  0  0  0
    3.8436   -7.2758   16.0578 C   0  0  0  0  0  0  0  0  0  0  0  0
    3.1882   -9.7190   17.2566 C   0  0  0  0  0  0  0  0  0  0  0  0
    5.3488   -6.1737   26.5092 C   0  0  0  0  0  0  0  0  0  0  0  0
    7.4567   -6.9464   27.2858 C   0  0  0  0  0  0  0  0  0  0  0  0
    0.1921   -5.7592   27.1123 C   0  0  0  0  0  0  0  0  0  0  0  0
    3.5517   -7.7407   25.9711 C   0  0  0  0  0  0  0  0  0  0  0  0
  1  4  4  0
  1 22  4  0
  2 20  4  0
  2 27  4  0
  3 12  4  0
  3 23  4  0
  4 25  4  0
  4 28  1  0
  5  8  4  0
  5 17  4  0
  6  7  4  0
  6 16  4  0
  7 18  4  0
  8 27  4  0
  9 13  4  0
  9 23  4  0
 10 11  1  0
 11 14  2  0
 11 27  1  0
 12 19  1  0
 12 24  4  0
 13 24  4  0
 15 18  1  0
 16 25  4  0
 16 26  4  0
 17 20  4  0
 17 28  1  0
 18 21  4  0
 21 26  4  0
 22 26  4  0
M  END
$$$$

 Created by Python create_sdf_string function

 28 30  0  0  0  0  0  0  0  0999 V2000
    5.7174   -8.4529   26.7190 C   0  0  0  0  0  0  0  0  0  0  0  0
    0.3974   -7.0711   27.5149 C   0  0  0  0  0  0  0  0  0  0  0  0
    2.5338   -7.6891   16.0102 C   0  0  0  0  0  0  0  0  0  0  0  0
    4.8690   -7.4380   26.4151 C   0  0  0  0  0  0  0  0  0  0  0  0
    2.3021   -5.6726   26.0378 C   0  0  0  0  0  0  0  0  0  0  0  0
    7.0880   -4.6163   27.0010 C   0  0  0  0  0  0  0  0  0  0  0  0
    8.3117   -4.3698   27.4436 C   0  0  0  0  0  0  0  0  0  0  0  0
    1.1339   -5.0515   26.3541 C   0  0  0  0  0  0  0  0  0  0  0  0
    4.8080   -8.0362   16.7101 C   0  0  0  0  0  0  0  0  0  0  0  0
   -1.2173   -3.9294   26.9717 O   0  0  0  0  0  0  0  0  0  0  0  0
   -1.0025   -5.0942   27.4586 C   0  0  0  0  0  0  0  0  0  0  0  0
    2.2474   -8.9123   16.6273 C   0  0  0  0  0  0  0  0  0  0  0  0
    4.4957   -9.2636   17.3041 C   0  0  0  0  0  0  0  0  0  0  0  0
   -1.8070   -5.6086   28.1920 O   0  0  0  0  0  0  0  0  0  0  0  0
   10.4296   -5.1799   28.3140 C   0  0  0  0  0  0  0  0  0  0  0  0
    6.6017   -5.9004   26.9187 C   0  0  0  0  0  0  0  0  0  0  0  0
    2.4761   -6.9940   26.4111 N   0  0  0  0  0  0  0  0  0  0  0  0
    9.1353   -5.4053   27.8239 C   0  0  0  0  0  0  0  0  0  0  0  0
    0.9922   -9.3232   16.5995 O   0  0  0  0  0  0  0  0  0  0  0  0
    1.5232   -7.6869   27.1182 C   0  0  0  0  0  0  0  0  0  0  0  0
    8.6878   -6.6715   27.7262 N   0  0  0  0  0  0  0  0  0  0  0  0
    6.9911   -8.2423   27.1808 C   0  0  0  0  0  0  0  0  0  0  0  0
    3.8436   -7.2758   16.0578 C   0  0  0  0  0  0  0  0  0  0  0  0
    3.1882   -9.7190   17.2566 C   0  0  0  0  0  0  0  0  0  0  0  0
    5.3488   -6.1737   26.5092 C   0  0  0  0  0  0  0  0  0  0  0  0
    7.4567   -6.9464   27.2858 C   0  0  0  0  0  0  0  0  0  0  0  0
    0.1921   -5.7592   27.1123 C   0  0  0  0  0  0  0  0  0  0  0  0
    3.5517   -7.7407   25.9711 C   0  0  0  0  0  0  0  0  0  0  0  0
  1  4  4  0
  1 22  4  0
  2 20  4  0
  2 27  4  0
  3 12  4  0
  3 23  4  0
  4 25  4  0
  4 28  1  0
  5  8  4  0
  5 17  4  0
  6  7  4  0
  6 16  4  0
  7 18  4  0
  8 27  4  0
  9 13  4  0
  9 23  4  0
 10 11  1  0
 11 14  2  0
 11 27  1  0
 12 19  1  0
 12 24  4  0
 13 24  4  0
 15 18  1  0
 16 25  4  0
 16 26  4  0
 17 20  4  0
 17 28  1  0
 18 21  4  0
 21 26  4  0
 22 26  4  0
M  END
$$$$

 Created by Python create_sdf_string function

 28 30  0  0  0  0  0  0  0  0999 V2000
    5.7174   -8.4529   26.7190 C   0  0  0  0  0  0  0  0  0  0  0  0
    0.3974   -7.0711   27.5149 C   0  0  0  0  0  0  0  0  0  0  0  0
    2.5338   -7.6891   16.0102 C   0  0  0  0  0  0  0  0  0  0  0  0
    4.8690   -7.4380   26.4151 C   0  0  0  0  0  0  0  0  0  0  0  0
    2.3021   -5.6726   26.0378 C   0  0  0  0  0  0  0  0  0  0  0  0
    7.0880   -4.6163   27.0010 C   0  0  0  0  0  0  0  0  0  0  0  0
    8.3117   -4.3698   27.4436 C   0  0  0  0  0  0  0  0  0  0  0  0
    1.1339   -5.0515   26.3541 C   0  0  0  0  0  0  0  0  0  0  0  0
    4.8080   -8.0362   16.7101 C   0  0  0  0  0  0  0  0  0  0  0  0
   -1.2173   -3.9294   26.9717 O   0  0  0  0  0  0  0  0  0  0  0  0
   -1.0025   -5.0942   27.4586 C   0  0  0  0  0  0  0  0  0  0  0  0
    2.2474   -8.9123   16.6273 C   0  0  0  0  0  0  0  0  0  0  0  0
    4.4957   -9.2636   17.3041 C   0  0  0  0  0  0  0  0  0  0  0  0
   -1.8070   -5.6086   28.1920 O   0  0  0  0  0  0  0  0  0  0  0  0
   10.4296   -5.1799   28.3140 C   0  0  0  0  0  0  0  0  0  0  0  0
    6.6017   -5.9004   26.9187 C   0  0  0  0  0  0  0  0  0  0  0  0
    2.4761   -6.9940   26.4111 N   0  0  0  0  0  0  0  0  0  0  0  0
    9.1353   -5.4053   27.8239 C   0  0  0  0  0  0  0  0  0  0  0  0
    0.9922   -9.3232   16.5995 O   0  0  0  0  0  0  0  0  0  0  0  0
    1.5232   -7.6869   27.1182 C   0  0  0  0  0  0  0  0  0  0  0  0
    8.6878   -6.6715   27.7262 N   0  0  0  0  0  0  0  0  0  0  0  0
    6.9911   -8.2423   27.1808 C   0  0  0  0  0  0  0  0  0  0  0  0
    3.8436   -7.2758   16.0578 C   0  0  0  0  0  0  0  0  0  0  0  0
    3.1882   -9.7190   17.2566 C   0  0  0  0  0  0  0  0  0  0  0  0
    5.3488   -6.1737   26.5092 C   0  0  0  0  0  0  0  0  0  0  0  0
    7.4567   -6.9464   27.2858 C   0  0  0  0  0  0  0  0  0  0  0  0
    0.1921   -5.7592   27.1123 C   0  0  0  0  0  0  0  0  0  0  0  0
    3.5517   -7.7407   25.9711 C   0  0  0  0  0  0  0  0  0  0  0  0
  1  4  4  0
  1 22  4  0
  2 20  4  0
  2 27  4  0
  3 12  4  0
  3 23  4  0
  4 25  4  0
  4 28  1  0
  5  8  4  0
  5 17  4  0
  6  7  4  0
  6 16  4  0
  7 18  4  0
  8 27  4  0
  9 13  4  0
  9 23  4  0
 10 11  1  0
 11 14  2  0
 11 27  1  0
 12 19  1  0
 12 24  4  0
 13 24  4  0
 15 18  1  0
 16 25  4  0
 16 26  4  0
 17 20  4  0
 17 28  1  0
 18 21  4  0
 21 26  4  0
 22 26  4  0
M  END
$$$$

 Created by Python create_sdf_string function

 28 30  0  0  0  0  0  0  0  0999 V2000
    5.7174   -8.4529   26.7190 C   0  0  0  0  0  0  0  0  0  0  0  0
    0.3974   -7.0711   27.5149 C   0  0  0  0  0  0  0  0  0  0  0  0
    2.5338   -7.6891   16.0102 C   0  0  0  0  0  0  0  0  0  0  0  0
    4.8690   -7.4380   26.4151 C   0  0  0  0  0  0  0  0  0  0  0  0
    2.3021   -5.6726   26.0378 C   0  0  0  0  0  0  0  0  0  0  0  0
    7.0880   -4.6163   27.0010 C   0  0  0  0  0  0  0  0  0  0  0  0
    8.3117   -4.3698   27.4436 C   0  0  0  0  0  0  0  0  0  0  0  0
    1.1339   -5.0515   26.3541 C   0  0  0  0  0  0  0  0  0  0  0  0
    4.8080   -8.0362   16.7101 C   0  0  0  0  0  0  0  0  0  0  0  0
   -1.2173   -3.9294   26.9717 O   0  0  0  0  0  0  0  0  0  0  0  0
   -1.0025   -5.0942   27.4586 C   0  0  0  0  0  0  0  0  0  0  0  0
    2.2474   -8.9123   16.6273 C   0  0  0  0  0  0  0  0  0  0  0  0
    4.4957   -9.2636   17.3041 C   0  0  0  0  0  0  0  0  0  0  0  0
   -1.8070   -5.6086   28.1920 O   0  0  0  0  0  0  0  0  0  0  0  0
   10.4296   -5.1799   28.3140 C   0  0  0  0  0  0  0  0  0  0  0  0
    6.6017   -5.9004   26.9187 C   0  0  0  0  0  0  0  0  0  0  0  0
    2.4761   -6.9940   26.4111 N   0  0  0  0  0  0  0  0  0  0  0  0
    9.1353   -5.4053   27.8239 C   0  0  0  0  0  0  0  0  0  0  0  0
    0.9922   -9.3232   16.5995 O   0  0  0  0  0  0  0  0  0  0  0  0
    1.5232   -7.6869   27.1182 C   0  0  0  0  0  0  0  0  0  0  0  0
    8.6878   -6.6715   27.7262 N   0  0  0  0  0  0  0  0  0  0  0  0
    6.9911   -8.2423   27.1808 C   0  0  0  0  0  0  0  0  0  0  0  0
    3.8436   -7.2758   16.0578 C   0  0  0  0  0  0  0  0  0  0  0  0
    3.1882   -9.7190   17.2566 C   0  0  0  0  0  0  0  0  0  0  0  0
    5.3488   -6.1737   26.5092 C   0  0  0  0  0  0  0  0  0  0  0  0
    7.4567   -6.9464   27.2858 C   0  0  0  0  0  0  0  0  0  0  0  0
    0.1921   -5.7592   27.1123 C   0  0  0  0  0  0  0  0  0  0  0  0
    3.5517   -7.7407   25.9711 C   0  0  0  0  0  0  0  0  0  0  0  0
  1  4  4  0
  1 22  4  0
  2 20  4  0
  2 27  4  0
  3 12  4  0
  3 23  4  0
  4 25  4  0
  4 28  1  0
  5  8  4  0
  5 17  4  0
  6  7  4  0
  6 16  4  0
  7 18  4  0
  8 27  4  0
  9 13  4  0
  9 23  4  0
 10 11  1  0
 11 14  2  0
 11 27  1  0
 12 19  1  0
 12 24  4  0
 13 24  4  0
 15 18  1  0
 16 25  4  0
 16 26  4  0
 17 20  4  0
 17 28  1  0
 18 21  4  0
 21 26  4  0
 22 26  4  0
M  END
$$$$

 Created by Python create_sdf_string function

 28 30  0  0  0  0  0  0  0  0999 V2000
    5.7174   -8.4529   26.7190 C   0  0  0  0  0  0  0  0  0  0  0  0
    0.3974   -7.0711   27.5149 C   0  0  0  0  0  0  0  0  0  0  0  0
    2.5338   -7.6891   16.0102 C   0  0  0  0  0  0  0  0  0  0  0  0
    4.8690   -7.4380   26.4151 C   0  0  0  0  0  0  0  0  0  0  0  0
    2.3021   -5.6726   26.0378 C   0  0  0  0  0  0  0  0  0  0  0  0
    7.0880   -4.6163   27.0010 C   0  0  0  0  0  0  0  0  0  0  0  0
    8.3117   -4.3698   27.4436 C   0  0  0  0  0  0  0  0  0  0  0  0
    1.1339   -5.0515   26.3541 C   0  0  0  0  0  0  0  0  0  0  0  0
    4.8080   -8.0362   16.7101 C   0  0  0  0  0  0  0  0  0  0  0  0
   -1.2173   -3.9294   26.9717 O   0  0  0  0  0  0  0  0  0  0  0  0
   -1.0025   -5.0942   27.4586 C   0  0  0  0  0  0  0  0  0  0  0  0
    2.2474   -8.9123   16.6273 C   0  0  0  0  0  0  0  0  0  0  0  0
    4.4957   -9.2636   17.3041 C   0  0  0  0  0  0  0  0  0  0  0  0
   -1.8070   -5.6086   28.1920 O   0  0  0  0  0  0  0  0  0  0  0  0
   10.4296   -5.1799   28.3140 C   0  0  0  0  0  0  0  0  0  0  0  0
    6.6017   -5.9004   26.9187 C   0  0  0  0  0  0  0  0  0  0  0  0
    2.4761   -6.9940   26.4111 N   0  0  0  0  0  0  0  0  0  0  0  0
    9.1353   -5.4053   27.8239 C   0  0  0  0  0  0  0  0  0  0  0  0
    0.9922   -9.3232   16.5995 O   0  0  0  0  0  0  0  0  0  0  0  0
    1.5232   -7.6869   27.1182 C   0  0  0  0  0  0  0  0  0  0  0  0
    8.6878   -6.6715   27.7262 N   0  0  0  0  0  0  0  0  0  0  0  0
    6.9911   -8.2423   27.1808 C   0  0  0  0  0  0  0  0  0  0  0  0
    3.8436   -7.2758   16.0578 C   0  0  0  0  0  0  0  0  0  0  0  0
    3.1882   -9.7190   17.2566 C   0  0  0  0  0  0  0  0  0  0  0  0
    5.3488   -6.1737   26.5092 C   0  0  0  0  0  0  0  0  0  0  0  0
    7.4567   -6.9464   27.2858 C   0  0  0  0  0  0  0  0  0  0  0  0
    0.1921   -5.7592   27.1123 C   0  0  0  0  0  0  0  0  0  0  0  0
    3.5517   -7.7407   25.9711 C   0  0  0  0  0  0  0  0  0  0  0  0
  1  4  4  0
  1 22  4  0
  2 20  4  0
  2 27  4  0
  3 12  4  0
  3 23  4  0
  4 25  4  0
  4 28  1  0
  5  8  4  0
  5 17  4  0
  6  7  4  0
  6 16  4  0
  7 18  4  0
  8 27  4  0
  9 13  4  0
  9 23  4  0
 10 11  1  0
 11 14  2  0
 11 27  1  0
 12 19  1  0
 12 24  4  0
 13 24  4  0
 15 18  1  0
 16 25  4  0
 16 26  4  0
 17 20  4  0
 17 28  1  0
 18 21  4  0
 21 26  4  0
 22 26  4  0
M  END
$$$$

 Created by Python create_sdf_string function

 28 30  0  0  0  0  0  0  0  0999 V2000
    5.7174   -8.4529   26.7190 C   0  0  0  0  0  0  0  0  0  0  0  0
    0.3974   -7.0711   27.5149 C   0  0  0  0  0  0  0  0  0  0  0  0
    2.5338   -7.6891   16.0102 C   0  0  0  0  0  0  0  0  0  0  0  0
    4.8690   -7.4380   26.4151 C   0  0  0  0  0  0  0  0  0  0  0  0
    2.3021   -5.6726   26.0378 C   0  0  0  0  0  0  0  0  0  0  0  0
    7.0880   -4.6163   27.0010 C   0  0  0  0  0  0  0  0  0  0  0  0
    8.3117   -4.3698   27.4436 C   0  0  0  0  0  0  0  0  0  0  0  0
    1.1339   -5.0515   26.3541 C   0  0  0  0  0  0  0  0  0  0  0  0
    4.8080   -8.0362   16.7101 C   0  0  0  0  0  0  0  0  0  0  0  0
   -1.2173   -3.9294   26.9717 O   0  0  0  0  0  0  0  0  0  0  0  0
   -1.0025   -5.0942   27.4586 C   0  0  0  0  0  0  0  0  0  0  0  0
    2.2474   -8.9123   16.6273 C   0  0  0  0  0  0  0  0  0  0  0  0
    4.4957   -9.2636   17.3041 C   0  0  0  0  0  0  0  0  0  0  0  0
   -1.8070   -5.6086   28.1920 O   0  0  0  0  0  0  0  0  0  0  0  0
   10.4296   -5.1799   28.3140 C   0  0  0  0  0  0  0  0  0  0  0  0
    6.6017   -5.9004   26.9187 C   0  0  0  0  0  0  0  0  0  0  0  0
    2.4761   -6.9940   26.4111 N   0  0  0  0  0  0  0  0  0  0  0  0
    9.1353   -5.4053   27.8239 C   0  0  0  0  0  0  0  0  0  0  0  0
    0.9922   -9.3232   16.5995 O   0  0  0  0  0  0  0  0  0  0  0  0
    1.5232   -7.6869   27.1182 C   0  0  0  0  0  0  0  0  0  0  0  0
    8.6878   -6.6715   27.7262 N   0  0  0  0  0  0  0  0  0  0  0  0
    6.9911   -8.2423   27.1808 C   0  0  0  0  0  0  0  0  0  0  0  0
    3.8436   -7.2758   16.0578 C   0  0  0  0  0  0  0  0  0  0  0  0
    3.1882   -9.7190   17.2566 C   0  0  0  0  0  0  0  0  0  0  0  0
    5.3488   -6.1737   26.5092 C   0  0  0  0  0  0  0  0  0  0  0  0
    7.4567   -6.9464   27.2858 C   0  0  0  0  0  0  0  0  0  0  0  0
    0.1921   -5.7592   27.1123 C   0  0  0  0  0  0  0  0  0  0  0  0
    3.5517   -7.7407   25.9711 C   0  0  0  0  0  0  0  0  0  0  0  0
  1  4  4  0
  1 22  4  0
  2 20  4  0
  2 27  4  0
  3 12  4  0
  3 23  4  0
  4 25  4  0
  4 28  1  0
  5  8  4  0
  5 17  4  0
  6  7  4  0
  6 16  4  0
  7 18  4  0
  8 27  4  0
  9 13  4  0
  9 23  4  0
 10 11  1  0
 11 14  2  0
 11 27  1  0
 12 19  1  0
 12 24  4  0
 13 24  4  0
 15 18  1  0
 16 25  4  0
 16 26  4  0
 17 20  4  0
 17 28  1  0
 18 21  4  0
 21 26  4  0
 22 26  4  0
M  END
$$$$

 Created by Python create_sdf_string function

 28 30  0  0  0  0  0  0  0  0999 V2000
    5.7174   -8.4529   26.7190 C   0  0  0  0  0  0  0  0  0  0  0  0
    0.3974   -7.0711   27.5149 C   0  0  0  0  0  0  0  0  0  0  0  0
    2.5338   -7.6891   16.0102 C   0  0  0  0  0  0  0  0  0  0  0  0
    4.8690   -7.4380   26.4151 C   0  0  0  0  0  0  0  0  0  0  0  0
    2.3021   -5.6726   26.0378 C   0  0  0  0  0  0  0  0  0  0  0  0
    7.0880   -4.6163   27.0010 C   0  0  0  0  0  0  0  0  0  0  0  0
    8.3117   -4.3698   27.4436 C   0  0  0  0  0  0  0  0  0  0  0  0
    1.1339   -5.0515   26.3541 C   0  0  0  0  0  0  0  0  0  0  0  0
    4.8080   -8.0362   16.7101 C   0  0  0  0  0  0  0  0  0  0  0  0
   -1.2173   -3.9294   26.9717 O   0  0  0  0  0  0  0  0  0  0  0  0
   -1.0025   -5.0942   27.4586 C   0  0  0  0  0  0  0  0  0  0  0  0
    2.2474   -8.9123   16.6273 C   0  0  0  0  0  0  0  0  0  0  0  0
    4.4957   -9.2636   17.3041 C   0  0  0  0  0  0  0  0  0  0  0  0
   -1.8070   -5.6086   28.1920 O   0  0  0  0  0  0  0  0  0  0  0  0
   10.4296   -5.1799   28.3140 C   0  0  0  0  0  0  0  0  0  0  0  0
    6.6017   -5.9004   26.9187 C   0  0  0  0  0  0  0  0  0  0  0  0
    2.4761   -6.9940   26.4111 N   0  0  0  0  0  0  0  0  0  0  0  0
    9.1353   -5.4053   27.8239 C   0  0  0  0  0  0  0  0  0  0  0  0
    0.9922   -9.3232   16.5995 O   0  0  0  0  0  0  0  0  0  0  0  0
    1.5232   -7.6869   27.1182 C   0  0  0  0  0  0  0  0  0  0  0  0
    8.6878   -6.6715   27.7262 N   0  0  0  0  0  0  0  0  0  0  0  0
    6.9911   -8.2423   27.1808 C   0  0  0  0  0  0  0  0  0  0  0  0
    3.8436   -7.2758   16.0578 C   0  0  0  0  0  0  0  0  0  0  0  0
    3.1882   -9.7190   17.2566 C   0  0  0  0  0  0  0  0  0  0  0  0
    5.3488   -6.1737   26.5092 C   0  0  0  0  0  0  0  0  0  0  0  0
    7.4567   -6.9464   27.2858 C   0  0  0  0  0  0  0  0  0  0  0  0
    0.1921   -5.7592   27.1123 C   0  0  0  0  0  0  0  0  0  0  0  0
    3.5517   -7.7407   25.9711 C   0  0  0  0  0  0  0  0  0  0  0  0
  1  4  4  0
  1 22  4  0
  2 20  4  0
  2 27  4  0
  3 12  4  0
  3 23  4  0
  4 25  4  0
  4 28  1  0
  5  8  4  0
  5 17  4  0
  6  7  4  0
  6 16  4  0
  7 18  4  0
  8 27  4  0
  9 13  4  0
  9 23  4  0
 10 11  1  0
 11 14  2  0
 11 27  1  0
 12 19  1  0
 12 24  4  0
 13 24  4  0
 15 18  1  0
 16 25  4  0
 16 26  4  0
 17 20  4  0
 17 28  1  0
 18 21  4  0
 21 26  4  0
 22 26  4  0
M  END
$$$$

 Created by Python create_sdf_string function

 28 30  0  0  0  0  0  0  0  0999 V2000
    5.7174   -8.4529   26.7190 C   0  0  0  0  0  0  0  0  0  0  0  0
    0.3974   -7.0711   27.5149 C   0  0  0  0  0  0  0  0  0  0  0  0
    2.5338   -7.6891   16.0102 C   0  0  0  0  0  0  0  0  0  0  0  0
    4.8690   -7.4380   26.4151 C   0  0  0  0  0  0  0  0  0  0  0  0
    2.3021   -5.6726   26.0378 C   0  0  0  0  0  0  0  0  0  0  0  0
    7.0880   -4.6163   27.0010 C   0  0  0  0  0  0  0  0  0  0  0  0
    8.3117   -4.3698   27.4436 C   0  0  0  0  0  0  0  0  0  0  0  0
    1.1339   -5.0515   26.3541 C   0  0  0  0  0  0  0  0  0  0  0  0
    4.8080   -8.0362   16.7101 C   0  0  0  0  0  0  0  0  0  0  0  0
   -1.2173   -3.9294   26.9717 O   0  0  0  0  0  0  0  0  0  0  0  0
   -1.0025   -5.0942   27.4586 C   0  0  0  0  0  0  0  0  0  0  0  0
    2.2474   -8.9123   16.6273 C   0  0  0  0  0  0  0  0  0  0  0  0
    4.4957   -9.2636   17.3041 C   0  0  0  0  0  0  0  0  0  0  0  0
   -1.8070   -5.6086   28.1920 O   0  0  0  0  0  0  0  0  0  0  0  0
   10.4296   -5.1799   28.3140 C   0  0  0  0  0  0  0  0  0  0  0  0
    6.6017   -5.9004   26.9187 C   0  0  0  0  0  0  0  0  0  0  0  0
    2.4761   -6.9940   26.4111 N   0  0  0  0  0  0  0  0  0  0  0  0
    9.1353   -5.4053   27.8239 C   0  0  0  0  0  0  0  0  0  0  0  0
    0.9922   -9.3232   16.5995 O   0  0  0  0  0  0  0  0  0  0  0  0
    1.5232   -7.6869   27.1182 C   0  0  0  0  0  0  0  0  0  0  0  0
    8.6878   -6.6715   27.7262 N   0  0  0  0  0  0  0  0  0  0  0  0
    6.9911   -8.2423   27.1808 C   0  0  0  0  0  0  0  0  0  0  0  0
    3.8436   -7.2758   16.0578 C   0  0  0  0  0  0  0  0  0  0  0  0
    3.1882   -9.7190   17.2566 C   0  0  0  0  0  0  0  0  0  0  0  0
    5.3488   -6.1737   26.5092 C   0  0  0  0  0  0  0  0  0  0  0  0
    7.4567   -6.9464   27.2858 C   0  0  0  0  0  0  0  0  0  0  0  0
    0.1921   -5.7592   27.1123 C   0  0  0  0  0  0  0  0  0  0  0  0
    3.5517   -7.7407   25.9711 C   0  0  0  0  0  0  0  0  0  0  0  0
  1  4  4  0
  1 22  4  0
  2 20  4  0
  2 27  4  0
  3 12  4  0
  3 23  4  0
  4 25  4  0
  4 28  1  0
  5  8  4  0
  5 17  4  0
  6  7  4  0
  6 16  4  0
  7 18  4  0
  8 27  4  0
  9 13  4  0
  9 23  4  0
 10 11  1  0
 11 14  2  0
 11 27  1  0
 12 19  1  0
 12 24  4  0
 13 24  4  0
 15 18  1  0
 16 25  4  0
 16 26  4  0
 17 20  4  0
 17 28  1  0
 18 21  4  0
 21 26  4  0
 22 26  4  0
M  END
$$$$

 Created by Python create_sdf_string function

 28 30  0  0  0  0  0  0  0  0999 V2000
    5.7174   -8.4529   26.7190 C   0  0  0  0  0  0  0  0  0  0  0  0
    0.3974   -7.0711   27.5149 C   0  0  0  0  0  0  0  0  0  0  0  0
    2.5338   -7.6891   16.0102 C   0  0  0  0  0  0  0  0  0  0  0  0
    4.8690   -7.4380   26.4151 C   0  0  0  0  0  0  0  0  0  0  0  0
    2.3021   -5.6726   26.0378 C   0  0  0  0  0  0  0  0  0  0  0  0
    7.0880   -4.6163   27.0010 C   0  0  0  0  0  0  0  0  0  0  0  0
    8.3117   -4.3698   27.4436 C   0  0  0  0  0  0  0  0  0  0  0  0
    1.1339   -5.0515   26.3541 C   0  0  0  0  0  0  0  0  0  0  0  0
    4.8080   -8.0362   16.7101 C   0  0  0  0  0  0  0  0  0  0  0  0
   -1.2173   -3.9294   26.9717 O   0  0  0  0  0  0  0  0  0  0  0  0
   -1.0025   -5.0942   27.4586 C   0  0  0  0  0  0  0  0  0  0  0  0
    2.2474   -8.9123   16.6273 C   0  0  0  0  0  0  0  0  0  0  0  0
    4.4957   -9.2636   17.3041 C   0  0  0  0  0  0  0  0  0  0  0  0
   -1.8070   -5.6086   28.1920 O   0  0  0  0  0  0  0  0  0  0  0  0
   10.4296   -5.1799   28.3140 C   0  0  0  0  0  0  0  0  0  0  0  0
    6.6017   -5.9004   26.9187 C   0  0  0  0  0  0  0  0  0  0  0  0
    2.4761   -6.9940   26.4111 N   0  0  0  0  0  0  0  0  0  0  0  0
    9.1353   -5.4053   27.8239 C   0  0  0  0  0  0  0  0  0  0  0  0
    0.9922   -9.3232   16.5995 O   0  0  0  0  0  0  0  0  0  0  0  0
    1.5232   -7.6869   27.1182 C   0  0  0  0  0  0  0  0  0  0  0  0
    8.6878   -6.6715   27.7262 N   0  0  0  0  0  0  0  0  0  0  0  0
    6.9911   -8.2423   27.1808 C   0  0  0  0  0  0  0  0  0  0  0  0
    3.8436   -7.2758   16.0578 C   0  0  0  0  0  0  0  0  0  0  0  0
    3.1882   -9.7190   17.2566 C   0  0  0  0  0  0  0  0  0  0  0  0
    5.3488   -6.1737   26.5092 C   0  0  0  0  0  0  0  0  0  0  0  0
    7.4567   -6.9464   27.2858 C   0  0  0  0  0  0  0  0  0  0  0  0
    0.1921   -5.7592   27.1123 C   0  0  0  0  0  0  0  0  0  0  0  0
    3.5517   -7.7407   25.9711 C   0  0  0  0  0  0  0  0  0  0  0  0
  1  4  4  0
  1 22  4  0
  2 20  4  0
  2 27  4  0
  3 12  4  0
  3 23  4  0
  4 25  4  0
  4 28  1  0
  5  8  4  0
  5 17  4  0
  6  7  4  0
  6 16  4  0
  7 18  4  0
  8 27  4  0
  9 13  4  0
  9 23  4  0
 10 11  1  0
 11 14  2  0
 11 27  1  0
 12 19  1  0
 12 24  4  0
 13 24  4  0
 15 18  1  0
 16 25  4  0
 16 26  4  0
 17 20  4  0
 17 28  1  0
 18 21  4  0
 21 26  4  0
 22 26  4  0
M  END
$$$$

 Created by Python create_sdf_string function

 28 30  0  0  0  0  0  0  0  0999 V2000
    5.7174   -8.4529   26.7190 C   0  0  0  0  0  0  0  0  0  0  0  0
    0.3974   -7.0711   27.5149 C   0  0  0  0  0  0  0  0  0  0  0  0
    2.5338   -7.6891   16.0102 C   0  0  0  0  0  0  0  0  0  0  0  0
    4.8690   -7.4380   26.4151 C   0  0  0  0  0  0  0  0  0  0  0  0
    2.3021   -5.6726   26.0378 C   0  0  0  0  0  0  0  0  0  0  0  0
    7.0880   -4.6163   27.0010 C   0  0  0  0  0  0  0  0  0  0  0  0
    8.3117   -4.3698   27.4436 C   0  0  0  0  0  0  0  0  0  0  0  0
    1.1339   -5.0515   26.3541 C   0  0  0  0  0  0  0  0  0  0  0  0
    4.8080   -8.0362   16.7101 C   0  0  0  0  0  0  0  0  0  0  0  0
   -1.2173   -3.9294   26.9717 O   0  0  0  0  0  0  0  0  0  0  0  0
   -1.0025   -5.0942   27.4586 C   0  0  0  0  0  0  0  0  0  0  0  0
    2.2474   -8.9123   16.6273 C   0  0  0  0  0  0  0  0  0  0  0  0
    4.4957   -9.2636   17.3041 C   0  0  0  0  0  0  0  0  0  0  0  0
   -1.8070   -5.6086   28.1920 O   0  0  0  0  0  0  0  0  0  0  0  0
   10.4296   -5.1799   28.3140 C   0  0  0  0  0  0  0  0  0  0  0  0
    6.6017   -5.9004   26.9187 C   0  0  0  0  0  0  0  0  0  0  0  0
    2.4761   -6.9940   26.4111 N   0  0  0  0  0  0  0  0  0  0  0  0
    9.1353   -5.4053   27.8239 C   0  0  0  0  0  0  0  0  0  0  0  0
    0.9922   -9.3232   16.5995 O   0  0  0  0  0  0  0  0  0  0  0  0
    1.5232   -7.6869   27.1182 C   0  0  0  0  0  0  0  0  0  0  0  0
    8.6878   -6.6715   27.7262 N   0  0  0  0  0  0  0  0  0  0  0  0
    6.9911   -8.2423   27.1808 C   0  0  0  0  0  0  0  0  0  0  0  0
    3.8436   -7.2758   16.0578 C   0  0  0  0  0  0  0  0  0  0  0  0
    3.1882   -9.7190   17.2566 C   0  0  0  0  0  0  0  0  0  0  0  0
    5.3488   -6.1737   26.5092 C   0  0  0  0  0  0  0  0  0  0  0  0
    7.4567   -6.9464   27.2858 C   0  0  0  0  0  0  0  0  0  0  0  0
    0.1921   -5.7592   27.1123 C   0  0  0  0  0  0  0  0  0  0  0  0
    3.5517   -7.7407   25.9711 C   0  0  0  0  0  0  0  0  0  0  0  0
  1  4  4  0
  1 22  4  0
  2 20  4  0
  2 27  4  0
  3 12  4  0
  3 23  4  0
  4 25  4  0
  4 28  1  0
  5  8  4  0
  5 17  4  0
  6  7  4  0
  6 16  4  0
  7 18  4  0
  8 27  4  0
  9 13  4  0
  9 23  4  0
 10 11  1  0
 11 14  2  0
 11 27  1  0
 12 19  1  0
 12 24  4  0
 13 24  4  0
 15 18  1  0
 16 25  4  0
 16 26  4  0
 17 20  4  0
 17 28  1  0
 18 21  4  0
 21 26  4  0
 22 26  4  0
M  END
$$$$

 Created by Python create_sdf_string function

 28 30  0  0  0  0  0  0  0  0999 V2000
    5.7174   -8.4529   26.7190 C   0  0  0  0  0  0  0  0  0  0  0  0
    0.3974   -7.0711   27.5149 C   0  0  0  0  0  0  0  0  0  0  0  0
    2.5338   -7.6891   16.0102 C   0  0  0  0  0  0  0  0  0  0  0  0
    4.8690   -7.4380   26.4151 C   0  0  0  0  0  0  0  0  0  0  0  0
    2.3021   -5.6726   26.0378 C   0  0  0  0  0  0  0  0  0  0  0  0
    7.0880   -4.6163   27.0010 C   0  0  0  0  0  0  0  0  0  0  0  0
    8.3117   -4.3698   27.4436 C   0  0  0  0  0  0  0  0  0  0  0  0
    1.1339   -5.0515   26.3541 C   0  0  0  0  0  0  0  0  0  0  0  0
    4.8080   -8.0362   16.7101 C   0  0  0  0  0  0  0  0  0  0  0  0
   -1.2173   -3.9294   26.9717 O   0  0  0  0  0  0  0  0  0  0  0  0
   -1.0025   -5.0942   27.4586 C   0  0  0  0  0  0  0  0  0  0  0  0
    2.2474   -8.9123   16.6273 C   0  0  0  0  0  0  0  0  0  0  0  0
    4.4957   -9.2636   17.3041 C   0  0  0  0  0  0  0  0  0  0  0  0
   -1.8070   -5.6086   28.1920 O   0  0  0  0  0  0  0  0  0  0  0  0
   10.4296   -5.1799   28.3140 C   0  0  0  0  0  0  0  0  0  0  0  0
    6.6017   -5.9004   26.9187 C   0  0  0  0  0  0  0  0  0  0  0  0
    2.4761   -6.9940   26.4111 N   0  0  0  0  0  0  0  0  0  0  0  0
    9.1353   -5.4053   27.8239 C   0  0  0  0  0  0  0  0  0  0  0  0
    0.9922   -9.3232   16.5995 O   0  0  0  0  0  0  0  0  0  0  0  0
    1.5232   -7.6869   27.1182 C   0  0  0  0  0  0  0  0  0  0  0  0
    8.6878   -6.6715   27.7262 N   0  0  0  0  0  0  0  0  0  0  0  0
    6.9911   -8.2423   27.1808 C   0  0  0  0  0  0  0  0  0  0  0  0
    3.8436   -7.2758   16.0578 C   0  0  0  0  0  0  0  0  0  0  0  0
    3.1882   -9.7190   17.2566 C   0  0  0  0  0  0  0  0  0  0  0  0
    5.3488   -6.1737   26.5092 C   0  0  0  0  0  0  0  0  0  0  0  0
    7.4567   -6.9464   27.2858 C   0  0  0  0  0  0  0  0  0  0  0  0
    0.1921   -5.7592   27.1123 C   0  0  0  0  0  0  0  0  0  0  0  0
    3.5517   -7.7407   25.9711 C   0  0  0  0  0  0  0  0  0  0  0  0
  1  4  4  0
  1 22  4  0
  2 20  4  0
  2 27  4  0
  3 12  4  0
  3 23  4  0
  4 25  4  0
  4 28  1  0
  5  8  4  0
  5 17  4  0
  6  7  4  0
  6 16  4  0
  7 18  4  0
  8 27  4  0
  9 13  4  0
  9 23  4  0
 10 11  1  0
 11 14  2  0
 11 27  1  0
 12 19  1  0
 12 24  4  0
 13 24  4  0
 15 18  1  0
 16 25  4  0
 16 26  4  0
 17 20  4  0
 17 28  1  0
 18 21  4  0
 21 26  4  0
 22 26  4  0
M  END
$$$$

 Created by Python create_sdf_string function

 28 30  0  0  0  0  0  0  0  0999 V2000
    5.7174   -8.4529   26.7190 C   0  0  0  0  0  0  0  0  0  0  0  0
    0.3974   -7.0711   27.5149 C   0  0  0  0  0  0  0  0  0  0  0  0
    2.5338   -7.6891   16.0102 C   0  0  0  0  0  0  0  0  0  0  0  0
    4.8690   -7.4380   26.4151 C   0  0  0  0  0  0  0  0  0  0  0  0
    2.3021   -5.6726   26.0378 C   0  0  0  0  0  0  0  0  0  0  0  0
    7.0880   -4.6163   27.0010 C   0  0  0  0  0  0  0  0  0  0  0  0
    8.3117   -4.3698   27.4436 C   0  0  0  0  0  0  0  0  0  0  0  0
    1.1339   -5.0515   26.3541 C   0  0  0  0  0  0  0  0  0  0  0  0
    4.8080   -8.0362   16.7101 C   0  0  0  0  0  0  0  0  0  0  0  0
   -1.2173   -3.9294   26.9717 O   0  0  0  0  0  0  0  0  0  0  0  0
   -1.0025   -5.0942   27.4586 C   0  0  0  0  0  0  0  0  0  0  0  0
    2.2474   -8.9123   16.6273 C   0  0  0  0  0  0  0  0  0  0  0  0
    4.4957   -9.2636   17.3041 C   0  0  0  0  0  0  0  0  0  0  0  0
   -1.8070   -5.6086   28.1920 O   0  0  0  0  0  0  0  0  0  0  0  0
   10.4296   -5.1799   28.3140 C   0  0  0  0  0  0  0  0  0  0  0  0
    6.6017   -5.9004   26.9187 C   0  0  0  0  0  0  0  0  0  0  0  0
    2.4761   -6.9940   26.4111 N   0  0  0  0  0  0  0  0  0  0  0  0
    9.1353   -5.4053   27.8239 C   0  0  0  0  0  0  0  0  0  0  0  0
    0.9922   -9.3232   16.5995 O   0  0  0  0  0  0  0  0  0  0  0  0
    1.5232   -7.6869   27.1182 C   0  0  0  0  0  0  0  0  0  0  0  0
    8.6878   -6.6715   27.7262 N   0  0  0  0  0  0  0  0  0  0  0  0
    6.9911   -8.2423   27.1808 C   0  0  0  0  0  0  0  0  0  0  0  0
    3.8436   -7.2758   16.0578 C   0  0  0  0  0  0  0  0  0  0  0  0
    3.1882   -9.7190   17.2566 C   0  0  0  0  0  0  0  0  0  0  0  0
    5.3488   -6.1737   26.5092 C   0  0  0  0  0  0  0  0  0  0  0  0
    7.4567   -6.9464   27.2858 C   0  0  0  0  0  0  0  0  0  0  0  0
    0.1921   -5.7592   27.1123 C   0  0  0  0  0  0  0  0  0  0  0  0
    3.5517   -7.7407   25.9711 C   0  0  0  0  0  0  0  0  0  0  0  0
  1  4  4  0
  1 22  4  0
  2 20  4  0
  2 27  4  0
  3 12  4  0
  3 23  4  0
  4 25  4  0
  4 28  1  0
  5  8  4  0
  5 17  4  0
  6  7  4  0
  6 16  4  0
  7 18  4  0
  8 27  4  0
  9 13  4  0
  9 23  4  0
 10 11  1  0
 11 14  2  0
 11 27  1  0
 12 19  1  0
 12 24  4  0
 13 24  4  0
 15 18  1  0
 16 25  4  0
 16 26  4  0
 17 20  4  0
 17 28  1  0
 18 21  4  0
 21 26  4  0
 22 26  4  0
M  END
$$$$

 Created by Python create_sdf_string function

 28 30  0  0  0  0  0  0  0  0999 V2000
    5.7174   -8.4529   26.7190 C   0  0  0  0  0  0  0  0  0  0  0  0
    0.3974   -7.0711   27.5149 C   0  0  0  0  0  0  0  0  0  0  0  0
    2.5338   -7.6891   16.0102 C   0  0  0  0  0  0  0  0  0  0  0  0
    4.8690   -7.4380   26.4151 C   0  0  0  0  0  0  0  0  0  0  0  0
    2.3021   -5.6726   26.0378 C   0  0  0  0  0  0  0  0  0  0  0  0
    7.0880   -4.6163   27.0010 C   0  0  0  0  0  0  0  0  0  0  0  0
    8.3117   -4.3698   27.4436 C   0  0  0  0  0  0  0  0  0  0  0  0
    1.1339   -5.0515   26.3541 C   0  0  0  0  0  0  0  0  0  0  0  0
    4.8080   -8.0362   16.7101 C   0  0  0  0  0  0  0  0  0  0  0  0
   -1.2173   -3.9294   26.9717 O   0  0  0  0  0  0  0  0  0  0  0  0
   -1.0025   -5.0942   27.4586 C   0  0  0  0  0  0  0  0  0  0  0  0
    2.2474   -8.9123   16.6273 C   0  0  0  0  0  0  0  0  0  0  0  0
    4.4957   -9.2636   17.3041 C   0  0  0  0  0  0  0  0  0  0  0  0
   -1.8070   -5.6086   28.1920 O   0  0  0  0  0  0  0  0  0  0  0  0
   10.4296   -5.1799   28.3140 C   0  0  0  0  0  0  0  0  0  0  0  0
    6.6017   -5.9004   26.9187 C   0  0  0  0  0  0  0  0  0  0  0  0
    2.4761   -6.9940   26.4111 N   0  0  0  0  0  0  0  0  0  0  0  0
    9.1353   -5.4053   27.8239 C   0  0  0  0  0  0  0  0  0  0  0  0
    0.9922   -9.3232   16.5995 O   0  0  0  0  0  0  0  0  0  0  0  0
    1.5232   -7.6869   27.1182 C   0  0  0  0  0  0  0  0  0  0  0  0
    8.6878   -6.6715   27.7262 N   0  0  0  0  0  0  0  0  0  0  0  0
    6.9911   -8.2423   27.1808 C   0  0  0  0  0  0  0  0  0  0  0  0
    3.8436   -7.2758   16.0578 C   0  0  0  0  0  0  0  0  0  0  0  0
    3.1882   -9.7190   17.2566 C   0  0  0  0  0  0  0  0  0  0  0  0
    5.3488   -6.1737   26.5092 C   0  0  0  0  0  0  0  0  0  0  0  0
    7.4567   -6.9464   27.2858 C   0  0  0  0  0  0  0  0  0  0  0  0
    0.1921   -5.7592   27.1123 C   0  0  0  0  0  0  0  0  0  0  0  0
    3.5517   -7.7407   25.9711 C   0  0  0  0  0  0  0  0  0  0  0  0
  1  4  4  0
  1 22  4  0
  2 20  4  0
  2 27  4  0
  3 12  4  0
  3 23  4  0
  4 25  4  0
  4 28  1  0
  5  8  4  0
  5 17  4  0
  6  7  4  0
  6 16  4  0
  7 18  4  0
  8 27  4  0
  9 13  4  0
  9 23  4  0
 10 11  1  0
 11 14  2  0
 11 27  1  0
 12 19  1  0
 12 24  4  0
 13 24  4  0
 15 18  1  0
 16 25  4  0
 16 26  4  0
 17 20  4  0
 17 28  1  0
 18 21  4  0
 21 26  4  0
 22 26  4  0
M  END
$$$$

 Created by Python create_sdf_string function

 28 30  0  0  0  0  0  0  0  0999 V2000
    5.7174   -8.4529   26.7190 C   0  0  0  0  0  0  0  0  0  0  0  0
    0.3974   -7.0711   27.5149 C   0  0  0  0  0  0  0  0  0  0  0  0
    2.5338   -7.6891   16.0102 C   0  0  0  0  0  0  0  0  0  0  0  0
    4.8690   -7.4380   26.4151 C   0  0  0  0  0  0  0  0  0  0  0  0
    2.3021   -5.6726   26.0378 C   0  0  0  0  0  0  0  0  0  0  0  0
    7.0880   -4.6163   27.0010 C   0  0  0  0  0  0  0  0  0  0  0  0
    8.3117   -4.3698   27.4436 C   0  0  0  0  0  0  0  0  0  0  0  0
    1.1339   -5.0515   26.3541 C   0  0  0  0  0  0  0  0  0  0  0  0
    4.8080   -8.0362   16.7101 C   0  0  0  0  0  0  0  0  0  0  0  0
   -1.2173   -3.9294   26.9717 O   0  0  0  0  0  0  0  0  0  0  0  0
   -1.0025   -5.0942   27.4586 C   0  0  0  0  0  0  0  0  0  0  0  0
    2.2474   -8.9123   16.6273 C   0  0  0  0  0  0  0  0  0  0  0  0
    4.4957   -9.2636   17.3041 C   0  0  0  0  0  0  0  0  0  0  0  0
   -1.8070   -5.6086   28.1920 O   0  0  0  0  0  0  0  0  0  0  0  0
   10.4296   -5.1799   28.3140 C   0  0  0  0  0  0  0  0  0  0  0  0
    6.6017   -5.9004   26.9187 C   0  0  0  0  0  0  0  0  0  0  0  0
    2.4761   -6.9940   26.4111 N   0  0  0  0  0  0  0  0  0  0  0  0
    9.1353   -5.4053   27.8239 C   0  0  0  0  0  0  0  0  0  0  0  0
    0.9922   -9.3232   16.5995 O   0  0  0  0  0  0  0  0  0  0  0  0
    1.5232   -7.6869   27.1182 C   0  0  0  0  0  0  0  0  0  0  0  0
    8.6878   -6.6715   27.7262 N   0  0  0  0  0  0  0  0  0  0  0  0
    6.9911   -8.2423   27.1808 C   0  0  0  0  0  0  0  0  0  0  0  0
    3.8436   -7.2758   16.0578 C   0  0  0  0  0  0  0  0  0  0  0  0
    3.1882   -9.7190   17.2566 C   0  0  0  0  0  0  0  0  0  0  0  0
    5.3488   -6.1737   26.5092 C   0  0  0  0  0  0  0  0  0  0  0  0
    7.4567   -6.9464   27.2858 C   0  0  0  0  0  0  0  0  0  0  0  0
    0.1921   -5.7592   27.1123 C   0  0  0  0  0  0  0  0  0  0  0  0
    3.5517   -7.7407   25.9711 C   0  0  0  0  0  0  0  0  0  0  0  0
  1  4  4  0
  1 22  4  0
  2 20  4  0
  2 27  4  0
  3 12  4  0
  3 23  4  0
  4 25  4  0
  4 28  1  0
  5  8  4  0
  5 17  4  0
  6  7  4  0
  6 16  4  0
  7 18  4  0
  8 27  4  0
  9 13  4  0
  9 23  4  0
 10 11  1  0
 11 14  2  0
 11 27  1  0
 12 19  1  0
 12 24  4  0
 13 24  4  0
 15 18  1  0
 16 25  4  0
 16 26  4  0
 17 20  4  0
 17 28  1  0
 18 21  4  0
 21 26  4  0
 22 26  4  0
M  END
$$$$

 Created by Python create_sdf_string function

 28 30  0  0  0  0  0  0  0  0999 V2000
    5.7174   -8.4529   26.7190 C   0  0  0  0  0  0  0  0  0  0  0  0
    0.3974   -7.0711   27.5149 C   0  0  0  0  0  0  0  0  0  0  0  0
    2.5338   -7.6891   16.0102 C   0  0  0  0  0  0  0  0  0  0  0  0
    4.8690   -7.4380   26.4151 C   0  0  0  0  0  0  0  0  0  0  0  0
    2.3021   -5.6726   26.0378 C   0  0  0  0  0  0  0  0  0  0  0  0
    7.0880   -4.6163   27.0010 C   0  0  0  0  0  0  0  0  0  0  0  0
    8.3117   -4.3698   27.4436 C   0  0  0  0  0  0  0  0  0  0  0  0
    1.1339   -5.0515   26.3541 C   0  0  0  0  0  0  0  0  0  0  0  0
    4.8080   -8.0362   16.7101 C   0  0  0  0  0  0  0  0  0  0  0  0
   -1.2173   -3.9294   26.9717 O   0  0  0  0  0  0  0  0  0  0  0  0
   -1.0025   -5.0942   27.4586 C   0  0  0  0  0  0  0  0  0  0  0  0
    2.2474   -8.9123   16.6273 C   0  0  0  0  0  0  0  0  0  0  0  0
    4.4957   -9.2636   17.3041 C   0  0  0  0  0  0  0  0  0  0  0  0
   -1.8070   -5.6086   28.1920 O   0  0  0  0  0  0  0  0  0  0  0  0
   10.4296   -5.1799   28.3140 C   0  0  0  0  0  0  0  0  0  0  0  0
    6.6017   -5.9004   26.9187 C   0  0  0  0  0  0  0  0  0  0  0  0
    2.4761   -6.9940   26.4111 N   0  0  0  0  0  0  0  0  0  0  0  0
    9.1353   -5.4053   27.8239 C   0  0  0  0  0  0  0  0  0  0  0  0
    0.9922   -9.3232   16.5995 O   0  0  0  0  0  0  0  0  0  0  0  0
    1.5232   -7.6869   27.1182 C   0  0  0  0  0  0  0  0  0  0  0  0
    8.6878   -6.6715   27.7262 N   0  0  0  0  0  0  0  0  0  0  0  0
    6.9911   -8.2423   27.1808 C   0  0  0  0  0  0  0  0  0  0  0  0
    3.8436   -7.2758   16.0578 C   0  0  0  0  0  0  0  0  0  0  0  0
    3.1882   -9.7190   17.2566 C   0  0  0  0  0  0  0  0  0  0  0  0
    5.3488   -6.1737   26.5092 C   0  0  0  0  0  0  0  0  0  0  0  0
    7.4567   -6.9464   27.2858 C   0  0  0  0  0  0  0  0  0  0  0  0
    0.1921   -5.7592   27.1123 C   0  0  0  0  0  0  0  0  0  0  0  0
    3.5517   -7.7407   25.9711 C   0  0  0  0  0  0  0  0  0  0  0  0
  1  4  4  0
  1 22  4  0
  2 20  4  0
  2 27  4  0
  3 12  4  0
  3 23  4  0
  4 25  4  0
  4 28  1  0
  5  8  4  0
  5 17  4  0
  6  7  4  0
  6 16  4  0
  7 18  4  0
  8 27  4  0
  9 13  4  0
  9 23  4  0
 10 11  1  0
 11 14  2  0
 11 27  1  0
 12 19  1  0
 12 24  4  0
 13 24  4  0
 15 18  1  0
 16 25  4  0
 16 26  4  0
 17 20  4  0
 17 28  1  0
 18 21  4  0
 21 26  4  0
 22 26  4  0
M  END
$$$$

 Created by Python create_sdf_string function

 28 30  0  0  0  0  0  0  0  0999 V2000
    5.7174   -8.4529   26.7190 C   0  0  0  0  0  0  0  0  0  0  0  0
    0.3974   -7.0711   27.5149 C   0  0  0  0  0  0  0  0  0  0  0  0
    2.5338   -7.6891   16.0102 C   0  0  0  0  0  0  0  0  0  0  0  0
    4.8690   -7.4380   26.4151 C   0  0  0  0  0  0  0  0  0  0  0  0
    2.3021   -5.6726   26.0378 C   0  0  0  0  0  0  0  0  0  0  0  0
    7.0880   -4.6163   27.0010 C   0  0  0  0  0  0  0  0  0  0  0  0
    8.3117   -4.3698   27.4436 C   0  0  0  0  0  0  0  0  0  0  0  0
    1.1339   -5.0515   26.3541 C   0  0  0  0  0  0  0  0  0  0  0  0
    4.8080   -8.0362   16.7101 C   0  0  0  0  0  0  0  0  0  0  0  0
   -1.2173   -3.9294   26.9717 O   0  0  0  0  0  0  0  0  0  0  0  0
   -1.0025   -5.0942   27.4586 C   0  0  0  0  0  0  0  0  0  0  0  0
    2.2474   -8.9123   16.6273 C   0  0  0  0  0  0  0  0  0  0  0  0
    4.4957   -9.2636   17.3041 C   0  0  0  0  0  0  0  0  0  0  0  0
   -1.8070   -5.6086   28.1920 O   0  0  0  0  0  0  0  0  0  0  0  0
   10.4296   -5.1799   28.3140 C   0  0  0  0  0  0  0  0  0  0  0  0
    6.6017   -5.9004   26.9187 C   0  0  0  0  0  0  0  0  0  0  0  0
    2.4761   -6.9940   26.4111 N   0  0  0  0  0  0  0  0  0  0  0  0
    9.1353   -5.4053   27.8239 C   0  0  0  0  0  0  0  0  0  0  0  0
    0.9922   -9.3232   16.5995 O   0  0  0  0  0  0  0  0  0  0  0  0
    1.5232   -7.6869   27.1182 C   0  0  0  0  0  0  0  0  0  0  0  0
    8.6878   -6.6715   27.7262 N   0  0  0  0  0  0  0  0  0  0  0  0
    6.9911   -8.2423   27.1808 C   0  0  0  0  0  0  0  0  0  0  0  0
    3.8436   -7.2758   16.0578 C   0  0  0  0  0  0  0  0  0  0  0  0
    3.1882   -9.7190   17.2566 C   0  0  0  0  0  0  0  0  0  0  0  0
    5.3488   -6.1737   26.5092 C   0  0  0  0  0  0  0  0  0  0  0  0
    7.4567   -6.9464   27.2858 C   0  0  0  0  0  0  0  0  0  0  0  0
    0.1921   -5.7592   27.1123 C   0  0  0  0  0  0  0  0  0  0  0  0
    3.5517   -7.7407   25.9711 C   0  0  0  0  0  0  0  0  0  0  0  0
  1  4  4  0
  1 22  4  0
  2 20  4  0
  2 27  4  0
  3 12  4  0
  3 23  4  0
  4 25  4  0
  4 28  1  0
  5  8  4  0
  5 17  4  0
  6  7  4  0
  6 16  4  0
  7 18  4  0
  8 27  4  0
  9 13  4  0
  9 23  4  0
 10 11  1  0
 11 14  2  0
 11 27  1  0
 12 19  1  0
 12 24  4  0
 13 24  4  0
 15 18  1  0
 16 25  4  0
 16 26  4  0
 17 20  4  0
 17 28  1  0
 18 21  4  0
 21 26  4  0
 22 26  4  0
M  END
$$$$

 Created by Python create_sdf_string function

 28 30  0  0  0  0  0  0  0  0999 V2000
    5.7174   -8.4529   26.7190 C   0  0  0  0  0  0  0  0  0  0  0  0
    0.3974   -7.0711   27.5149 C   0  0  0  0  0  0  0  0  0  0  0  0
    2.5338   -7.6891   16.0102 C   0  0  0  0  0  0  0  0  0  0  0  0
    4.8690   -7.4380   26.4151 C   0  0  0  0  0  0  0  0  0  0  0  0
    2.3021   -5.6726   26.0378 C   0  0  0  0  0  0  0  0  0  0  0  0
    7.0880   -4.6163   27.0010 C   0  0  0  0  0  0  0  0  0  0  0  0
    8.3117   -4.3698   27.4436 C   0  0  0  0  0  0  0  0  0  0  0  0
    1.1339   -5.0515   26.3541 C   0  0  0  0  0  0  0  0  0  0  0  0
    4.8080   -8.0362   16.7101 C   0  0  0  0  0  0  0  0  0  0  0  0
   -1.2173   -3.9294   26.9717 O   0  0  0  0  0  0  0  0  0  0  0  0
   -1.0025   -5.0942   27.4586 C   0  0  0  0  0  0  0  0  0  0  0  0
    2.2474   -8.9123   16.6273 C   0  0  0  0  0  0  0  0  0  0  0  0
    4.4957   -9.2636   17.3041 C   0  0  0  0  0  0  0  0  0  0  0  0
   -1.8070   -5.6086   28.1920 O   0  0  0  0  0  0  0  0  0  0  0  0
   10.4296   -5.1799   28.3140 C   0  0  0  0  0  0  0  0  0  0  0  0
    6.6017   -5.9004   26.9187 C   0  0  0  0  0  0  0  0  0  0  0  0
    2.4761   -6.9940   26.4111 N   0  0  0  0  0  0  0  0  0  0  0  0
    9.1353   -5.4053   27.8239 C   0  0  0  0  0  0  0  0  0  0  0  0
    0.9922   -9.3232   16.5995 O   0  0  0  0  0  0  0  0  0  0  0  0
    1.5232   -7.6869   27.1182 C   0  0  0  0  0  0  0  0  0  0  0  0
    8.6878   -6.6715   27.7262 N   0  0  0  0  0  0  0  0  0  0  0  0
    6.9911   -8.2423   27.1808 C   0  0  0  0  0  0  0  0  0  0  0  0
    3.8436   -7.2758   16.0578 C   0  0  0  0  0  0  0  0  0  0  0  0
    3.1882   -9.7190   17.2566 C   0  0  0  0  0  0  0  0  0  0  0  0
    5.3488   -6.1737   26.5092 C   0  0  0  0  0  0  0  0  0  0  0  0
    7.4567   -6.9464   27.2858 C   0  0  0  0  0  0  0  0  0  0  0  0
    0.1921   -5.7592   27.1123 C   0  0  0  0  0  0  0  0  0  0  0  0
    3.5517   -7.7407   25.9711 C   0  0  0  0  0  0  0  0  0  0  0  0
  1  4  4  0
  1 22  4  0
  2 20  4  0
  2 27  4  0
  3 12  4  0
  3 23  4  0
  4 25  4  0
  4 28  1  0
  5  8  4  0
  5 17  4  0
  6  7  4  0
  6 16  4  0
  7 18  4  0
  8 27  4  0
  9 13  4  0
  9 23  4  0
 10 11  1  0
 11 14  2  0
 11 27  1  0
 12 19  1  0
 12 24  4  0
 13 24  4  0
 15 18  1  0
 16 25  4  0
 16 26  4  0
 17 20  4  0
 17 28  1  0
 18 21  4  0
 21 26  4  0
 22 26  4  0
M  END
$$$$

 Created by Python create_sdf_string function

 28 30  0  0  0  0  0  0  0  0999 V2000
    5.7174   -8.4529   26.7190 C   0  0  0  0  0  0  0  0  0  0  0  0
    0.3974   -7.0711   27.5149 C   0  0  0  0  0  0  0  0  0  0  0  0
    2.5338   -7.6891   16.0102 C   0  0  0  0  0  0  0  0  0  0  0  0
    4.8690   -7.4380   26.4151 C   0  0  0  0  0  0  0  0  0  0  0  0
    2.3021   -5.6726   26.0378 C   0  0  0  0  0  0  0  0  0  0  0  0
    7.0880   -4.6163   27.0010 C   0  0  0  0  0  0  0  0  0  0  0  0
    8.3117   -4.3698   27.4436 C   0  0  0  0  0  0  0  0  0  0  0  0
    1.1339   -5.0515   26.3541 C   0  0  0  0  0  0  0  0  0  0  0  0
    4.8080   -8.0362   16.7101 C   0  0  0  0  0  0  0  0  0  0  0  0
   -1.2173   -3.9294   26.9717 O   0  0  0  0  0  0  0  0  0  0  0  0
   -1.0025   -5.0942   27.4586 C   0  0  0  0  0  0  0  0  0  0  0  0
    2.2474   -8.9123   16.6273 C   0  0  0  0  0  0  0  0  0  0  0  0
    4.4957   -9.2636   17.3041 C   0  0  0  0  0  0  0  0  0  0  0  0
   -1.8070   -5.6086   28.1920 O   0  0  0  0  0  0  0  0  0  0  0  0
   10.4296   -5.1799   28.3140 C   0  0  0  0  0  0  0  0  0  0  0  0
    6.6017   -5.9004   26.9187 C   0  0  0  0  0  0  0  0  0  0  0  0
    2.4761   -6.9940   26.4111 N   0  0  0  0  0  0  0  0  0  0  0  0
    9.1353   -5.4053   27.8239 C   0  0  0  0  0  0  0  0  0  0  0  0
    0.9922   -9.3232   16.5995 O   0  0  0  0  0  0  0  0  0  0  0  0
    1.5232   -7.6869   27.1182 C   0  0  0  0  0  0  0  0  0  0  0  0
    8.6878   -6.6715   27.7262 N   0  0  0  0  0  0  0  0  0  0  0  0
    6.9911   -8.2423   27.1808 C   0  0  0  0  0  0  0  0  0  0  0  0
    3.8436   -7.2758   16.0578 C   0  0  0  0  0  0  0  0  0  0  0  0
    3.1882   -9.7190   17.2566 C   0  0  0  0  0  0  0  0  0  0  0  0
    5.3488   -6.1737   26.5092 C   0  0  0  0  0  0  0  0  0  0  0  0
    7.4567   -6.9464   27.2858 C   0  0  0  0  0  0  0  0  0  0  0  0
    0.1921   -5.7592   27.1123 C   0  0  0  0  0  0  0  0  0  0  0  0
    3.5517   -7.7407   25.9711 C   0  0  0  0  0  0  0  0  0  0  0  0
  1  4  4  0
  1 22  4  0
  2 20  4  0
  2 27  4  0
  3 12  4  0
  3 23  4  0
  4 25  4  0
  4 28  1  0
  5  8  4  0
  5 17  4  0
  6  7  4  0
  6 16  4  0
  7 18  4  0
  8 27  4  0
  9 13  4  0
  9 23  4  0
 10 11  1  0
 11 14  2  0
 11 27  1  0
 12 19  1  0
 12 24  4  0
 13 24  4  0
 15 18  1  0
 16 25  4  0
 16 26  4  0
 17 20  4  0
 17 28  1  0
 18 21  4  0
 21 26  4  0
 22 26  4  0
M  END
$$$$

 Created by Python create_sdf_string function

 28 30  0  0  0  0  0  0  0  0999 V2000
    5.7174   -8.4529   26.7190 C   0  0  0  0  0  0  0  0  0  0  0  0
    0.3974   -7.0711   27.5149 C   0  0  0  0  0  0  0  0  0  0  0  0
    2.5338   -7.6891   16.0102 C   0  0  0  0  0  0  0  0  0  0  0  0
    4.8690   -7.4380   26.4151 C   0  0  0  0  0  0  0  0  0  0  0  0
    2.3021   -5.6726   26.0378 C   0  0  0  0  0  0  0  0  0  0  0  0
    7.0880   -4.6163   27.0010 C   0  0  0  0  0  0  0  0  0  0  0  0
    8.3117   -4.3698   27.4436 C   0  0  0  0  0  0  0  0  0  0  0  0
    1.1339   -5.0515   26.3541 C   0  0  0  0  0  0  0  0  0  0  0  0
    4.8080   -8.0362   16.7101 C   0  0  0  0  0  0  0  0  0  0  0  0
   -1.2173   -3.9294   26.9717 O   0  0  0  0  0  0  0  0  0  0  0  0
   -1.0025   -5.0942   27.4586 C   0  0  0  0  0  0  0  0  0  0  0  0
    2.2474   -8.9123   16.6273 C   0  0  0  0  0  0  0  0  0  0  0  0
    4.4957   -9.2636   17.3041 C   0  0  0  0  0  0  0  0  0  0  0  0
   -1.8070   -5.6086   28.1920 O   0  0  0  0  0  0  0  0  0  0  0  0
   10.4296   -5.1799   28.3140 C   0  0  0  0  0  0  0  0  0  0  0  0
    6.6017   -5.9004   26.9187 C   0  0  0  0  0  0  0  0  0  0  0  0
    2.4761   -6.9940   26.4111 N   0  0  0  0  0  0  0  0  0  0  0  0
    9.1353   -5.4053   27.8239 C   0  0  0  0  0  0  0  0  0  0  0  0
    0.9922   -9.3232   16.5995 O   0  0  0  0  0  0  0  0  0  0  0  0
    1.5232   -7.6869   27.1182 C   0  0  0  0  0  0  0  0  0  0  0  0
    8.6878   -6.6715   27.7262 N   0  0  0  0  0  0  0  0  0  0  0  0
    6.9911   -8.2423   27.1808 C   0  0  0  0  0  0  0  0  0  0  0  0
    3.8436   -7.2758   16.0578 C   0  0  0  0  0  0  0  0  0  0  0  0
    3.1882   -9.7190   17.2566 C   0  0  0  0  0  0  0  0  0  0  0  0
    5.3488   -6.1737   26.5092 C   0  0  0  0  0  0  0  0  0  0  0  0
    7.4567   -6.9464   27.2858 C   0  0  0  0  0  0  0  0  0  0  0  0
    0.1921   -5.7592   27.1123 C   0  0  0  0  0  0  0  0  0  0  0  0
    3.5517   -7.7407   25.9711 C   0  0  0  0  0  0  0  0  0  0  0  0
  1  4  4  0
  1 22  4  0
  2 20  4  0
  2 27  4  0
  3 12  4  0
  3 23  4  0
  4 25  4  0
  4 28  1  0
  5  8  4  0
  5 17  4  0
  6  7  4  0
  6 16  4  0
  7 18  4  0
  8 27  4  0
  9 13  4  0
  9 23  4  0
 10 11  1  0
 11 14  2  0
 11 27  1  0
 12 19  1  0
 12 24  4  0
 13 24  4  0
 15 18  1  0
 16 25  4  0
 16 26  4  0
 17 20  4  0
 17 28  1  0
 18 21  4  0
 21 26  4  0
 22 26  4  0
M  END
$$$$

 Created by Python create_sdf_string function

 28 30  0  0  0  0  0  0  0  0999 V2000
    5.7174   -8.4529   26.7190 C   0  0  0  0  0  0  0  0  0  0  0  0
    0.3974   -7.0711   27.5149 C   0  0  0  0  0  0  0  0  0  0  0  0
    2.5338   -7.6891   16.0102 C   0  0  0  0  0  0  0  0  0  0  0  0
    4.8690   -7.4380   26.4151 C   0  0  0  0  0  0  0  0  0  0  0  0
    2.3021   -5.6726   26.0378 C   0  0  0  0  0  0  0  0  0  0  0  0
    7.0880   -4.6163   27.0010 C   0  0  0  0  0  0  0  0  0  0  0  0
    8.3117   -4.3698   27.4436 C   0  0  0  0  0  0  0  0  0  0  0  0
    1.1339   -5.0515   26.3541 C   0  0  0  0  0  0  0  0  0  0  0  0
    4.8080   -8.0362   16.7101 C   0  0  0  0  0  0  0  0  0  0  0  0
   -1.2173   -3.9294   26.9717 O   0  0  0  0  0  0  0  0  0  0  0  0
   -1.0025   -5.0942   27.4586 C   0  0  0  0  0  0  0  0  0  0  0  0
    2.2474   -8.9123   16.6273 C   0  0  0  0  0  0  0  0  0  0  0  0
    4.4957   -9.2636   17.3041 C   0  0  0  0  0  0  0  0  0  0  0  0
   -1.8070   -5.6086   28.1920 O   0  0  0  0  0  0  0  0  0  0  0  0
   10.4296   -5.1799   28.3140 C   0  0  0  0  0  0  0  0  0  0  0  0
    6.6017   -5.9004   26.9187 C   0  0  0  0  0  0  0  0  0  0  0  0
    2.4761   -6.9940   26.4111 N   0  0  0  0  0  0  0  0  0  0  0  0
    9.1353   -5.4053   27.8239 C   0  0  0  0  0  0  0  0  0  0  0  0
    0.9922   -9.3232   16.5995 O   0  0  0  0  0  0  0  0  0  0  0  0
    1.5232   -7.6869   27.1182 C   0  0  0  0  0  0  0  0  0  0  0  0
    8.6878   -6.6715   27.7262 N   0  0  0  0  0  0  0  0  0  0  0  0
    6.9911   -8.2423   27.1808 C   0  0  0  0  0  0  0  0  0  0  0  0
    3.8436   -7.2758   16.0578 C   0  0  0  0  0  0  0  0  0  0  0  0
    3.1882   -9.7190   17.2566 C   0  0  0  0  0  0  0  0  0  0  0  0
    5.3488   -6.1737   26.5092 C   0  0  0  0  0  0  0  0  0  0  0  0
    7.4567   -6.9464   27.2858 C   0  0  0  0  0  0  0  0  0  0  0  0
    0.1921   -5.7592   27.1123 C   0  0  0  0  0  0  0  0  0  0  0  0
    3.5517   -7.7407   25.9711 C   0  0  0  0  0  0  0  0  0  0  0  0
  1  4  4  0
  1 22  4  0
  2 20  4  0
  2 27  4  0
  3 12  4  0
  3 23  4  0
  4 25  4  0
  4 28  1  0
  5  8  4  0
  5 17  4  0
  6  7  4  0
  6 16  4  0
  7 18  4  0
  8 27  4  0
  9 13  4  0
  9 23  4  0
 10 11  1  0
 11 14  2  0
 11 27  1  0
 12 19  1  0
 12 24  4  0
 13 24  4  0
 15 18  1  0
 16 25  4  0
 16 26  4  0
 17 20  4  0
 17 28  1  0
 18 21  4  0
 21 26  4  0
 22 26  4  0
M  END
$$$$

 Created by Python create_sdf_string function

 28 30  0  0  0  0  0  0  0  0999 V2000
    5.7174   -8.4529   26.7190 C   0  0  0  0  0  0  0  0  0  0  0  0
    0.3974   -7.0711   27.5149 C   0  0  0  0  0  0  0  0  0  0  0  0
    2.5338   -7.6891   16.0102 C   0  0  0  0  0  0  0  0  0  0  0  0
    4.8690   -7.4380   26.4151 C   0  0  0  0  0  0  0  0  0  0  0  0
    2.3021   -5.6726   26.0378 C   0  0  0  0  0  0  0  0  0  0  0  0
    7.0880   -4.6163   27.0010 C   0  0  0  0  0  0  0  0  0  0  0  0
    8.3117   -4.3698   27.4436 C   0  0  0  0  0  0  0  0  0  0  0  0
    1.1339   -5.0515   26.3541 C   0  0  0  0  0  0  0  0  0  0  0  0
    4.8080   -8.0362   16.7101 C   0  0  0  0  0  0  0  0  0  0  0  0
   -1.2173   -3.9294   26.9717 O   0  0  0  0  0  0  0  0  0  0  0  0
   -1.0025   -5.0942   27.4586 C   0  0  0  0  0  0  0  0  0  0  0  0
    2.2474   -8.9123   16.6273 C   0  0  0  0  0  0  0  0  0  0  0  0
    4.4957   -9.2636   17.3041 C   0  0  0  0  0  0  0  0  0  0  0  0
   -1.8070   -5.6086   28.1920 O   0  0  0  0  0  0  0  0  0  0  0  0
   10.4296   -5.1799   28.3140 C   0  0  0  0  0  0  0  0  0  0  0  0
    6.6017   -5.9004   26.9187 C   0  0  0  0  0  0  0  0  0  0  0  0
    2.4761   -6.9940   26.4111 N   0  0  0  0  0  0  0  0  0  0  0  0
    9.1353   -5.4053   27.8239 C   0  0  0  0  0  0  0  0  0  0  0  0
    0.9922   -9.3232   16.5995 O   0  0  0  0  0  0  0  0  0  0  0  0
    1.5232   -7.6869   27.1182 C   0  0  0  0  0  0  0  0  0  0  0  0
    8.6878   -6.6715   27.7262 N   0  0  0  0  0  0  0  0  0  0  0  0
    6.9911   -8.2423   27.1808 C   0  0  0  0  0  0  0  0  0  0  0  0
    3.8436   -7.2758   16.0578 C   0  0  0  0  0  0  0  0  0  0  0  0
    3.1882   -9.7190   17.2566 C   0  0  0  0  0  0  0  0  0  0  0  0
    5.3488   -6.1737   26.5092 C   0  0  0  0  0  0  0  0  0  0  0  0
    7.4567   -6.9464   27.2858 C   0  0  0  0  0  0  0  0  0  0  0  0
    0.1921   -5.7592   27.1123 C   0  0  0  0  0  0  0  0  0  0  0  0
    3.5517   -7.7407   25.9711 C   0  0  0  0  0  0  0  0  0  0  0  0
  1  4  4  0
  1 22  4  0
  2 20  4  0
  2 27  4  0
  3 12  4  0
  3 23  4  0
  4 25  4  0
  4 28  1  0
  5  8  4  0
  5 17  4  0
  6  7  4  0
  6 16  4  0
  7 18  4  0
  8 27  4  0
  9 13  4  0
  9 23  4  0
 10 11  1  0
 11 14  2  0
 11 27  1  0
 12 19  1  0
 12 24  4  0
 13 24  4  0
 15 18  1  0
 16 25  4  0
 16 26  4  0
 17 20  4  0
 17 28  1  0
 18 21  4  0
 21 26  4  0
 22 26  4  0
M  END
$$$$

 Created by Python create_sdf_string function

 28 30  0  0  0  0  0  0  0  0999 V2000
    5.7174   -8.4529   26.7190 C   0  0  0  0  0  0  0  0  0  0  0  0
    0.3974   -7.0711   27.5149 C   0  0  0  0  0  0  0  0  0  0  0  0
    2.5338   -7.6891   16.0102 C   0  0  0  0  0  0  0  0  0  0  0  0
    4.8690   -7.4380   26.4151 C   0  0  0  0  0  0  0  0  0  0  0  0
    2.3021   -5.6726   26.0378 C   0  0  0  0  0  0  0  0  0  0  0  0
    7.0880   -4.6163   27.0010 C   0  0  0  0  0  0  0  0  0  0  0  0
    8.3117   -4.3698   27.4436 C   0  0  0  0  0  0  0  0  0  0  0  0
    1.1339   -5.0515   26.3541 C   0  0  0  0  0  0  0  0  0  0  0  0
    4.8080   -8.0362   16.7101 C   0  0  0  0  0  0  0  0  0  0  0  0
   -1.2173   -3.9294   26.9717 O   0  0  0  0  0  0  0  0  0  0  0  0
   -1.0025   -5.0942   27.4586 C   0  0  0  0  0  0  0  0  0  0  0  0
    2.2474   -8.9123   16.6273 C   0  0  0  0  0  0  0  0  0  0  0  0
    4.4957   -9.2636   17.3041 C   0  0  0  0  0  0  0  0  0  0  0  0
   -1.8070   -5.6086   28.1920 O   0  0  0  0  0  0  0  0  0  0  0  0
   10.4296   -5.1799   28.3140 C   0  0  0  0  0  0  0  0  0  0  0  0
    6.6017   -5.9004   26.9187 C   0  0  0  0  0  0  0  0  0  0  0  0
    2.4761   -6.9940   26.4111 N   0  0  0  0  0  0  0  0  0  0  0  0
    9.1353   -5.4053   27.8239 C   0  0  0  0  0  0  0  0  0  0  0  0
    0.9922   -9.3232   16.5995 O   0  0  0  0  0  0  0  0  0  0  0  0
    1.5232   -7.6869   27.1182 C   0  0  0  0  0  0  0  0  0  0  0  0
    8.6878   -6.6715   27.7262 N   0  0  0  0  0  0  0  0  0  0  0  0
    6.9911   -8.2423   27.1808 C   0  0  0  0  0  0  0  0  0  0  0  0
    3.8436   -7.2758   16.0578 C   0  0  0  0  0  0  0  0  0  0  0  0
    3.1882   -9.7190   17.2566 C   0  0  0  0  0  0  0  0  0  0  0  0
    5.3488   -6.1737   26.5092 C   0  0  0  0  0  0  0  0  0  0  0  0
    7.4567   -6.9464   27.2858 C   0  0  0  0  0  0  0  0  0  0  0  0
    0.1921   -5.7592   27.1123 C   0  0  0  0  0  0  0  0  0  0  0  0
    3.5517   -7.7407   25.9711 C   0  0  0  0  0  0  0  0  0  0  0  0
  1  4  4  0
  1 22  4  0
  2 20  4  0
  2 27  4  0
  3 12  4  0
  3 23  4  0
  4 25  4  0
  4 28  1  0
  5  8  4  0
  5 17  4  0
  6  7  4  0
  6 16  4  0
  7 18  4  0
  8 27  4  0
  9 13  4  0
  9 23  4  0
 10 11  1  0
 11 14  2  0
 11 27  1  0
 12 19  1  0
 12 24  4  0
 13 24  4  0
 15 18  1  0
 16 25  4  0
 16 26  4  0
 17 20  4  0
 17 28  1  0
 18 21  4  0
 21 26  4  0
 22 26  4  0
M  END
$$$$

 Created by Python create_sdf_string function

 28 30  0  0  0  0  0  0  0  0999 V2000
    5.7174   -8.4529   26.7190 C   0  0  0  0  0  0  0  0  0  0  0  0
    0.3974   -7.0711   27.5149 C   0  0  0  0  0  0  0  0  0  0  0  0
    2.5338   -7.6891   16.0102 C   0  0  0  0  0  0  0  0  0  0  0  0
    4.8690   -7.4380   26.4151 C   0  0  0  0  0  0  0  0  0  0  0  0
    2.3021   -5.6726   26.0378 C   0  0  0  0  0  0  0  0  0  0  0  0
    7.0880   -4.6163   27.0010 C   0  0  0  0  0  0  0  0  0  0  0  0
    8.3117   -4.3698   27.4436 C   0  0  0  0  0  0  0  0  0  0  0  0
    1.1339   -5.0515   26.3541 C   0  0  0  0  0  0  0  0  0  0  0  0
    4.8080   -8.0362   16.7101 C   0  0  0  0  0  0  0  0  0  0  0  0
   -1.2173   -3.9294   26.9717 O   0  0  0  0  0  0  0  0  0  0  0  0
   -1.0025   -5.0942   27.4586 C   0  0  0  0  0  0  0  0  0  0  0  0
    2.2474   -8.9123   16.6273 C   0  0  0  0  0  0  0  0  0  0  0  0
    4.4957   -9.2636   17.3041 C   0  0  0  0  0  0  0  0  0  0  0  0
   -1.8070   -5.6086   28.1920 O   0  0  0  0  0  0  0  0  0  0  0  0
   10.4296   -5.1799   28.3140 C   0  0  0  0  0  0  0  0  0  0  0  0
    6.6017   -5.9004   26.9187 C   0  0  0  0  0  0  0  0  0  0  0  0
    2.4761   -6.9940   26.4111 N   0  0  0  0  0  0  0  0  0  0  0  0
    9.1353   -5.4053   27.8239 C   0  0  0  0  0  0  0  0  0  0  0  0
    0.9922   -9.3232   16.5995 O   0  0  0  0  0  0  0  0  0  0  0  0
    1.5232   -7.6869   27.1182 C   0  0  0  0  0  0  0  0  0  0  0  0
    8.6878   -6.6715   27.7262 N   0  0  0  0  0  0  0  0  0  0  0  0
    6.9911   -8.2423   27.1808 C   0  0  0  0  0  0  0  0  0  0  0  0
    3.8436   -7.2758   16.0578 C   0  0  0  0  0  0  0  0  0  0  0  0
    3.1882   -9.7190   17.2566 C   0  0  0  0  0  0  0  0  0  0  0  0
    5.3488   -6.1737   26.5092 C   0  0  0  0  0  0  0  0  0  0  0  0
    7.4567   -6.9464   27.2858 C   0  0  0  0  0  0  0  0  0  0  0  0
    0.1921   -5.7592   27.1123 C   0  0  0  0  0  0  0  0  0  0  0  0
    3.5517   -7.7407   25.9711 C   0  0  0  0  0  0  0  0  0  0  0  0
  1  4  4  0
  1 22  4  0
  2 20  4  0
  2 27  4  0
  3 12  4  0
  3 23  4  0
  4 25  4  0
  4 28  1  0
  5  8  4  0
  5 17  4  0
  6  7  4  0
  6 16  4  0
  7 18  4  0
  8 27  4  0
  9 13  4  0
  9 23  4  0
 10 11  1  0
 11 14  2  0
 11 27  1  0
 12 19  1  0
 12 24  4  0
 13 24  4  0
 15 18  1  0
 16 25  4  0
 16 26  4  0
 17 20  4  0
 17 28  1  0
 18 21  4  0
 21 26  4  0
 22 26  4  0
M  END
$$$$

 Created by Python create_sdf_string function

 28 30  0  0  0  0  0  0  0  0999 V2000
    5.7174   -8.4529   26.7190 C   0  0  0  0  0  0  0  0  0  0  0  0
    0.3974   -7.0711   27.5149 C   0  0  0  0  0  0  0  0  0  0  0  0
    2.5338   -7.6891   16.0102 C   0  0  0  0  0  0  0  0  0  0  0  0
    4.8690   -7.4380   26.4151 C   0  0  0  0  0  0  0  0  0  0  0  0
    2.3021   -5.6726   26.0378 C   0  0  0  0  0  0  0  0  0  0  0  0
    7.0880   -4.6163   27.0010 C   0  0  0  0  0  0  0  0  0  0  0  0
    8.3117   -4.3698   27.4436 C   0  0  0  0  0  0  0  0  0  0  0  0
    1.1339   -5.0515   26.3541 C   0  0  0  0  0  0  0  0  0  0  0  0
    4.8080   -8.0362   16.7101 C   0  0  0  0  0  0  0  0  0  0  0  0
   -1.2173   -3.9294   26.9717 O   0  0  0  0  0  0  0  0  0  0  0  0
   -1.0025   -5.0942   27.4586 C   0  0  0  0  0  0  0  0  0  0  0  0
    2.2474   -8.9123   16.6273 C   0  0  0  0  0  0  0  0  0  0  0  0
    4.4957   -9.2636   17.3041 C   0  0  0  0  0  0  0  0  0  0  0  0
   -1.8070   -5.6086   28.1920 O   0  0  0  0  0  0  0  0  0  0  0  0
   10.4296   -5.1799   28.3140 C   0  0  0  0  0  0  0  0  0  0  0  0
    6.6017   -5.9004   26.9187 C   0  0  0  0  0  0  0  0  0  0  0  0
    2.4761   -6.9940   26.4111 N   0  0  0  0  0  0  0  0  0  0  0  0
    9.1353   -5.4053   27.8239 C   0  0  0  0  0  0  0  0  0  0  0  0
    0.9922   -9.3232   16.5995 O   0  0  0  0  0  0  0  0  0  0  0  0
    1.5232   -7.6869   27.1182 C   0  0  0  0  0  0  0  0  0  0  0  0
    8.6878   -6.6715   27.7262 N   0  0  0  0  0  0  0  0  0  0  0  0
    6.9911   -8.2423   27.1808 C   0  0  0  0  0  0  0  0  0  0  0  0
    3.8436   -7.2758   16.0578 C   0  0  0  0  0  0  0  0  0  0  0  0
    3.1882   -9.7190   17.2566 C   0  0  0  0  0  0  0  0  0  0  0  0
    5.3488   -6.1737   26.5092 C   0  0  0  0  0  0  0  0  0  0  0  0
    7.4567   -6.9464   27.2858 C   0  0  0  0  0  0  0  0  0  0  0  0
    0.1921   -5.7592   27.1123 C   0  0  0  0  0  0  0  0  0  0  0  0
    3.5517   -7.7407   25.9711 C   0  0  0  0  0  0  0  0  0  0  0  0
  1  4  4  0
  1 22  4  0
  2 20  4  0
  2 27  4  0
  3 12  4  0
  3 23  4  0
  4 25  4  0
  4 28  1  0
  5  8  4  0
  5 17  4  0
  6  7  4  0
  6 16  4  0
  7 18  4  0
  8 27  4  0
  9 13  4  0
  9 23  4  0
 10 11  1  0
 11 14  2  0
 11 27  1  0
 12 19  1  0
 12 24  4  0
 13 24  4  0
 15 18  1  0
 16 25  4  0
 16 26  4  0
 17 20  4  0
 17 28  1  0
 18 21  4  0
 21 26  4  0
 22 26  4  0
M  END
$$$$

 Created by Python create_sdf_string function

 28 30  0  0  0  0  0  0  0  0999 V2000
    5.7174   -8.4529   26.7190 C   0  0  0  0  0  0  0  0  0  0  0  0
    0.3974   -7.0711   27.5149 C   0  0  0  0  0  0  0  0  0  0  0  0
    2.5338   -7.6891   16.0102 C   0  0  0  0  0  0  0  0  0  0  0  0
    4.8690   -7.4380   26.4151 C   0  0  0  0  0  0  0  0  0  0  0  0
    2.3021   -5.6726   26.0378 C   0  0  0  0  0  0  0  0  0  0  0  0
    7.0880   -4.6163   27.0010 C   0  0  0  0  0  0  0  0  0  0  0  0
    8.3117   -4.3698   27.4436 C   0  0  0  0  0  0  0  0  0  0  0  0
    1.1339   -5.0515   26.3541 C   0  0  0  0  0  0  0  0  0  0  0  0
    4.8080   -8.0362   16.7101 C   0  0  0  0  0  0  0  0  0  0  0  0
   -1.2173   -3.9294   26.9717 O   0  0  0  0  0  0  0  0  0  0  0  0
   -1.0025   -5.0942   27.4586 C   0  0  0  0  0  0  0  0  0  0  0  0
    2.2474   -8.9123   16.6273 C   0  0  0  0  0  0  0  0  0  0  0  0
    4.4957   -9.2636   17.3041 C   0  0  0  0  0  0  0  0  0  0  0  0
   -1.8070   -5.6086   28.1920 O   0  0  0  0  0  0  0  0  0  0  0  0
   10.4296   -5.1799   28.3140 C   0  0  0  0  0  0  0  0  0  0  0  0
    6.6017   -5.9004   26.9187 C   0  0  0  0  0  0  0  0  0  0  0  0
    2.4761   -6.9940   26.4111 N   0  0  0  0  0  0  0  0  0  0  0  0
    9.1353   -5.4053   27.8239 C   0  0  0  0  0  0  0  0  0  0  0  0
    0.9922   -9.3232   16.5995 O   0  0  0  0  0  0  0  0  0  0  0  0
    1.5232   -7.6869   27.1182 C   0  0  0  0  0  0  0  0  0  0  0  0
    8.6878   -6.6715   27.7262 N   0  0  0  0  0  0  0  0  0  0  0  0
    6.9911   -8.2423   27.1808 C   0  0  0  0  0  0  0  0  0  0  0  0
    3.8436   -7.2758   16.0578 C   0  0  0  0  0  0  0  0  0  0  0  0
    3.1882   -9.7190   17.2566 C   0  0  0  0  0  0  0  0  0  0  0  0
    5.3488   -6.1737   26.5092 C   0  0  0  0  0  0  0  0  0  0  0  0
    7.4567   -6.9464   27.2858 C   0  0  0  0  0  0  0  0  0  0  0  0
    0.1921   -5.7592   27.1123 C   0  0  0  0  0  0  0  0  0  0  0  0
    3.5517   -7.7407   25.9711 C   0  0  0  0  0  0  0  0  0  0  0  0
  1  4  4  0
  1 22  4  0
  2 20  4  0
  2 27  4  0
  3 12  4  0
  3 23  4  0
  4 25  4  0
  4 28  1  0
  5  8  4  0
  5 17  4  0
  6  7  4  0
  6 16  4  0
  7 18  4  0
  8 27  4  0
  9 13  4  0
  9 23  4  0
 10 11  1  0
 11 14  2  0
 11 27  1  0
 12 19  1  0
 12 24  4  0
 13 24  4  0
 15 18  1  0
 16 25  4  0
 16 26  4  0
 17 20  4  0
 17 28  1  0
 18 21  4  0
 21 26  4  0
 22 26  4  0
M  END
$$$$

 Created by Python create_sdf_string function

 28 30  0  0  0  0  0  0  0  0999 V2000
    5.7174   -8.4529   26.7190 C   0  0  0  0  0  0  0  0  0  0  0  0
    0.3974   -7.0711   27.5149 C   0  0  0  0  0  0  0  0  0  0  0  0
    2.5338   -7.6891   16.0102 C   0  0  0  0  0  0  0  0  0  0  0  0
    4.8690   -7.4380   26.4151 C   0  0  0  0  0  0  0  0  0  0  0  0
    2.3021   -5.6726   26.0378 C   0  0  0  0  0  0  0  0  0  0  0  0
    7.0880   -4.6163   27.0010 C   0  0  0  0  0  0  0  0  0  0  0  0
    8.3117   -4.3698   27.4436 C   0  0  0  0  0  0  0  0  0  0  0  0
    1.1339   -5.0515   26.3541 C   0  0  0  0  0  0  0  0  0  0  0  0
    4.8080   -8.0362   16.7101 C   0  0  0  0  0  0  0  0  0  0  0  0
   -1.2173   -3.9294   26.9717 O   0  0  0  0  0  0  0  0  0  0  0  0
   -1.0025   -5.0942   27.4586 C   0  0  0  0  0  0  0  0  0  0  0  0
    2.2474   -8.9123   16.6273 C   0  0  0  0  0  0  0  0  0  0  0  0
    4.4957   -9.2636   17.3041 C   0  0  0  0  0  0  0  0  0  0  0  0
   -1.8070   -5.6086   28.1920 O   0  0  0  0  0  0  0  0  0  0  0  0
   10.4296   -5.1799   28.3140 C   0  0  0  0  0  0  0  0  0  0  0  0
    6.6017   -5.9004   26.9187 C   0  0  0  0  0  0  0  0  0  0  0  0
    2.4761   -6.9940   26.4111 N   0  0  0  0  0  0  0  0  0  0  0  0
    9.1353   -5.4053   27.8239 C   0  0  0  0  0  0  0  0  0  0  0  0
    0.9922   -9.3232   16.5995 O   0  0  0  0  0  0  0  0  0  0  0  0
    1.5232   -7.6869   27.1182 C   0  0  0  0  0  0  0  0  0  0  0  0
    8.6878   -6.6715   27.7262 N   0  0  0  0  0  0  0  0  0  0  0  0
    6.9911   -8.2423   27.1808 C   0  0  0  0  0  0  0  0  0  0  0  0
    3.8436   -7.2758   16.0578 C   0  0  0  0  0  0  0  0  0  0  0  0
    3.1882   -9.7190   17.2566 C   0  0  0  0  0  0  0  0  0  0  0  0
    5.3488   -6.1737   26.5092 C   0  0  0  0  0  0  0  0  0  0  0  0
    7.4567   -6.9464   27.2858 C   0  0  0  0  0  0  0  0  0  0  0  0
    0.1921   -5.7592   27.1123 C   0  0  0  0  0  0  0  0  0  0  0  0
    3.5517   -7.7407   25.9711 C   0  0  0  0  0  0  0  0  0  0  0  0
  1  4  4  0
  1 22  4  0
  2 20  4  0
  2 27  4  0
  3 12  4  0
  3 23  4  0
  4 25  4  0
  4 28  1  0
  5  8  4  0
  5 17  4  0
  6  7  4  0
  6 16  4  0
  7 18  4  0
  8 27  4  0
  9 13  4  0
  9 23  4  0
 10 11  1  0
 11 14  2  0
 11 27  1  0
 12 19  1  0
 12 24  4  0
 13 24  4  0
 15 18  1  0
 16 25  4  0
 16 26  4  0
 17 20  4  0
 17 28  1  0
 18 21  4  0
 21 26  4  0
 22 26  4  0
M  END
$$$$

 Created by Python create_sdf_string function

 28 30  0  0  0  0  0  0  0  0999 V2000
    5.7174   -8.4529   26.7190 C   0  0  0  0  0  0  0  0  0  0  0  0
    0.3974   -7.0711   27.5149 C   0  0  0  0  0  0  0  0  0  0  0  0
    2.5338   -7.6891   16.0102 C   0  0  0  0  0  0  0  0  0  0  0  0
    4.8690   -7.4380   26.4151 C   0  0  0  0  0  0  0  0  0  0  0  0
    2.3021   -5.6726   26.0378 C   0  0  0  0  0  0  0  0  0  0  0  0
    7.0880   -4.6163   27.0010 C   0  0  0  0  0  0  0  0  0  0  0  0
    8.3117   -4.3698   27.4436 C   0  0  0  0  0  0  0  0  0  0  0  0
    1.1339   -5.0515   26.3541 C   0  0  0  0  0  0  0  0  0  0  0  0
    4.8080   -8.0362   16.7101 C   0  0  0  0  0  0  0  0  0  0  0  0
   -1.2173   -3.9294   26.9717 O   0  0  0  0  0  0  0  0  0  0  0  0
   -1.0025   -5.0942   27.4586 C   0  0  0  0  0  0  0  0  0  0  0  0
    2.2474   -8.9123   16.6273 C   0  0  0  0  0  0  0  0  0  0  0  0
    4.4957   -9.2636   17.3041 C   0  0  0  0  0  0  0  0  0  0  0  0
   -1.8070   -5.6086   28.1920 O   0  0  0  0  0  0  0  0  0  0  0  0
   10.4296   -5.1799   28.3140 C   0  0  0  0  0  0  0  0  0  0  0  0
    6.6017   -5.9004   26.9187 C   0  0  0  0  0  0  0  0  0  0  0  0
    2.4761   -6.9940   26.4111 N   0  0  0  0  0  0  0  0  0  0  0  0
    9.1353   -5.4053   27.8239 C   0  0  0  0  0  0  0  0  0  0  0  0
    0.9922   -9.3232   16.5995 O   0  0  0  0  0  0  0  0  0  0  0  0
    1.5232   -7.6869   27.1182 C   0  0  0  0  0  0  0  0  0  0  0  0
    8.6878   -6.6715   27.7262 N   0  0  0  0  0  0  0  0  0  0  0  0
    6.9911   -8.2423   27.1808 C   0  0  0  0  0  0  0  0  0  0  0  0
    3.8436   -7.2758   16.0578 C   0  0  0  0  0  0  0  0  0  0  0  0
    3.1882   -9.7190   17.2566 C   0  0  0  0  0  0  0  0  0  0  0  0
    5.3488   -6.1737   26.5092 C   0  0  0  0  0  0  0  0  0  0  0  0
    7.4567   -6.9464   27.2858 C   0  0  0  0  0  0  0  0  0  0  0  0
    0.1921   -5.7592   27.1123 C   0  0  0  0  0  0  0  0  0  0  0  0
    3.5517   -7.7407   25.9711 C   0  0  0  0  0  0  0  0  0  0  0  0
  1  4  4  0
  1 22  4  0
  2 20  4  0
  2 27  4  0
  3 12  4  0
  3 23  4  0
  4 25  4  0
  4 28  1  0
  5  8  4  0
  5 17  4  0
  6  7  4  0
  6 16  4  0
  7 18  4  0
  8 27  4  0
  9 13  4  0
  9 23  4  0
 10 11  1  0
 11 14  2  0
 11 27  1  0
 12 19  1  0
 12 24  4  0
 13 24  4  0
 15 18  1  0
 16 25  4  0
 16 26  4  0
 17 20  4  0
 17 28  1  0
 18 21  4  0
 21 26  4  0
 22 26  4  0
M  END
$$$$

 Created by Python create_sdf_string function

 28 30  0  0  0  0  0  0  0  0999 V2000
    5.7174   -8.4529   26.7190 C   0  0  0  0  0  0  0  0  0  0  0  0
    0.3974   -7.0711   27.5149 C   0  0  0  0  0  0  0  0  0  0  0  0
    2.5338   -7.6891   16.0102 C   0  0  0  0  0  0  0  0  0  0  0  0
    4.8690   -7.4380   26.4151 C   0  0  0  0  0  0  0  0  0  0  0  0
    2.3021   -5.6726   26.0378 C   0  0  0  0  0  0  0  0  0  0  0  0
    7.0880   -4.6163   27.0010 C   0  0  0  0  0  0  0  0  0  0  0  0
    8.3117   -4.3698   27.4436 C   0  0  0  0  0  0  0  0  0  0  0  0
    1.1339   -5.0515   26.3541 C   0  0  0  0  0  0  0  0  0  0  0  0
    4.8080   -8.0362   16.7101 C   0  0  0  0  0  0  0  0  0  0  0  0
   -1.2173   -3.9294   26.9717 O   0  0  0  0  0  0  0  0  0  0  0  0
   -1.0025   -5.0942   27.4586 C   0  0  0  0  0  0  0  0  0  0  0  0
    2.2474   -8.9123   16.6273 C   0  0  0  0  0  0  0  0  0  0  0  0
    4.4957   -9.2636   17.3041 C   0  0  0  0  0  0  0  0  0  0  0  0
   -1.8070   -5.6086   28.1920 O   0  0  0  0  0  0  0  0  0  0  0  0
   10.4296   -5.1799   28.3140 C   0  0  0  0  0  0  0  0  0  0  0  0
    6.6017   -5.9004   26.9187 C   0  0  0  0  0  0  0  0  0  0  0  0
    2.4761   -6.9940   26.4111 N   0  0  0  0  0  0  0  0  0  0  0  0
    9.1353   -5.4053   27.8239 C   0  0  0  0  0  0  0  0  0  0  0  0
    0.9922   -9.3232   16.5995 O   0  0  0  0  0  0  0  0  0  0  0  0
    1.5232   -7.6869   27.1182 C   0  0  0  0  0  0  0  0  0  0  0  0
    8.6878   -6.6715   27.7262 N   0  0  0  0  0  0  0  0  0  0  0  0
    6.9911   -8.2423   27.1808 C   0  0  0  0  0  0  0  0  0  0  0  0
    3.8436   -7.2758   16.0578 C   0  0  0  0  0  0  0  0  0  0  0  0
    3.1882   -9.7190   17.2566 C   0  0  0  0  0  0  0  0  0  0  0  0
    5.3488   -6.1737   26.5092 C   0  0  0  0  0  0  0  0  0  0  0  0
    7.4567   -6.9464   27.2858 C   0  0  0  0  0  0  0  0  0  0  0  0
    0.1921   -5.7592   27.1123 C   0  0  0  0  0  0  0  0  0  0  0  0
    3.5517   -7.7407   25.9711 C   0  0  0  0  0  0  0  0  0  0  0  0
  1  4  4  0
  1 22  4  0
  2 20  4  0
  2 27  4  0
  3 12  4  0
  3 23  4  0
  4 25  4  0
  4 28  1  0
  5  8  4  0
  5 17  4  0
  6  7  4  0
  6 16  4  0
  7 18  4  0
  8 27  4  0
  9 13  4  0
  9 23  4  0
 10 11  1  0
 11 14  2  0
 11 27  1  0
 12 19  1  0
 12 24  4  0
 13 24  4  0
 15 18  1  0
 16 25  4  0
 16 26  4  0
 17 20  4  0
 17 28  1  0
 18 21  4  0
 21 26  4  0
 22 26  4  0
M  END
$$$$

 Created by Python create_sdf_string function

 28 30  0  0  0  0  0  0  0  0999 V2000
    5.7174   -8.4529   26.7190 C   0  0  0  0  0  0  0  0  0  0  0  0
    0.3974   -7.0711   27.5149 C   0  0  0  0  0  0  0  0  0  0  0  0
    2.5338   -7.6891   16.0102 C   0  0  0  0  0  0  0  0  0  0  0  0
    4.8690   -7.4380   26.4151 C   0  0  0  0  0  0  0  0  0  0  0  0
    2.3021   -5.6726   26.0378 C   0  0  0  0  0  0  0  0  0  0  0  0
    7.0880   -4.6163   27.0010 C   0  0  0  0  0  0  0  0  0  0  0  0
    8.3117   -4.3698   27.4436 C   0  0  0  0  0  0  0  0  0  0  0  0
    1.1339   -5.0515   26.3541 C   0  0  0  0  0  0  0  0  0  0  0  0
    4.8080   -8.0362   16.7101 C   0  0  0  0  0  0  0  0  0  0  0  0
   -1.2173   -3.9294   26.9717 O   0  0  0  0  0  0  0  0  0  0  0  0
   -1.0025   -5.0942   27.4586 C   0  0  0  0  0  0  0  0  0  0  0  0
    2.2474   -8.9123   16.6273 C   0  0  0  0  0  0  0  0  0  0  0  0
    4.4957   -9.2636   17.3041 C   0  0  0  0  0  0  0  0  0  0  0  0
   -1.8070   -5.6086   28.1920 O   0  0  0  0  0  0  0  0  0  0  0  0
   10.4296   -5.1799   28.3140 C   0  0  0  0  0  0  0  0  0  0  0  0
    6.6017   -5.9004   26.9187 C   0  0  0  0  0  0  0  0  0  0  0  0
    2.4761   -6.9940   26.4111 N   0  0  0  0  0  0  0  0  0  0  0  0
    9.1353   -5.4053   27.8239 C   0  0  0  0  0  0  0  0  0  0  0  0
    0.9922   -9.3232   16.5995 O   0  0  0  0  0  0  0  0  0  0  0  0
    1.5232   -7.6869   27.1182 C   0  0  0  0  0  0  0  0  0  0  0  0
    8.6878   -6.6715   27.7262 N   0  0  0  0  0  0  0  0  0  0  0  0
    6.9911   -8.2423   27.1808 C   0  0  0  0  0  0  0  0  0  0  0  0
    3.8436   -7.2758   16.0578 C   0  0  0  0  0  0  0  0  0  0  0  0
    3.1882   -9.7190   17.2566 C   0  0  0  0  0  0  0  0  0  0  0  0
    5.3488   -6.1737   26.5092 C   0  0  0  0  0  0  0  0  0  0  0  0
    7.4567   -6.9464   27.2858 C   0  0  0  0  0  0  0  0  0  0  0  0
    0.1921   -5.7592   27.1123 C   0  0  0  0  0  0  0  0  0  0  0  0
    3.5517   -7.7407   25.9711 C   0  0  0  0  0  0  0  0  0  0  0  0
  1  4  4  0
  1 22  4  0
  2 20  4  0
  2 27  4  0
  3 12  4  0
  3 23  4  0
  4 25  4  0
  4 28  1  0
  5  8  4  0
  5 17  4  0
  6  7  4  0
  6 16  4  0
  7 18  4  0
  8 27  4  0
  9 13  4  0
  9 23  4  0
 10 11  1  0
 11 14  2  0
 11 27  1  0
 12 19  1  0
 12 24  4  0
 13 24  4  0
 15 18  1  0
 16 25  4  0
 16 26  4  0
 17 20  4  0
 17 28  1  0
 18 21  4  0
 21 26  4  0
 22 26  4  0
M  END
$$$$

 Created by Python create_sdf_string function

 28 30  0  0  0  0  0  0  0  0999 V2000
    5.7174   -8.4529   26.7190 C   0  0  0  0  0  0  0  0  0  0  0  0
    0.3974   -7.0711   27.5149 C   0  0  0  0  0  0  0  0  0  0  0  0
    2.5338   -7.6891   16.0102 C   0  0  0  0  0  0  0  0  0  0  0  0
    4.8690   -7.4380   26.4151 C   0  0  0  0  0  0  0  0  0  0  0  0
    2.3021   -5.6726   26.0378 C   0  0  0  0  0  0  0  0  0  0  0  0
    7.0880   -4.6163   27.0010 C   0  0  0  0  0  0  0  0  0  0  0  0
    8.3117   -4.3698   27.4436 C   0  0  0  0  0  0  0  0  0  0  0  0
    1.1339   -5.0515   26.3541 C   0  0  0  0  0  0  0  0  0  0  0  0
    4.8080   -8.0362   16.7101 C   0  0  0  0  0  0  0  0  0  0  0  0
   -1.2173   -3.9294   26.9717 O   0  0  0  0  0  0  0  0  0  0  0  0
   -1.0025   -5.0942   27.4586 C   0  0  0  0  0  0  0  0  0  0  0  0
    2.2474   -8.9123   16.6273 C   0  0  0  0  0  0  0  0  0  0  0  0
    4.4957   -9.2636   17.3041 C   0  0  0  0  0  0  0  0  0  0  0  0
   -1.8070   -5.6086   28.1920 O   0  0  0  0  0  0  0  0  0  0  0  0
   10.4296   -5.1799   28.3140 C   0  0  0  0  0  0  0  0  0  0  0  0
    6.6017   -5.9004   26.9187 C   0  0  0  0  0  0  0  0  0  0  0  0
    2.4761   -6.9940   26.4111 N   0  0  0  0  0  0  0  0  0  0  0  0
    9.1353   -5.4053   27.8239 C   0  0  0  0  0  0  0  0  0  0  0  0
    0.9922   -9.3232   16.5995 O   0  0  0  0  0  0  0  0  0  0  0  0
    1.5232   -7.6869   27.1182 C   0  0  0  0  0  0  0  0  0  0  0  0
    8.6878   -6.6715   27.7262 N   0  0  0  0  0  0  0  0  0  0  0  0
    6.9911   -8.2423   27.1808 C   0  0  0  0  0  0  0  0  0  0  0  0
    3.8436   -7.2758   16.0578 C   0  0  0  0  0  0  0  0  0  0  0  0
    3.1882   -9.7190   17.2566 C   0  0  0  0  0  0  0  0  0  0  0  0
    5.3488   -6.1737   26.5092 C   0  0  0  0  0  0  0  0  0  0  0  0
    7.4567   -6.9464   27.2858 C   0  0  0  0  0  0  0  0  0  0  0  0
    0.1921   -5.7592   27.1123 C   0  0  0  0  0  0  0  0  0  0  0  0
    3.5517   -7.7407   25.9711 C   0  0  0  0  0  0  0  0  0  0  0  0
  1  4  4  0
  1 22  4  0
  2 20  4  0
  2 27  4  0
  3 12  4  0
  3 23  4  0
  4 25  4  0
  4 28  1  0
  5  8  4  0
  5 17  4  0
  6  7  4  0
  6 16  4  0
  7 18  4  0
  8 27  4  0
  9 13  4  0
  9 23  4  0
 10 11  1  0
 11 14  2  0
 11 27  1  0
 12 19  1  0
 12 24  4  0
 13 24  4  0
 15 18  1  0
 16 25  4  0
 16 26  4  0
 17 20  4  0
 17 28  1  0
 18 21  4  0
 21 26  4  0
 22 26  4  0
M  END
$$$$

 Created by Python create_sdf_string function

 28 30  0  0  0  0  0  0  0  0999 V2000
    5.7174   -8.4529   26.7190 C   0  0  0  0  0  0  0  0  0  0  0  0
    0.3974   -7.0711   27.5149 C   0  0  0  0  0  0  0  0  0  0  0  0
    2.5338   -7.6891   16.0102 C   0  0  0  0  0  0  0  0  0  0  0  0
    4.8690   -7.4380   26.4151 C   0  0  0  0  0  0  0  0  0  0  0  0
    2.3021   -5.6726   26.0378 C   0  0  0  0  0  0  0  0  0  0  0  0
    7.0880   -4.6163   27.0010 C   0  0  0  0  0  0  0  0  0  0  0  0
    8.3117   -4.3698   27.4436 C   0  0  0  0  0  0  0  0  0  0  0  0
    1.1339   -5.0515   26.3541 C   0  0  0  0  0  0  0  0  0  0  0  0
    4.8080   -8.0362   16.7101 C   0  0  0  0  0  0  0  0  0  0  0  0
   -1.2173   -3.9294   26.9717 O   0  0  0  0  0  0  0  0  0  0  0  0
   -1.0025   -5.0942   27.4586 C   0  0  0  0  0  0  0  0  0  0  0  0
    2.2474   -8.9123   16.6273 C   0  0  0  0  0  0  0  0  0  0  0  0
    4.4957   -9.2636   17.3041 C   0  0  0  0  0  0  0  0  0  0  0  0
   -1.8070   -5.6086   28.1920 O   0  0  0  0  0  0  0  0  0  0  0  0
   10.4296   -5.1799   28.3140 C   0  0  0  0  0  0  0  0  0  0  0  0
    6.6017   -5.9004   26.9187 C   0  0  0  0  0  0  0  0  0  0  0  0
    2.4761   -6.9940   26.4111 N   0  0  0  0  0  0  0  0  0  0  0  0
    9.1353   -5.4053   27.8239 C   0  0  0  0  0  0  0  0  0  0  0  0
    0.9922   -9.3232   16.5995 O   0  0  0  0  0  0  0  0  0  0  0  0
    1.5232   -7.6869   27.1182 C   0  0  0  0  0  0  0  0  0  0  0  0
    8.6878   -6.6715   27.7262 N   0  0  0  0  0  0  0  0  0  0  0  0
    6.9911   -8.2423   27.1808 C   0  0  0  0  0  0  0  0  0  0  0  0
    3.8436   -7.2758   16.0578 C   0  0  0  0  0  0  0  0  0  0  0  0
    3.1882   -9.7190   17.2566 C   0  0  0  0  0  0  0  0  0  0  0  0
    5.3488   -6.1737   26.5092 C   0  0  0  0  0  0  0  0  0  0  0  0
    7.4567   -6.9464   27.2858 C   0  0  0  0  0  0  0  0  0  0  0  0
    0.1921   -5.7592   27.1123 C   0  0  0  0  0  0  0  0  0  0  0  0
    3.5517   -7.7407   25.9711 C   0  0  0  0  0  0  0  0  0  0  0  0
  1  4  4  0
  1 22  4  0
  2 20  4  0
  2 27  4  0
  3 12  4  0
  3 23  4  0
  4 25  4  0
  4 28  1  0
  5  8  4  0
  5 17  4  0
  6  7  4  0
  6 16  4  0
  7 18  4  0
  8 27  4  0
  9 13  4  0
  9 23  4  0
 10 11  1  0
 11 14  2  0
 11 27  1  0
 12 19  1  0
 12 24  4  0
 13 24  4  0
 15 18  1  0
 16 25  4  0
 16 26  4  0
 17 20  4  0
 17 28  1  0
 18 21  4  0
 21 26  4  0
 22 26  4  0
M  END
$$$$

 Created by Python create_sdf_string function

 28 30  0  0  0  0  0  0  0  0999 V2000
    5.7174   -8.4529   26.7190 C   0  0  0  0  0  0  0  0  0  0  0  0
    0.3974   -7.0711   27.5149 C   0  0  0  0  0  0  0  0  0  0  0  0
    2.5338   -7.6891   16.0102 C   0  0  0  0  0  0  0  0  0  0  0  0
    4.8690   -7.4380   26.4151 C   0  0  0  0  0  0  0  0  0  0  0  0
    2.3021   -5.6726   26.0378 C   0  0  0  0  0  0  0  0  0  0  0  0
    7.0880   -4.6163   27.0010 C   0  0  0  0  0  0  0  0  0  0  0  0
    8.3117   -4.3698   27.4436 C   0  0  0  0  0  0  0  0  0  0  0  0
    1.1339   -5.0515   26.3541 C   0  0  0  0  0  0  0  0  0  0  0  0
    4.8080   -8.0362   16.7101 C   0  0  0  0  0  0  0  0  0  0  0  0
   -1.2173   -3.9294   26.9717 O   0  0  0  0  0  0  0  0  0  0  0  0
   -1.0025   -5.0942   27.4586 C   0  0  0  0  0  0  0  0  0  0  0  0
    2.2474   -8.9123   16.6273 C   0  0  0  0  0  0  0  0  0  0  0  0
    4.4957   -9.2636   17.3041 C   0  0  0  0  0  0  0  0  0  0  0  0
   -1.8070   -5.6086   28.1920 O   0  0  0  0  0  0  0  0  0  0  0  0
   10.4296   -5.1799   28.3140 C   0  0  0  0  0  0  0  0  0  0  0  0
    6.6017   -5.9004   26.9187 C   0  0  0  0  0  0  0  0  0  0  0  0
    2.4761   -6.9940   26.4111 N   0  0  0  0  0  0  0  0  0  0  0  0
    9.1353   -5.4053   27.8239 C   0  0  0  0  0  0  0  0  0  0  0  0
    0.9922   -9.3232   16.5995 O   0  0  0  0  0  0  0  0  0  0  0  0
    1.5232   -7.6869   27.1182 C   0  0  0  0  0  0  0  0  0  0  0  0
    8.6878   -6.6715   27.7262 N   0  0  0  0  0  0  0  0  0  0  0  0
    6.9911   -8.2423   27.1808 C   0  0  0  0  0  0  0  0  0  0  0  0
    3.8436   -7.2758   16.0578 C   0  0  0  0  0  0  0  0  0  0  0  0
    3.1882   -9.7190   17.2566 C   0  0  0  0  0  0  0  0  0  0  0  0
    5.3488   -6.1737   26.5092 C   0  0  0  0  0  0  0  0  0  0  0  0
    7.4567   -6.9464   27.2858 C   0  0  0  0  0  0  0  0  0  0  0  0
    0.1921   -5.7592   27.1123 C   0  0  0  0  0  0  0  0  0  0  0  0
    3.5517   -7.7407   25.9711 C   0  0  0  0  0  0  0  0  0  0  0  0
  1  4  4  0
  1 22  4  0
  2 20  4  0
  2 27  4  0
  3 12  4  0
  3 23  4  0
  4 25  4  0
  4 28  1  0
  5  8  4  0
  5 17  4  0
  6  7  4  0
  6 16  4  0
  7 18  4  0
  8 27  4  0
  9 13  4  0
  9 23  4  0
 10 11  1  0
 11 14  2  0
 11 27  1  0
 12 19  1  0
 12 24  4  0
 13 24  4  0
 15 18  1  0
 16 25  4  0
 16 26  4  0
 17 20  4  0
 17 28  1  0
 18 21  4  0
 21 26  4  0
 22 26  4  0
M  END
$$$$

 Created by Python create_sdf_string function

 28 30  0  0  0  0  0  0  0  0999 V2000
    5.7174   -8.4529   26.7190 C   0  0  0  0  0  0  0  0  0  0  0  0
    0.3974   -7.0711   27.5149 C   0  0  0  0  0  0  0  0  0  0  0  0
    2.5338   -7.6891   16.0102 C   0  0  0  0  0  0  0  0  0  0  0  0
    4.8690   -7.4380   26.4151 C   0  0  0  0  0  0  0  0  0  0  0  0
    2.3021   -5.6726   26.0378 C   0  0  0  0  0  0  0  0  0  0  0  0
    7.0880   -4.6163   27.0010 C   0  0  0  0  0  0  0  0  0  0  0  0
    8.3117   -4.3698   27.4436 C   0  0  0  0  0  0  0  0  0  0  0  0
    1.1339   -5.0515   26.3541 C   0  0  0  0  0  0  0  0  0  0  0  0
    4.8080   -8.0362   16.7101 C   0  0  0  0  0  0  0  0  0  0  0  0
   -1.2173   -3.9294   26.9717 O   0  0  0  0  0  0  0  0  0  0  0  0
   -1.0025   -5.0942   27.4586 C   0  0  0  0  0  0  0  0  0  0  0  0
    2.2474   -8.9123   16.6273 C   0  0  0  0  0  0  0  0  0  0  0  0
    4.4957   -9.2636   17.3041 C   0  0  0  0  0  0  0  0  0  0  0  0
   -1.8070   -5.6086   28.1920 O   0  0  0  0  0  0  0  0  0  0  0  0
   10.4296   -5.1799   28.3140 C   0  0  0  0  0  0  0  0  0  0  0  0
    6.6017   -5.9004   26.9187 C   0  0  0  0  0  0  0  0  0  0  0  0
    2.4761   -6.9940   26.4111 N   0  0  0  0  0  0  0  0  0  0  0  0
    9.1353   -5.4053   27.8239 C   0  0  0  0  0  0  0  0  0  0  0  0
    0.9922   -9.3232   16.5995 O   0  0  0  0  0  0  0  0  0  0  0  0
    1.5232   -7.6869   27.1182 C   0  0  0  0  0  0  0  0  0  0  0  0
    8.6878   -6.6715   27.7262 N   0  0  0  0  0  0  0  0  0  0  0  0
    6.9911   -8.2423   27.1808 C   0  0  0  0  0  0  0  0  0  0  0  0
    3.8436   -7.2758   16.0578 C   0  0  0  0  0  0  0  0  0  0  0  0
    3.1882   -9.7190   17.2566 C   0  0  0  0  0  0  0  0  0  0  0  0
    5.3488   -6.1737   26.5092 C   0  0  0  0  0  0  0  0  0  0  0  0
    7.4567   -6.9464   27.2858 C   0  0  0  0  0  0  0  0  0  0  0  0
    0.1921   -5.7592   27.1123 C   0  0  0  0  0  0  0  0  0  0  0  0
    3.5517   -7.7407   25.9711 C   0  0  0  0  0  0  0  0  0  0  0  0
  1  4  4  0
  1 22  4  0
  2 20  4  0
  2 27  4  0
  3 12  4  0
  3 23  4  0
  4 25  4  0
  4 28  1  0
  5  8  4  0
  5 17  4  0
  6  7  4  0
  6 16  4  0
  7 18  4  0
  8 27  4  0
  9 13  4  0
  9 23  4  0
 10 11  1  0
 11 14  2  0
 11 27  1  0
 12 19  1  0
 12 24  4  0
 13 24  4  0
 15 18  1  0
 16 25  4  0
 16 26  4  0
 17 20  4  0
 17 28  1  0
 18 21  4  0
 21 26  4  0
 22 26  4  0
M  END
$$$$

 Created by Python create_sdf_string function

 28 30  0  0  0  0  0  0  0  0999 V2000
    5.7174   -8.4529   26.7190 C   0  0  0  0  0  0  0  0  0  0  0  0
    0.3974   -7.0711   27.5149 C   0  0  0  0  0  0  0  0  0  0  0  0
    2.5338   -7.6891   16.0102 C   0  0  0  0  0  0  0  0  0  0  0  0
    4.8690   -7.4380   26.4151 C   0  0  0  0  0  0  0  0  0  0  0  0
    2.3021   -5.6726   26.0378 C   0  0  0  0  0  0  0  0  0  0  0  0
    7.0880   -4.6163   27.0010 C   0  0  0  0  0  0  0  0  0  0  0  0
    8.3117   -4.3698   27.4436 C   0  0  0  0  0  0  0  0  0  0  0  0
    1.1339   -5.0515   26.3541 C   0  0  0  0  0  0  0  0  0  0  0  0
    4.8080   -8.0362   16.7101 C   0  0  0  0  0  0  0  0  0  0  0  0
   -1.2173   -3.9294   26.9717 O   0  0  0  0  0  0  0  0  0  0  0  0
   -1.0025   -5.0942   27.4586 C   0  0  0  0  0  0  0  0  0  0  0  0
    2.2474   -8.9123   16.6273 C   0  0  0  0  0  0  0  0  0  0  0  0
    4.4957   -9.2636   17.3041 C   0  0  0  0  0  0  0  0  0  0  0  0
   -1.8070   -5.6086   28.1920 O   0  0  0  0  0  0  0  0  0  0  0  0
   10.4296   -5.1799   28.3140 C   0  0  0  0  0  0  0  0  0  0  0  0
    6.6017   -5.9004   26.9187 C   0  0  0  0  0  0  0  0  0  0  0  0
    2.4761   -6.9940   26.4111 N   0  0  0  0  0  0  0  0  0  0  0  0
    9.1353   -5.4053   27.8239 C   0  0  0  0  0  0  0  0  0  0  0  0
    0.9922   -9.3232   16.5995 O   0  0  0  0  0  0  0  0  0  0  0  0
    1.5232   -7.6869   27.1182 C   0  0  0  0  0  0  0  0  0  0  0  0
    8.6878   -6.6715   27.7262 N   0  0  0  0  0  0  0  0  0  0  0  0
    6.9911   -8.2423   27.1808 C   0  0  0  0  0  0  0  0  0  0  0  0
    3.8436   -7.2758   16.0578 C   0  0  0  0  0  0  0  0  0  0  0  0
    3.1882   -9.7190   17.2566 C   0  0  0  0  0  0  0  0  0  0  0  0
    5.3488   -6.1737   26.5092 C   0  0  0  0  0  0  0  0  0  0  0  0
    7.4567   -6.9464   27.2858 C   0  0  0  0  0  0  0  0  0  0  0  0
    0.1921   -5.7592   27.1123 C   0  0  0  0  0  0  0  0  0  0  0  0
    3.5517   -7.7407   25.9711 C   0  0  0  0  0  0  0  0  0  0  0  0
  1  4  4  0
  1 22  4  0
  2 20  4  0
  2 27  4  0
  3 12  4  0
  3 23  4  0
  4 25  4  0
  4 28  1  0
  5  8  4  0
  5 17  4  0
  6  7  4  0
  6 16  4  0
  7 18  4  0
  8 27  4  0
  9 13  4  0
  9 23  4  0
 10 11  1  0
 11 14  2  0
 11 27  1  0
 12 19  1  0
 12 24  4  0
 13 24  4  0
 15 18  1  0
 16 25  4  0
 16 26  4  0
 17 20  4  0
 17 28  1  0
 18 21  4  0
 21 26  4  0
 22 26  4  0
M  END
$$$$

 Created by Python create_sdf_string function

 28 30  0  0  0  0  0  0  0  0999 V2000
    5.7174   -8.4529   26.7190 C   0  0  0  0  0  0  0  0  0  0  0  0
    0.3974   -7.0711   27.5149 C   0  0  0  0  0  0  0  0  0  0  0  0
    2.5338   -7.6891   16.0102 C   0  0  0  0  0  0  0  0  0  0  0  0
    4.8690   -7.4380   26.4151 C   0  0  0  0  0  0  0  0  0  0  0  0
    2.3021   -5.6726   26.0378 C   0  0  0  0  0  0  0  0  0  0  0  0
    7.0880   -4.6163   27.0010 C   0  0  0  0  0  0  0  0  0  0  0  0
    8.3117   -4.3698   27.4436 C   0  0  0  0  0  0  0  0  0  0  0  0
    1.1339   -5.0515   26.3541 C   0  0  0  0  0  0  0  0  0  0  0  0
    4.8080   -8.0362   16.7101 C   0  0  0  0  0  0  0  0  0  0  0  0
   -1.2173   -3.9294   26.9717 O   0  0  0  0  0  0  0  0  0  0  0  0
   -1.0025   -5.0942   27.4586 C   0  0  0  0  0  0  0  0  0  0  0  0
    2.2474   -8.9123   16.6273 C   0  0  0  0  0  0  0  0  0  0  0  0
    4.4957   -9.2636   17.3041 C   0  0  0  0  0  0  0  0  0  0  0  0
   -1.8070   -5.6086   28.1920 O   0  0  0  0  0  0  0  0  0  0  0  0
   10.4296   -5.1799   28.3140 C   0  0  0  0  0  0  0  0  0  0  0  0
    6.6017   -5.9004   26.9187 C   0  0  0  0  0  0  0  0  0  0  0  0
    2.4761   -6.9940   26.4111 N   0  0  0  0  0  0  0  0  0  0  0  0
    9.1353   -5.4053   27.8239 C   0  0  0  0  0  0  0  0  0  0  0  0
    0.9922   -9.3232   16.5995 O   0  0  0  0  0  0  0  0  0  0  0  0
    1.5232   -7.6869   27.1182 C   0  0  0  0  0  0  0  0  0  0  0  0
    8.6878   -6.6715   27.7262 N   0  0  0  0  0  0  0  0  0  0  0  0
    6.9911   -8.2423   27.1808 C   0  0  0  0  0  0  0  0  0  0  0  0
    3.8436   -7.2758   16.0578 C   0  0  0  0  0  0  0  0  0  0  0  0
    3.1882   -9.7190   17.2566 C   0  0  0  0  0  0  0  0  0  0  0  0
    5.3488   -6.1737   26.5092 C   0  0  0  0  0  0  0  0  0  0  0  0
    7.4567   -6.9464   27.2858 C   0  0  0  0  0  0  0  0  0  0  0  0
    0.1921   -5.7592   27.1123 C   0  0  0  0  0  0  0  0  0  0  0  0
    3.5517   -7.7407   25.9711 C   0  0  0  0  0  0  0  0  0  0  0  0
  1  4  4  0
  1 22  4  0
  2 20  4  0
  2 27  4  0
  3 12  4  0
  3 23  4  0
  4 25  4  0
  4 28  1  0
  5  8  4  0
  5 17  4  0
  6  7  4  0
  6 16  4  0
  7 18  4  0
  8 27  4  0
  9 13  4  0
  9 23  4  0
 10 11  1  0
 11 14  2  0
 11 27  1  0
 12 19  1  0
 12 24  4  0
 13 24  4  0
 15 18  1  0
 16 25  4  0
 16 26  4  0
 17 20  4  0
 17 28  1  0
 18 21  4  0
 21 26  4  0
 22 26  4  0
M  END
$$$$

 Created by Python create_sdf_string function

 28 30  0  0  0  0  0  0  0  0999 V2000
    5.7174   -8.4529   26.7190 C   0  0  0  0  0  0  0  0  0  0  0  0
    0.3974   -7.0711   27.5149 C   0  0  0  0  0  0  0  0  0  0  0  0
    2.5338   -7.6891   16.0102 C   0  0  0  0  0  0  0  0  0  0  0  0
    4.8690   -7.4380   26.4151 C   0  0  0  0  0  0  0  0  0  0  0  0
    2.3021   -5.6726   26.0378 C   0  0  0  0  0  0  0  0  0  0  0  0
    7.0880   -4.6163   27.0010 C   0  0  0  0  0  0  0  0  0  0  0  0
    8.3117   -4.3698   27.4436 C   0  0  0  0  0  0  0  0  0  0  0  0
    1.1339   -5.0515   26.3541 C   0  0  0  0  0  0  0  0  0  0  0  0
    4.8080   -8.0362   16.7101 C   0  0  0  0  0  0  0  0  0  0  0  0
   -1.2173   -3.9294   26.9717 O   0  0  0  0  0  0  0  0  0  0  0  0
   -1.0025   -5.0942   27.4586 C   0  0  0  0  0  0  0  0  0  0  0  0
    2.2474   -8.9123   16.6273 C   0  0  0  0  0  0  0  0  0  0  0  0
    4.4957   -9.2636   17.3041 C   0  0  0  0  0  0  0  0  0  0  0  0
   -1.8070   -5.6086   28.1920 O   0  0  0  0  0  0  0  0  0  0  0  0
   10.4296   -5.1799   28.3140 C   0  0  0  0  0  0  0  0  0  0  0  0
    6.6017   -5.9004   26.9187 C   0  0  0  0  0  0  0  0  0  0  0  0
    2.4761   -6.9940   26.4111 N   0  0  0  0  0  0  0  0  0  0  0  0
    9.1353   -5.4053   27.8239 C   0  0  0  0  0  0  0  0  0  0  0  0
    0.9922   -9.3232   16.5995 O   0  0  0  0  0  0  0  0  0  0  0  0
    1.5232   -7.6869   27.1182 C   0  0  0  0  0  0  0  0  0  0  0  0
    8.6878   -6.6715   27.7262 N   0  0  0  0  0  0  0  0  0  0  0  0
    6.9911   -8.2423   27.1808 C   0  0  0  0  0  0  0  0  0  0  0  0
    3.8436   -7.2758   16.0578 C   0  0  0  0  0  0  0  0  0  0  0  0
    3.1882   -9.7190   17.2566 C   0  0  0  0  0  0  0  0  0  0  0  0
    5.3488   -6.1737   26.5092 C   0  0  0  0  0  0  0  0  0  0  0  0
    7.4567   -6.9464   27.2858 C   0  0  0  0  0  0  0  0  0  0  0  0
    0.1921   -5.7592   27.1123 C   0  0  0  0  0  0  0  0  0  0  0  0
    3.5517   -7.7407   25.9711 C   0  0  0  0  0  0  0  0  0  0  0  0
  1  4  4  0
  1 22  4  0
  2 20  4  0
  2 27  4  0
  3 12  4  0
  3 23  4  0
  4 25  4  0
  4 28  1  0
  5  8  4  0
  5 17  4  0
  6  7  4  0
  6 16  4  0
  7 18  4  0
  8 27  4  0
  9 13  4  0
  9 23  4  0
 10 11  1  0
 11 14  2  0
 11 27  1  0
 12 19  1  0
 12 24  4  0
 13 24  4  0
 15 18  1  0
 16 25  4  0
 16 26  4  0
 17 20  4  0
 17 28  1  0
 18 21  4  0
 21 26  4  0
 22 26  4  0
M  END
$$$$

 Created by Python create_sdf_string function

 28 30  0  0  0  0  0  0  0  0999 V2000
    5.7174   -8.4529   26.7190 C   0  0  0  0  0  0  0  0  0  0  0  0
    0.3974   -7.0711   27.5149 C   0  0  0  0  0  0  0  0  0  0  0  0
    2.5338   -7.6891   16.0102 C   0  0  0  0  0  0  0  0  0  0  0  0
    4.8690   -7.4380   26.4151 C   0  0  0  0  0  0  0  0  0  0  0  0
    2.3021   -5.6726   26.0378 C   0  0  0  0  0  0  0  0  0  0  0  0
    7.0880   -4.6163   27.0010 C   0  0  0  0  0  0  0  0  0  0  0  0
    8.3117   -4.3698   27.4436 C   0  0  0  0  0  0  0  0  0  0  0  0
    1.1339   -5.0515   26.3541 C   0  0  0  0  0  0  0  0  0  0  0  0
    4.8080   -8.0362   16.7101 C   0  0  0  0  0  0  0  0  0  0  0  0
   -1.2173   -3.9294   26.9717 O   0  0  0  0  0  0  0  0  0  0  0  0
   -1.0025   -5.0942   27.4586 C   0  0  0  0  0  0  0  0  0  0  0  0
    2.2474   -8.9123   16.6273 C   0  0  0  0  0  0  0  0  0  0  0  0
    4.4957   -9.2636   17.3041 C   0  0  0  0  0  0  0  0  0  0  0  0
   -1.8070   -5.6086   28.1920 O   0  0  0  0  0  0  0  0  0  0  0  0
   10.4296   -5.1799   28.3140 C   0  0  0  0  0  0  0  0  0  0  0  0
    6.6017   -5.9004   26.9187 C   0  0  0  0  0  0  0  0  0  0  0  0
    2.4761   -6.9940   26.4111 N   0  0  0  0  0  0  0  0  0  0  0  0
    9.1353   -5.4053   27.8239 C   0  0  0  0  0  0  0  0  0  0  0  0
    0.9922   -9.3232   16.5995 O   0  0  0  0  0  0  0  0  0  0  0  0
    1.5232   -7.6869   27.1182 C   0  0  0  0  0  0  0  0  0  0  0  0
    8.6878   -6.6715   27.7262 N   0  0  0  0  0  0  0  0  0  0  0  0
    6.9911   -8.2423   27.1808 C   0  0  0  0  0  0  0  0  0  0  0  0
    3.8436   -7.2758   16.0578 C   0  0  0  0  0  0  0  0  0  0  0  0
    3.1882   -9.7190   17.2566 C   0  0  0  0  0  0  0  0  0  0  0  0
    5.3488   -6.1737   26.5092 C   0  0  0  0  0  0  0  0  0  0  0  0
    7.4567   -6.9464   27.2858 C   0  0  0  0  0  0  0  0  0  0  0  0
    0.1921   -5.7592   27.1123 C   0  0  0  0  0  0  0  0  0  0  0  0
    3.5517   -7.7407   25.9711 C   0  0  0  0  0  0  0  0  0  0  0  0
  1  4  4  0
  1 22  4  0
  2 20  4  0
  2 27  4  0
  3 12  4  0
  3 23  4  0
  4 25  4  0
  4 28  1  0
  5  8  4  0
  5 17  4  0
  6  7  4  0
  6 16  4  0
  7 18  4  0
  8 27  4  0
  9 13  4  0
  9 23  4  0
 10 11  1  0
 11 14  2  0
 11 27  1  0
 12 19  1  0
 12 24  4  0
 13 24  4  0
 15 18  1  0
 16 25  4  0
 16 26  4  0
 17 20  4  0
 17 28  1  0
 18 21  4  0
 21 26  4  0
 22 26  4  0
M  END
$$$$

 Created by Python create_sdf_string function

 28 30  0  0  0  0  0  0  0  0999 V2000
    5.7174   -8.4529   26.7190 C   0  0  0  0  0  0  0  0  0  0  0  0
    0.3974   -7.0711   27.5149 C   0  0  0  0  0  0  0  0  0  0  0  0
    2.5338   -7.6891   16.0102 C   0  0  0  0  0  0  0  0  0  0  0  0
    4.8690   -7.4380   26.4151 C   0  0  0  0  0  0  0  0  0  0  0  0
    2.3021   -5.6726   26.0378 C   0  0  0  0  0  0  0  0  0  0  0  0
    7.0880   -4.6163   27.0010 C   0  0  0  0  0  0  0  0  0  0  0  0
    8.3117   -4.3698   27.4436 C   0  0  0  0  0  0  0  0  0  0  0  0
    1.1339   -5.0515   26.3541 C   0  0  0  0  0  0  0  0  0  0  0  0
    4.8080   -8.0362   16.7101 C   0  0  0  0  0  0  0  0  0  0  0  0
   -1.2173   -3.9294   26.9717 O   0  0  0  0  0  0  0  0  0  0  0  0
   -1.0025   -5.0942   27.4586 C   0  0  0  0  0  0  0  0  0  0  0  0
    2.2474   -8.9123   16.6273 C   0  0  0  0  0  0  0  0  0  0  0  0
    4.4957   -9.2636   17.3041 C   0  0  0  0  0  0  0  0  0  0  0  0
   -1.8070   -5.6086   28.1920 O   0  0  0  0  0  0  0  0  0  0  0  0
   10.4296   -5.1799   28.3140 C   0  0  0  0  0  0  0  0  0  0  0  0
    6.6017   -5.9004   26.9187 C   0  0  0  0  0  0  0  0  0  0  0  0
    2.4761   -6.9940   26.4111 N   0  0  0  0  0  0  0  0  0  0  0  0
    9.1353   -5.4053   27.8239 C   0  0  0  0  0  0  0  0  0  0  0  0
    0.9922   -9.3232   16.5995 O   0  0  0  0  0  0  0  0  0  0  0  0
    1.5232   -7.6869   27.1182 C   0  0  0  0  0  0  0  0  0  0  0  0
    8.6878   -6.6715   27.7262 N   0  0  0  0  0  0  0  0  0  0  0  0
    6.9911   -8.2423   27.1808 C   0  0  0  0  0  0  0  0  0  0  0  0
    3.8436   -7.2758   16.0578 C   0  0  0  0  0  0  0  0  0  0  0  0
    3.1882   -9.7190   17.2566 C   0  0  0  0  0  0  0  0  0  0  0  0
    5.3488   -6.1737   26.5092 C   0  0  0  0  0  0  0  0  0  0  0  0
    7.4567   -6.9464   27.2858 C   0  0  0  0  0  0  0  0  0  0  0  0
    0.1921   -5.7592   27.1123 C   0  0  0  0  0  0  0  0  0  0  0  0
    3.5517   -7.7407   25.9711 C   0  0  0  0  0  0  0  0  0  0  0  0
  1  4  4  0
  1 22  4  0
  2 20  4  0
  2 27  4  0
  3 12  4  0
  3 23  4  0
  4 25  4  0
  4 28  1  0
  5  8  4  0
  5 17  4  0
  6  7  4  0
  6 16  4  0
  7 18  4  0
  8 27  4  0
  9 13  4  0
  9 23  4  0
 10 11  1  0
 11 14  2  0
 11 27  1  0
 12 19  1  0
 12 24  4  0
 13 24  4  0
 15 18  1  0
 16 25  4  0
 16 26  4  0
 17 20  4  0
 17 28  1  0
 18 21  4  0
 21 26  4  0
 22 26  4  0
M  END
$$$$

 Created by Python create_sdf_string function

 28 30  0  0  0  0  0  0  0  0999 V2000
    5.7174   -8.4529   26.7190 C   0  0  0  0  0  0  0  0  0  0  0  0
    0.3974   -7.0711   27.5149 C   0  0  0  0  0  0  0  0  0  0  0  0
    2.5338   -7.6891   16.0102 C   0  0  0  0  0  0  0  0  0  0  0  0
    4.8690   -7.4380   26.4151 C   0  0  0  0  0  0  0  0  0  0  0  0
    2.3021   -5.6726   26.0378 C   0  0  0  0  0  0  0  0  0  0  0  0
    7.0880   -4.6163   27.0010 C   0  0  0  0  0  0  0  0  0  0  0  0
    8.3117   -4.3698   27.4436 C   0  0  0  0  0  0  0  0  0  0  0  0
    1.1339   -5.0515   26.3541 C   0  0  0  0  0  0  0  0  0  0  0  0
    4.8080   -8.0362   16.7101 C   0  0  0  0  0  0  0  0  0  0  0  0
   -1.2173   -3.9294   26.9717 O   0  0  0  0  0  0  0  0  0  0  0  0
   -1.0025   -5.0942   27.4586 C   0  0  0  0  0  0  0  0  0  0  0  0
    2.2474   -8.9123   16.6273 C   0  0  0  0  0  0  0  0  0  0  0  0
    4.4957   -9.2636   17.3041 C   0  0  0  0  0  0  0  0  0  0  0  0
   -1.8070   -5.6086   28.1920 O   0  0  0  0  0  0  0  0  0  0  0  0
   10.4296   -5.1799   28.3140 C   0  0  0  0  0  0  0  0  0  0  0  0
    6.6017   -5.9004   26.9187 C   0  0  0  0  0  0  0  0  0  0  0  0
    2.4761   -6.9940   26.4111 N   0  0  0  0  0  0  0  0  0  0  0  0
    9.1353   -5.4053   27.8239 C   0  0  0  0  0  0  0  0  0  0  0  0
    0.9922   -9.3232   16.5995 O   0  0  0  0  0  0  0  0  0  0  0  0
    1.5232   -7.6869   27.1182 C   0  0  0  0  0  0  0  0  0  0  0  0
    8.6878   -6.6715   27.7262 N   0  0  0  0  0  0  0  0  0  0  0  0
    6.9911   -8.2423   27.1808 C   0  0  0  0  0  0  0  0  0  0  0  0
    3.8436   -7.2758   16.0578 C   0  0  0  0  0  0  0  0  0  0  0  0
    3.1882   -9.7190   17.2566 C   0  0  0  0  0  0  0  0  0  0  0  0
    5.3488   -6.1737   26.5092 C   0  0  0  0  0  0  0  0  0  0  0  0
    7.4567   -6.9464   27.2858 C   0  0  0  0  0  0  0  0  0  0  0  0
    0.1921   -5.7592   27.1123 C   0  0  0  0  0  0  0  0  0  0  0  0
    3.5517   -7.7407   25.9711 C   0  0  0  0  0  0  0  0  0  0  0  0
  1  4  4  0
  1 22  4  0
  2 20  4  0
  2 27  4  0
  3 12  4  0
  3 23  4  0
  4 25  4  0
  4 28  1  0
  5  8  4  0
  5 17  4  0
  6  7  4  0
  6 16  4  0
  7 18  4  0
  8 27  4  0
  9 13  4  0
  9 23  4  0
 10 11  1  0
 11 14  2  0
 11 27  1  0
 12 19  1  0
 12 24  4  0
 13 24  4  0
 15 18  1  0
 16 25  4  0
 16 26  4  0
 17 20  4  0
 17 28  1  0
 18 21  4  0
 21 26  4  0
 22 26  4  0
M  END
$$$$

 Created by Python create_sdf_string function

 28 30  0  0  0  0  0  0  0  0999 V2000
    5.7174   -8.4529   26.7190 C   0  0  0  0  0  0  0  0  0  0  0  0
    0.3974   -7.0711   27.5149 C   0  0  0  0  0  0  0  0  0  0  0  0
    2.5338   -7.6891   16.0102 C   0  0  0  0  0  0  0  0  0  0  0  0
    4.8690   -7.4380   26.4151 C   0  0  0  0  0  0  0  0  0  0  0  0
    2.3021   -5.6726   26.0378 C   0  0  0  0  0  0  0  0  0  0  0  0
    7.0880   -4.6163   27.0010 C   0  0  0  0  0  0  0  0  0  0  0  0
    8.3117   -4.3698   27.4436 C   0  0  0  0  0  0  0  0  0  0  0  0
    1.1339   -5.0515   26.3541 C   0  0  0  0  0  0  0  0  0  0  0  0
    4.8080   -8.0362   16.7101 C   0  0  0  0  0  0  0  0  0  0  0  0
   -1.2173   -3.9294   26.9717 O   0  0  0  0  0  0  0  0  0  0  0  0
   -1.0025   -5.0942   27.4586 C   0  0  0  0  0  0  0  0  0  0  0  0
    2.2474   -8.9123   16.6273 C   0  0  0  0  0  0  0  0  0  0  0  0
    4.4957   -9.2636   17.3041 C   0  0  0  0  0  0  0  0  0  0  0  0
   -1.8070   -5.6086   28.1920 O   0  0  0  0  0  0  0  0  0  0  0  0
   10.4296   -5.1799   28.3140 C   0  0  0  0  0  0  0  0  0  0  0  0
    6.6017   -5.9004   26.9187 C   0  0  0  0  0  0  0  0  0  0  0  0
    2.4761   -6.9940   26.4111 N   0  0  0  0  0  0  0  0  0  0  0  0
    9.1353   -5.4053   27.8239 C   0  0  0  0  0  0  0  0  0  0  0  0
    0.9922   -9.3232   16.5995 O   0  0  0  0  0  0  0  0  0  0  0  0
    1.5232   -7.6869   27.1182 C   0  0  0  0  0  0  0  0  0  0  0  0
    8.6878   -6.6715   27.7262 N   0  0  0  0  0  0  0  0  0  0  0  0
    6.9911   -8.2423   27.1808 C   0  0  0  0  0  0  0  0  0  0  0  0
    3.8436   -7.2758   16.0578 C   0  0  0  0  0  0  0  0  0  0  0  0
    3.1882   -9.7190   17.2566 C   0  0  0  0  0  0  0  0  0  0  0  0
    5.3488   -6.1737   26.5092 C   0  0  0  0  0  0  0  0  0  0  0  0
    7.4567   -6.9464   27.2858 C   0  0  0  0  0  0  0  0  0  0  0  0
    0.1921   -5.7592   27.1123 C   0  0  0  0  0  0  0  0  0  0  0  0
    3.5517   -7.7407   25.9711 C   0  0  0  0  0  0  0  0  0  0  0  0
  1  4  4  0
  1 22  4  0
  2 20  4  0
  2 27  4  0
  3 12  4  0
  3 23  4  0
  4 25  4  0
  4 28  1  0
  5  8  4  0
  5 17  4  0
  6  7  4  0
  6 16  4  0
  7 18  4  0
  8 27  4  0
  9 13  4  0
  9 23  4  0
 10 11  1  0
 11 14  2  0
 11 27  1  0
 12 19  1  0
 12 24  4  0
 13 24  4  0
 15 18  1  0
 16 25  4  0
 16 26  4  0
 17 20  4  0
 17 28  1  0
 18 21  4  0
 21 26  4  0
 22 26  4  0
M  END
$$$$

 Created by Python create_sdf_string function

 28 30  0  0  0  0  0  0  0  0999 V2000
    5.7174   -8.4529   26.7190 C   0  0  0  0  0  0  0  0  0  0  0  0
    0.3974   -7.0711   27.5149 C   0  0  0  0  0  0  0  0  0  0  0  0
    2.5338   -7.6891   16.0102 C   0  0  0  0  0  0  0  0  0  0  0  0
    4.8690   -7.4380   26.4151 C   0  0  0  0  0  0  0  0  0  0  0  0
    2.3021   -5.6726   26.0378 C   0  0  0  0  0  0  0  0  0  0  0  0
    7.0880   -4.6163   27.0010 C   0  0  0  0  0  0  0  0  0  0  0  0
    8.3117   -4.3698   27.4436 C   0  0  0  0  0  0  0  0  0  0  0  0
    1.1339   -5.0515   26.3541 C   0  0  0  0  0  0  0  0  0  0  0  0
    4.8080   -8.0362   16.7101 C   0  0  0  0  0  0  0  0  0  0  0  0
   -1.2173   -3.9294   26.9717 O   0  0  0  0  0  0  0  0  0  0  0  0
   -1.0025   -5.0942   27.4586 C   0  0  0  0  0  0  0  0  0  0  0  0
    2.2474   -8.9123   16.6273 C   0  0  0  0  0  0  0  0  0  0  0  0
    4.4957   -9.2636   17.3041 C   0  0  0  0  0  0  0  0  0  0  0  0
   -1.8070   -5.6086   28.1920 O   0  0  0  0  0  0  0  0  0  0  0  0
   10.4296   -5.1799   28.3140 C   0  0  0  0  0  0  0  0  0  0  0  0
    6.6017   -5.9004   26.9187 C   0  0  0  0  0  0  0  0  0  0  0  0
    2.4761   -6.9940   26.4111 N   0  0  0  0  0  0  0  0  0  0  0  0
    9.1353   -5.4053   27.8239 C   0  0  0  0  0  0  0  0  0  0  0  0
    0.9922   -9.3232   16.5995 O   0  0  0  0  0  0  0  0  0  0  0  0
    1.5232   -7.6869   27.1182 C   0  0  0  0  0  0  0  0  0  0  0  0
    8.6878   -6.6715   27.7262 N   0  0  0  0  0  0  0  0  0  0  0  0
    6.9911   -8.2423   27.1808 C   0  0  0  0  0  0  0  0  0  0  0  0
    3.8436   -7.2758   16.0578 C   0  0  0  0  0  0  0  0  0  0  0  0
    3.1882   -9.7190   17.2566 C   0  0  0  0  0  0  0  0  0  0  0  0
    5.3488   -6.1737   26.5092 C   0  0  0  0  0  0  0  0  0  0  0  0
    7.4567   -6.9464   27.2858 C   0  0  0  0  0  0  0  0  0  0  0  0
    0.1921   -5.7592   27.1123 C   0  0  0  0  0  0  0  0  0  0  0  0
    3.5517   -7.7407   25.9711 C   0  0  0  0  0  0  0  0  0  0  0  0
  1  4  4  0
  1 22  4  0
  2 20  4  0
  2 27  4  0
  3 12  4  0
  3 23  4  0
  4 25  4  0
  4 28  1  0
  5  8  4  0
  5 17  4  0
  6  7  4  0
  6 16  4  0
  7 18  4  0
  8 27  4  0
  9 13  4  0
  9 23  4  0
 10 11  1  0
 11 14  2  0
 11 27  1  0
 12 19  1  0
 12 24  4  0
 13 24  4  0
 15 18  1  0
 16 25  4  0
 16 26  4  0
 17 20  4  0
 17 28  1  0
 18 21  4  0
 21 26  4  0
 22 26  4  0
M  END
$$$$

 Created by Python create_sdf_string function

 28 30  0  0  0  0  0  0  0  0999 V2000
    5.7174   -8.4529   26.7190 C   0  0  0  0  0  0  0  0  0  0  0  0
    0.3974   -7.0711   27.5149 C   0  0  0  0  0  0  0  0  0  0  0  0
    2.5338   -7.6891   16.0102 C   0  0  0  0  0  0  0  0  0  0  0  0
    4.8690   -7.4380   26.4151 C   0  0  0  0  0  0  0  0  0  0  0  0
    2.3021   -5.6726   26.0378 C   0  0  0  0  0  0  0  0  0  0  0  0
    7.0880   -4.6163   27.0010 C   0  0  0  0  0  0  0  0  0  0  0  0
    8.3117   -4.3698   27.4436 C   0  0  0  0  0  0  0  0  0  0  0  0
    1.1339   -5.0515   26.3541 C   0  0  0  0  0  0  0  0  0  0  0  0
    4.8080   -8.0362   16.7101 C   0  0  0  0  0  0  0  0  0  0  0  0
   -1.2173   -3.9294   26.9717 O   0  0  0  0  0  0  0  0  0  0  0  0
   -1.0025   -5.0942   27.4586 C   0  0  0  0  0  0  0  0  0  0  0  0
    2.2474   -8.9123   16.6273 C   0  0  0  0  0  0  0  0  0  0  0  0
    4.4957   -9.2636   17.3041 C   0  0  0  0  0  0  0  0  0  0  0  0
   -1.8070   -5.6086   28.1920 O   0  0  0  0  0  0  0  0  0  0  0  0
   10.4296   -5.1799   28.3140 C   0  0  0  0  0  0  0  0  0  0  0  0
    6.6017   -5.9004   26.9187 C   0  0  0  0  0  0  0  0  0  0  0  0
    2.4761   -6.9940   26.4111 N   0  0  0  0  0  0  0  0  0  0  0  0
    9.1353   -5.4053   27.8239 C   0  0  0  0  0  0  0  0  0  0  0  0
    0.9922   -9.3232   16.5995 O   0  0  0  0  0  0  0  0  0  0  0  0
    1.5232   -7.6869   27.1182 C   0  0  0  0  0  0  0  0  0  0  0  0
    8.6878   -6.6715   27.7262 N   0  0  0  0  0  0  0  0  0  0  0  0
    6.9911   -8.2423   27.1808 C   0  0  0  0  0  0  0  0  0  0  0  0
    3.8436   -7.2758   16.0578 C   0  0  0  0  0  0  0  0  0  0  0  0
    3.1882   -9.7190   17.2566 C   0  0  0  0  0  0  0  0  0  0  0  0
    5.3488   -6.1737   26.5092 C   0  0  0  0  0  0  0  0  0  0  0  0
    7.4567   -6.9464   27.2858 C   0  0  0  0  0  0  0  0  0  0  0  0
    0.1921   -5.7592   27.1123 C   0  0  0  0  0  0  0  0  0  0  0  0
    3.5517   -7.7407   25.9711 C   0  0  0  0  0  0  0  0  0  0  0  0
  1  4  4  0
  1 22  4  0
  2 20  4  0
  2 27  4  0
  3 12  4  0
  3 23  4  0
  4 25  4  0
  4 28  1  0
  5  8  4  0
  5 17  4  0
  6  7  4  0
  6 16  4  0
  7 18  4  0
  8 27  4  0
  9 13  4  0
  9 23  4  0
 10 11  1  0
 11 14  2  0
 11 27  1  0
 12 19  1  0
 12 24  4  0
 13 24  4  0
 15 18  1  0
 16 25  4  0
 16 26  4  0
 17 20  4  0
 17 28  1  0
 18 21  4  0
 21 26  4  0
 22 26  4  0
M  END
$$$$

 Created by Python create_sdf_string function

 28 30  0  0  0  0  0  0  0  0999 V2000
    5.7174   -8.4529   26.7190 C   0  0  0  0  0  0  0  0  0  0  0  0
    0.3974   -7.0711   27.5149 C   0  0  0  0  0  0  0  0  0  0  0  0
    2.5338   -7.6891   16.0102 C   0  0  0  0  0  0  0  0  0  0  0  0
    4.8690   -7.4380   26.4151 C   0  0  0  0  0  0  0  0  0  0  0  0
    2.3021   -5.6726   26.0378 C   0  0  0  0  0  0  0  0  0  0  0  0
    7.0880   -4.6163   27.0010 C   0  0  0  0  0  0  0  0  0  0  0  0
    8.3117   -4.3698   27.4436 C   0  0  0  0  0  0  0  0  0  0  0  0
    1.1339   -5.0515   26.3541 C   0  0  0  0  0  0  0  0  0  0  0  0
    4.8080   -8.0362   16.7101 C   0  0  0  0  0  0  0  0  0  0  0  0
   -1.2173   -3.9294   26.9717 O   0  0  0  0  0  0  0  0  0  0  0  0
   -1.0025   -5.0942   27.4586 C   0  0  0  0  0  0  0  0  0  0  0  0
    2.2474   -8.9123   16.6273 C   0  0  0  0  0  0  0  0  0  0  0  0
    4.4957   -9.2636   17.3041 C   0  0  0  0  0  0  0  0  0  0  0  0
   -1.8070   -5.6086   28.1920 O   0  0  0  0  0  0  0  0  0  0  0  0
   10.4296   -5.1799   28.3140 C   0  0  0  0  0  0  0  0  0  0  0  0
    6.6017   -5.9004   26.9187 C   0  0  0  0  0  0  0  0  0  0  0  0
    2.4761   -6.9940   26.4111 N   0  0  0  0  0  0  0  0  0  0  0  0
    9.1353   -5.4053   27.8239 C   0  0  0  0  0  0  0  0  0  0  0  0
    0.9922   -9.3232   16.5995 O   0  0  0  0  0  0  0  0  0  0  0  0
    1.5232   -7.6869   27.1182 C   0  0  0  0  0  0  0  0  0  0  0  0
    8.6878   -6.6715   27.7262 N   0  0  0  0  0  0  0  0  0  0  0  0
    6.9911   -8.2423   27.1808 C   0  0  0  0  0  0  0  0  0  0  0  0
    3.8436   -7.2758   16.0578 C   0  0  0  0  0  0  0  0  0  0  0  0
    3.1882   -9.7190   17.2566 C   0  0  0  0  0  0  0  0  0  0  0  0
    5.3488   -6.1737   26.5092 C   0  0  0  0  0  0  0  0  0  0  0  0
    7.4567   -6.9464   27.2858 C   0  0  0  0  0  0  0  0  0  0  0  0
    0.1921   -5.7592   27.1123 C   0  0  0  0  0  0  0  0  0  0  0  0
    3.5517   -7.7407   25.9711 C   0  0  0  0  0  0  0  0  0  0  0  0
  1  4  4  0
  1 22  4  0
  2 20  4  0
  2 27  4  0
  3 12  4  0
  3 23  4  0
  4 25  4  0
  4 28  1  0
  5  8  4  0
  5 17  4  0
  6  7  4  0
  6 16  4  0
  7 18  4  0
  8 27  4  0
  9 13  4  0
  9 23  4  0
 10 11  1  0
 11 14  2  0
 11 27  1  0
 12 19  1  0
 12 24  4  0
 13 24  4  0
 15 18  1  0
 16 25  4  0
 16 26  4  0
 17 20  4  0
 17 28  1  0
 18 21  4  0
 21 26  4  0
 22 26  4  0
M  END
$$$$

 Created by Python create_sdf_string function

 28 30  0  0  0  0  0  0  0  0999 V2000
    5.7174   -8.4529   26.7190 C   0  0  0  0  0  0  0  0  0  0  0  0
    0.3974   -7.0711   27.5149 C   0  0  0  0  0  0  0  0  0  0  0  0
    2.5338   -7.6891   16.0102 C   0  0  0  0  0  0  0  0  0  0  0  0
    4.8690   -7.4380   26.4151 C   0  0  0  0  0  0  0  0  0  0  0  0
    2.3021   -5.6726   26.0378 C   0  0  0  0  0  0  0  0  0  0  0  0
    7.0880   -4.6163   27.0010 C   0  0  0  0  0  0  0  0  0  0  0  0
    8.3117   -4.3698   27.4436 C   0  0  0  0  0  0  0  0  0  0  0  0
    1.1339   -5.0515   26.3541 C   0  0  0  0  0  0  0  0  0  0  0  0
    4.8080   -8.0362   16.7101 C   0  0  0  0  0  0  0  0  0  0  0  0
   -1.2173   -3.9294   26.9717 O   0  0  0  0  0  0  0  0  0  0  0  0
   -1.0025   -5.0942   27.4586 C   0  0  0  0  0  0  0  0  0  0  0  0
    2.2474   -8.9123   16.6273 C   0  0  0  0  0  0  0  0  0  0  0  0
    4.4957   -9.2636   17.3041 C   0  0  0  0  0  0  0  0  0  0  0  0
   -1.8070   -5.6086   28.1920 O   0  0  0  0  0  0  0  0  0  0  0  0
   10.4296   -5.1799   28.3140 C   0  0  0  0  0  0  0  0  0  0  0  0
    6.6017   -5.9004   26.9187 C   0  0  0  0  0  0  0  0  0  0  0  0
    2.4761   -6.9940   26.4111 N   0  0  0  0  0  0  0  0  0  0  0  0
    9.1353   -5.4053   27.8239 C   0  0  0  0  0  0  0  0  0  0  0  0
    0.9922   -9.3232   16.5995 O   0  0  0  0  0  0  0  0  0  0  0  0
    1.5232   -7.6869   27.1182 C   0  0  0  0  0  0  0  0  0  0  0  0
    8.6878   -6.6715   27.7262 N   0  0  0  0  0  0  0  0  0  0  0  0
    6.9911   -8.2423   27.1808 C   0  0  0  0  0  0  0  0  0  0  0  0
    3.8436   -7.2758   16.0578 C   0  0  0  0  0  0  0  0  0  0  0  0
    3.1882   -9.7190   17.2566 C   0  0  0  0  0  0  0  0  0  0  0  0
    5.3488   -6.1737   26.5092 C   0  0  0  0  0  0  0  0  0  0  0  0
    7.4567   -6.9464   27.2858 C   0  0  0  0  0  0  0  0  0  0  0  0
    0.1921   -5.7592   27.1123 C   0  0  0  0  0  0  0  0  0  0  0  0
    3.5517   -7.7407   25.9711 C   0  0  0  0  0  0  0  0  0  0  0  0
  1  4  4  0
  1 22  4  0
  2 20  4  0
  2 27  4  0
  3 12  4  0
  3 23  4  0
  4 25  4  0
  4 28  1  0
  5  8  4  0
  5 17  4  0
  6  7  4  0
  6 16  4  0
  7 18  4  0
  8 27  4  0
  9 13  4  0
  9 23  4  0
 10 11  1  0
 11 14  2  0
 11 27  1  0
 12 19  1  0
 12 24  4  0
 13 24  4  0
 15 18  1  0
 16 25  4  0
 16 26  4  0
 17 20  4  0
 17 28  1  0
 18 21  4  0
 21 26  4  0
 22 26  4  0
M  END
$$$$

 Created by Python create_sdf_string function

 28 30  0  0  0  0  0  0  0  0999 V2000
    5.7174   -8.4529   26.7190 C   0  0  0  0  0  0  0  0  0  0  0  0
    0.3974   -7.0711   27.5149 C   0  0  0  0  0  0  0  0  0  0  0  0
    2.5338   -7.6891   16.0102 C   0  0  0  0  0  0  0  0  0  0  0  0
    4.8690   -7.4380   26.4151 C   0  0  0  0  0  0  0  0  0  0  0  0
    2.3021   -5.6726   26.0378 C   0  0  0  0  0  0  0  0  0  0  0  0
    7.0880   -4.6163   27.0010 C   0  0  0  0  0  0  0  0  0  0  0  0
    8.3117   -4.3698   27.4436 C   0  0  0  0  0  0  0  0  0  0  0  0
    1.1339   -5.0515   26.3541 C   0  0  0  0  0  0  0  0  0  0  0  0
    4.8080   -8.0362   16.7101 C   0  0  0  0  0  0  0  0  0  0  0  0
   -1.2173   -3.9294   26.9717 O   0  0  0  0  0  0  0  0  0  0  0  0
   -1.0025   -5.0942   27.4586 C   0  0  0  0  0  0  0  0  0  0  0  0
    2.2474   -8.9123   16.6273 C   0  0  0  0  0  0  0  0  0  0  0  0
    4.4957   -9.2636   17.3041 C   0  0  0  0  0  0  0  0  0  0  0  0
   -1.8070   -5.6086   28.1920 O   0  0  0  0  0  0  0  0  0  0  0  0
   10.4296   -5.1799   28.3140 C   0  0  0  0  0  0  0  0  0  0  0  0
    6.6017   -5.9004   26.9187 C   0  0  0  0  0  0  0  0  0  0  0  0
    2.4761   -6.9940   26.4111 N   0  0  0  0  0  0  0  0  0  0  0  0
    9.1353   -5.4053   27.8239 C   0  0  0  0  0  0  0  0  0  0  0  0
    0.9922   -9.3232   16.5995 O   0  0  0  0  0  0  0  0  0  0  0  0
    1.5232   -7.6869   27.1182 C   0  0  0  0  0  0  0  0  0  0  0  0
    8.6878   -6.6715   27.7262 N   0  0  0  0  0  0  0  0  0  0  0  0
    6.9911   -8.2423   27.1808 C   0  0  0  0  0  0  0  0  0  0  0  0
    3.8436   -7.2758   16.0578 C   0  0  0  0  0  0  0  0  0  0  0  0
    3.1882   -9.7190   17.2566 C   0  0  0  0  0  0  0  0  0  0  0  0
    5.3488   -6.1737   26.5092 C   0  0  0  0  0  0  0  0  0  0  0  0
    7.4567   -6.9464   27.2858 C   0  0  0  0  0  0  0  0  0  0  0  0
    0.1921   -5.7592   27.1123 C   0  0  0  0  0  0  0  0  0  0  0  0
    3.5517   -7.7407   25.9711 C   0  0  0  0  0  0  0  0  0  0  0  0
  1  4  4  0
  1 22  4  0
  2 20  4  0
  2 27  4  0
  3 12  4  0
  3 23  4  0
  4 25  4  0
  4 28  1  0
  5  8  4  0
  5 17  4  0
  6  7  4  0
  6 16  4  0
  7 18  4  0
  8 27  4  0
  9 13  4  0
  9 23  4  0
 10 11  1  0
 11 14  2  0
 11 27  1  0
 12 19  1  0
 12 24  4  0
 13 24  4  0
 15 18  1  0
 16 25  4  0
 16 26  4  0
 17 20  4  0
 17 28  1  0
 18 21  4  0
 21 26  4  0
 22 26  4  0
M  END
$$$$

 Created by Python create_sdf_string function

 28 30  0  0  0  0  0  0  0  0999 V2000
    5.7174   -8.4529   26.7190 C   0  0  0  0  0  0  0  0  0  0  0  0
    0.3974   -7.0711   27.5149 C   0  0  0  0  0  0  0  0  0  0  0  0
    2.5338   -7.6891   16.0102 C   0  0  0  0  0  0  0  0  0  0  0  0
    4.8690   -7.4380   26.4151 C   0  0  0  0  0  0  0  0  0  0  0  0
    2.3021   -5.6726   26.0378 C   0  0  0  0  0  0  0  0  0  0  0  0
    7.0880   -4.6163   27.0010 C   0  0  0  0  0  0  0  0  0  0  0  0
    8.3117   -4.3698   27.4436 C   0  0  0  0  0  0  0  0  0  0  0  0
    1.1339   -5.0515   26.3541 C   0  0  0  0  0  0  0  0  0  0  0  0
    4.8080   -8.0362   16.7101 C   0  0  0  0  0  0  0  0  0  0  0  0
   -1.2173   -3.9294   26.9717 O   0  0  0  0  0  0  0  0  0  0  0  0
   -1.0025   -5.0942   27.4586 C   0  0  0  0  0  0  0  0  0  0  0  0
    2.2474   -8.9123   16.6273 C   0  0  0  0  0  0  0  0  0  0  0  0
    4.4957   -9.2636   17.3041 C   0  0  0  0  0  0  0  0  0  0  0  0
   -1.8070   -5.6086   28.1920 O   0  0  0  0  0  0  0  0  0  0  0  0
   10.4296   -5.1799   28.3140 C   0  0  0  0  0  0  0  0  0  0  0  0
    6.6017   -5.9004   26.9187 C   0  0  0  0  0  0  0  0  0  0  0  0
    2.4761   -6.9940   26.4111 N   0  0  0  0  0  0  0  0  0  0  0  0
    9.1353   -5.4053   27.8239 C   0  0  0  0  0  0  0  0  0  0  0  0
    0.9922   -9.3232   16.5995 O   0  0  0  0  0  0  0  0  0  0  0  0
    1.5232   -7.6869   27.1182 C   0  0  0  0  0  0  0  0  0  0  0  0
    8.6878   -6.6715   27.7262 N   0  0  0  0  0  0  0  0  0  0  0  0
    6.9911   -8.2423   27.1808 C   0  0  0  0  0  0  0  0  0  0  0  0
    3.8436   -7.2758   16.0578 C   0  0  0  0  0  0  0  0  0  0  0  0
    3.1882   -9.7190   17.2566 C   0  0  0  0  0  0  0  0  0  0  0  0
    5.3488   -6.1737   26.5092 C   0  0  0  0  0  0  0  0  0  0  0  0
    7.4567   -6.9464   27.2858 C   0  0  0  0  0  0  0  0  0  0  0  0
    0.1921   -5.7592   27.1123 C   0  0  0  0  0  0  0  0  0  0  0  0
    3.5517   -7.7407   25.9711 C   0  0  0  0  0  0  0  0  0  0  0  0
  1  4  4  0
  1 22  4  0
  2 20  4  0
  2 27  4  0
  3 12  4  0
  3 23  4  0
  4 25  4  0
  4 28  1  0
  5  8  4  0
  5 17  4  0
  6  7  4  0
  6 16  4  0
  7 18  4  0
  8 27  4  0
  9 13  4  0
  9 23  4  0
 10 11  1  0
 11 14  2  0
 11 27  1  0
 12 19  1  0
 12 24  4  0
 13 24  4  0
 15 18  1  0
 16 25  4  0
 16 26  4  0
 17 20  4  0
 17 28  1  0
 18 21  4  0
 21 26  4  0
 22 26  4  0
M  END
$$$$

 Created by Python create_sdf_string function

 28 30  0  0  0  0  0  0  0  0999 V2000
    5.7174   -8.4529   26.7190 C   0  0  0  0  0  0  0  0  0  0  0  0
    0.3974   -7.0711   27.5149 C   0  0  0  0  0  0  0  0  0  0  0  0
    2.5338   -7.6891   16.0102 C   0  0  0  0  0  0  0  0  0  0  0  0
    4.8690   -7.4380   26.4151 C   0  0  0  0  0  0  0  0  0  0  0  0
    2.3021   -5.6726   26.0378 C   0  0  0  0  0  0  0  0  0  0  0  0
    7.0880   -4.6163   27.0010 C   0  0  0  0  0  0  0  0  0  0  0  0
    8.3117   -4.3698   27.4436 C   0  0  0  0  0  0  0  0  0  0  0  0
    1.1339   -5.0515   26.3541 C   0  0  0  0  0  0  0  0  0  0  0  0
    4.8080   -8.0362   16.7101 C   0  0  0  0  0  0  0  0  0  0  0  0
   -1.2173   -3.9294   26.9717 O   0  0  0  0  0  0  0  0  0  0  0  0
   -1.0025   -5.0942   27.4586 C   0  0  0  0  0  0  0  0  0  0  0  0
    2.2474   -8.9123   16.6273 C   0  0  0  0  0  0  0  0  0  0  0  0
    4.4957   -9.2636   17.3041 C   0  0  0  0  0  0  0  0  0  0  0  0
   -1.8070   -5.6086   28.1920 O   0  0  0  0  0  0  0  0  0  0  0  0
   10.4296   -5.1799   28.3140 C   0  0  0  0  0  0  0  0  0  0  0  0
    6.6017   -5.9004   26.9187 C   0  0  0  0  0  0  0  0  0  0  0  0
    2.4761   -6.9940   26.4111 N   0  0  0  0  0  0  0  0  0  0  0  0
    9.1353   -5.4053   27.8239 C   0  0  0  0  0  0  0  0  0  0  0  0
    0.9922   -9.3232   16.5995 O   0  0  0  0  0  0  0  0  0  0  0  0
    1.5232   -7.6869   27.1182 C   0  0  0  0  0  0  0  0  0  0  0  0
    8.6878   -6.6715   27.7262 N   0  0  0  0  0  0  0  0  0  0  0  0
    6.9911   -8.2423   27.1808 C   0  0  0  0  0  0  0  0  0  0  0  0
    3.8436   -7.2758   16.0578 C   0  0  0  0  0  0  0  0  0  0  0  0
    3.1882   -9.7190   17.2566 C   0  0  0  0  0  0  0  0  0  0  0  0
    5.3488   -6.1737   26.5092 C   0  0  0  0  0  0  0  0  0  0  0  0
    7.4567   -6.9464   27.2858 C   0  0  0  0  0  0  0  0  0  0  0  0
    0.1921   -5.7592   27.1123 C   0  0  0  0  0  0  0  0  0  0  0  0
    3.5517   -7.7407   25.9711 C   0  0  0  0  0  0  0  0  0  0  0  0
  1  4  4  0
  1 22  4  0
  2 20  4  0
  2 27  4  0
  3 12  4  0
  3 23  4  0
  4 25  4  0
  4 28  1  0
  5  8  4  0
  5 17  4  0
  6  7  4  0
  6 16  4  0
  7 18  4  0
  8 27  4  0
  9 13  4  0
  9 23  4  0
 10 11  1  0
 11 14  2  0
 11 27  1  0
 12 19  1  0
 12 24  4  0
 13 24  4  0
 15 18  1  0
 16 25  4  0
 16 26  4  0
 17 20  4  0
 17 28  1  0
 18 21  4  0
 21 26  4  0
 22 26  4  0
M  END
$$$$

 Created by Python create_sdf_string function

 28 30  0  0  0  0  0  0  0  0999 V2000
    5.7174   -8.4529   26.7190 C   0  0  0  0  0  0  0  0  0  0  0  0
    0.3974   -7.0711   27.5149 C   0  0  0  0  0  0  0  0  0  0  0  0
    2.5338   -7.6891   16.0102 C   0  0  0  0  0  0  0  0  0  0  0  0
    4.8690   -7.4380   26.4151 C   0  0  0  0  0  0  0  0  0  0  0  0
    2.3021   -5.6726   26.0378 C   0  0  0  0  0  0  0  0  0  0  0  0
    7.0880   -4.6163   27.0010 C   0  0  0  0  0  0  0  0  0  0  0  0
    8.3117   -4.3698   27.4436 C   0  0  0  0  0  0  0  0  0  0  0  0
    1.1339   -5.0515   26.3541 C   0  0  0  0  0  0  0  0  0  0  0  0
    4.8080   -8.0362   16.7101 C   0  0  0  0  0  0  0  0  0  0  0  0
   -1.2173   -3.9294   26.9717 O   0  0  0  0  0  0  0  0  0  0  0  0
   -1.0025   -5.0942   27.4586 C   0  0  0  0  0  0  0  0  0  0  0  0
    2.2474   -8.9123   16.6273 C   0  0  0  0  0  0  0  0  0  0  0  0
    4.4957   -9.2636   17.3041 C   0  0  0  0  0  0  0  0  0  0  0  0
   -1.8070   -5.6086   28.1920 O   0  0  0  0  0  0  0  0  0  0  0  0
   10.4296   -5.1799   28.3140 C   0  0  0  0  0  0  0  0  0  0  0  0
    6.6017   -5.9004   26.9187 C   0  0  0  0  0  0  0  0  0  0  0  0
    2.4761   -6.9940   26.4111 N   0  0  0  0  0  0  0  0  0  0  0  0
    9.1353   -5.4053   27.8239 C   0  0  0  0  0  0  0  0  0  0  0  0
    0.9922   -9.3232   16.5995 O   0  0  0  0  0  0  0  0  0  0  0  0
    1.5232   -7.6869   27.1182 C   0  0  0  0  0  0  0  0  0  0  0  0
    8.6878   -6.6715   27.7262 N   0  0  0  0  0  0  0  0  0  0  0  0
    6.9911   -8.2423   27.1808 C   0  0  0  0  0  0  0  0  0  0  0  0
    3.8436   -7.2758   16.0578 C   0  0  0  0  0  0  0  0  0  0  0  0
    3.1882   -9.7190   17.2566 C   0  0  0  0  0  0  0  0  0  0  0  0
    5.3488   -6.1737   26.5092 C   0  0  0  0  0  0  0  0  0  0  0  0
    7.4567   -6.9464   27.2858 C   0  0  0  0  0  0  0  0  0  0  0  0
    0.1921   -5.7592   27.1123 C   0  0  0  0  0  0  0  0  0  0  0  0
    3.5517   -7.7407   25.9711 C   0  0  0  0  0  0  0  0  0  0  0  0
  1  4  4  0
  1 22  4  0
  2 20  4  0
  2 27  4  0
  3 12  4  0
  3 23  4  0
  4 25  4  0
  4 28  1  0
  5  8  4  0
  5 17  4  0
  6  7  4  0
  6 16  4  0
  7 18  4  0
  8 27  4  0
  9 13  4  0
  9 23  4  0
 10 11  1  0
 11 14  2  0
 11 27  1  0
 12 19  1  0
 12 24  4  0
 13 24  4  0
 15 18  1  0
 16 25  4  0
 16 26  4  0
 17 20  4  0
 17 28  1  0
 18 21  4  0
 21 26  4  0
 22 26  4  0
M  END
$$$$

 Created by Python create_sdf_string function

 28 30  0  0  0  0  0  0  0  0999 V2000
    5.7174   -8.4529   26.7190 C   0  0  0  0  0  0  0  0  0  0  0  0
    0.3974   -7.0711   27.5149 C   0  0  0  0  0  0  0  0  0  0  0  0
    2.5338   -7.6891   16.0102 C   0  0  0  0  0  0  0  0  0  0  0  0
    4.8690   -7.4380   26.4151 C   0  0  0  0  0  0  0  0  0  0  0  0
    2.3021   -5.6726   26.0378 C   0  0  0  0  0  0  0  0  0  0  0  0
    7.0880   -4.6163   27.0010 C   0  0  0  0  0  0  0  0  0  0  0  0
    8.3117   -4.3698   27.4436 C   0  0  0  0  0  0  0  0  0  0  0  0
    1.1339   -5.0515   26.3541 C   0  0  0  0  0  0  0  0  0  0  0  0
    4.8080   -8.0362   16.7101 C   0  0  0  0  0  0  0  0  0  0  0  0
   -1.2173   -3.9294   26.9717 O   0  0  0  0  0  0  0  0  0  0  0  0
   -1.0025   -5.0942   27.4586 C   0  0  0  0  0  0  0  0  0  0  0  0
    2.2474   -8.9123   16.6273 C   0  0  0  0  0  0  0  0  0  0  0  0
    4.4957   -9.2636   17.3041 C   0  0  0  0  0  0  0  0  0  0  0  0
   -1.8070   -5.6086   28.1920 O   0  0  0  0  0  0  0  0  0  0  0  0
   10.4296   -5.1799   28.3140 C   0  0  0  0  0  0  0  0  0  0  0  0
    6.6017   -5.9004   26.9187 C   0  0  0  0  0  0  0  0  0  0  0  0
    2.4761   -6.9940   26.4111 N   0  0  0  0  0  0  0  0  0  0  0  0
    9.1353   -5.4053   27.8239 C   0  0  0  0  0  0  0  0  0  0  0  0
    0.9922   -9.3232   16.5995 O   0  0  0  0  0  0  0  0  0  0  0  0
    1.5232   -7.6869   27.1182 C   0  0  0  0  0  0  0  0  0  0  0  0
    8.6878   -6.6715   27.7262 N   0  0  0  0  0  0  0  0  0  0  0  0
    6.9911   -8.2423   27.1808 C   0  0  0  0  0  0  0  0  0  0  0  0
    3.8436   -7.2758   16.0578 C   0  0  0  0  0  0  0  0  0  0  0  0
    3.1882   -9.7190   17.2566 C   0  0  0  0  0  0  0  0  0  0  0  0
    5.3488   -6.1737   26.5092 C   0  0  0  0  0  0  0  0  0  0  0  0
    7.4567   -6.9464   27.2858 C   0  0  0  0  0  0  0  0  0  0  0  0
    0.1921   -5.7592   27.1123 C   0  0  0  0  0  0  0  0  0  0  0  0
    3.5517   -7.7407   25.9711 C   0  0  0  0  0  0  0  0  0  0  0  0
  1  4  4  0
  1 22  4  0
  2 20  4  0
  2 27  4  0
  3 12  4  0
  3 23  4  0
  4 25  4  0
  4 28  1  0
  5  8  4  0
  5 17  4  0
  6  7  4  0
  6 16  4  0
  7 18  4  0
  8 27  4  0
  9 13  4  0
  9 23  4  0
 10 11  1  0
 11 14  2  0
 11 27  1  0
 12 19  1  0
 12 24  4  0
 13 24  4  0
 15 18  1  0
 16 25  4  0
 16 26  4  0
 17 20  4  0
 17 28  1  0
 18 21  4  0
 21 26  4  0
 22 26  4  0
M  END
$$$$

 Created by Python create_sdf_string function

 28 30  0  0  0  0  0  0  0  0999 V2000
    5.7174   -8.4529   26.7190 C   0  0  0  0  0  0  0  0  0  0  0  0
    0.3974   -7.0711   27.5149 C   0  0  0  0  0  0  0  0  0  0  0  0
    2.5338   -7.6891   16.0102 C   0  0  0  0  0  0  0  0  0  0  0  0
    4.8690   -7.4380   26.4151 C   0  0  0  0  0  0  0  0  0  0  0  0
    2.3021   -5.6726   26.0378 C   0  0  0  0  0  0  0  0  0  0  0  0
    7.0880   -4.6163   27.0010 C   0  0  0  0  0  0  0  0  0  0  0  0
    8.3117   -4.3698   27.4436 C   0  0  0  0  0  0  0  0  0  0  0  0
    1.1339   -5.0515   26.3541 C   0  0  0  0  0  0  0  0  0  0  0  0
    4.8080   -8.0362   16.7101 C   0  0  0  0  0  0  0  0  0  0  0  0
   -1.2173   -3.9294   26.9717 O   0  0  0  0  0  0  0  0  0  0  0  0
   -1.0025   -5.0942   27.4586 C   0  0  0  0  0  0  0  0  0  0  0  0
    2.2474   -8.9123   16.6273 C   0  0  0  0  0  0  0  0  0  0  0  0
    4.4957   -9.2636   17.3041 C   0  0  0  0  0  0  0  0  0  0  0  0
   -1.8070   -5.6086   28.1920 O   0  0  0  0  0  0  0  0  0  0  0  0
   10.4296   -5.1799   28.3140 C   0  0  0  0  0  0  0  0  0  0  0  0
    6.6017   -5.9004   26.9187 C   0  0  0  0  0  0  0  0  0  0  0  0
    2.4761   -6.9940   26.4111 N   0  0  0  0  0  0  0  0  0  0  0  0
    9.1353   -5.4053   27.8239 C   0  0  0  0  0  0  0  0  0  0  0  0
    0.9922   -9.3232   16.5995 O   0  0  0  0  0  0  0  0  0  0  0  0
    1.5232   -7.6869   27.1182 C   0  0  0  0  0  0  0  0  0  0  0  0
    8.6878   -6.6715   27.7262 N   0  0  0  0  0  0  0  0  0  0  0  0
    6.9911   -8.2423   27.1808 C   0  0  0  0  0  0  0  0  0  0  0  0
    3.8436   -7.2758   16.0578 C   0  0  0  0  0  0  0  0  0  0  0  0
    3.1882   -9.7190   17.2566 C   0  0  0  0  0  0  0  0  0  0  0  0
    5.3488   -6.1737   26.5092 C   0  0  0  0  0  0  0  0  0  0  0  0
    7.4567   -6.9464   27.2858 C   0  0  0  0  0  0  0  0  0  0  0  0
    0.1921   -5.7592   27.1123 C   0  0  0  0  0  0  0  0  0  0  0  0
    3.5517   -7.7407   25.9711 C   0  0  0  0  0  0  0  0  0  0  0  0
  1  4  4  0
  1 22  4  0
  2 20  4  0
  2 27  4  0
  3 12  4  0
  3 23  4  0
  4 25  4  0
  4 28  1  0
  5  8  4  0
  5 17  4  0
  6  7  4  0
  6 16  4  0
  7 18  4  0
  8 27  4  0
  9 13  4  0
  9 23  4  0
 10 11  1  0
 11 14  2  0
 11 27  1  0
 12 19  1  0
 12 24  4  0
 13 24  4  0
 15 18  1  0
 16 25  4  0
 16 26  4  0
 17 20  4  0
 17 28  1  0
 18 21  4  0
 21 26  4  0
 22 26  4  0
M  END
$$$$

 Created by Python create_sdf_string function

 28 30  0  0  0  0  0  0  0  0999 V2000
    5.7174   -8.4529   26.7190 C   0  0  0  0  0  0  0  0  0  0  0  0
    0.3974   -7.0711   27.5149 C   0  0  0  0  0  0  0  0  0  0  0  0
    2.5338   -7.6891   16.0102 C   0  0  0  0  0  0  0  0  0  0  0  0
    4.8690   -7.4380   26.4151 C   0  0  0  0  0  0  0  0  0  0  0  0
    2.3021   -5.6726   26.0378 C   0  0  0  0  0  0  0  0  0  0  0  0
    7.0880   -4.6163   27.0010 C   0  0  0  0  0  0  0  0  0  0  0  0
    8.3117   -4.3698   27.4436 C   0  0  0  0  0  0  0  0  0  0  0  0
    1.1339   -5.0515   26.3541 C   0  0  0  0  0  0  0  0  0  0  0  0
    4.8080   -8.0362   16.7101 C   0  0  0  0  0  0  0  0  0  0  0  0
   -1.2173   -3.9294   26.9717 O   0  0  0  0  0  0  0  0  0  0  0  0
   -1.0025   -5.0942   27.4586 C   0  0  0  0  0  0  0  0  0  0  0  0
    2.2474   -8.9123   16.6273 C   0  0  0  0  0  0  0  0  0  0  0  0
    4.4957   -9.2636   17.3041 C   0  0  0  0  0  0  0  0  0  0  0  0
   -1.8070   -5.6086   28.1920 O   0  0  0  0  0  0  0  0  0  0  0  0
   10.4296   -5.1799   28.3140 C   0  0  0  0  0  0  0  0  0  0  0  0
    6.6017   -5.9004   26.9187 C   0  0  0  0  0  0  0  0  0  0  0  0
    2.4761   -6.9940   26.4111 N   0  0  0  0  0  0  0  0  0  0  0  0
    9.1353   -5.4053   27.8239 C   0  0  0  0  0  0  0  0  0  0  0  0
    0.9922   -9.3232   16.5995 O   0  0  0  0  0  0  0  0  0  0  0  0
    1.5232   -7.6869   27.1182 C   0  0  0  0  0  0  0  0  0  0  0  0
    8.6878   -6.6715   27.7262 N   0  0  0  0  0  0  0  0  0  0  0  0
    6.9911   -8.2423   27.1808 C   0  0  0  0  0  0  0  0  0  0  0  0
    3.8436   -7.2758   16.0578 C   0  0  0  0  0  0  0  0  0  0  0  0
    3.1882   -9.7190   17.2566 C   0  0  0  0  0  0  0  0  0  0  0  0
    5.3488   -6.1737   26.5092 C   0  0  0  0  0  0  0  0  0  0  0  0
    7.4567   -6.9464   27.2858 C   0  0  0  0  0  0  0  0  0  0  0  0
    0.1921   -5.7592   27.1123 C   0  0  0  0  0  0  0  0  0  0  0  0
    3.5517   -7.7407   25.9711 C   0  0  0  0  0  0  0  0  0  0  0  0
  1  4  4  0
  1 22  4  0
  2 20  4  0
  2 27  4  0
  3 12  4  0
  3 23  4  0
  4 25  4  0
  4 28  1  0
  5  8  4  0
  5 17  4  0
  6  7  4  0
  6 16  4  0
  7 18  4  0
  8 27  4  0
  9 13  4  0
  9 23  4  0
 10 11  1  0
 11 14  2  0
 11 27  1  0
 12 19  1  0
 12 24  4  0
 13 24  4  0
 15 18  1  0
 16 25  4  0
 16 26  4  0
 17 20  4  0
 17 28  1  0
 18 21  4  0
 21 26  4  0
 22 26  4  0
M  END
$$$$

 Created by Python create_sdf_string function

 28 30  0  0  0  0  0  0  0  0999 V2000
    5.7174   -8.4529   26.7190 C   0  0  0  0  0  0  0  0  0  0  0  0
    0.3974   -7.0711   27.5149 C   0  0  0  0  0  0  0  0  0  0  0  0
    2.5338   -7.6891   16.0102 C   0  0  0  0  0  0  0  0  0  0  0  0
    4.8690   -7.4380   26.4151 C   0  0  0  0  0  0  0  0  0  0  0  0
    2.3021   -5.6726   26.0378 C   0  0  0  0  0  0  0  0  0  0  0  0
    7.0880   -4.6163   27.0010 C   0  0  0  0  0  0  0  0  0  0  0  0
    8.3117   -4.3698   27.4436 C   0  0  0  0  0  0  0  0  0  0  0  0
    1.1339   -5.0515   26.3541 C   0  0  0  0  0  0  0  0  0  0  0  0
    4.8080   -8.0362   16.7101 C   0  0  0  0  0  0  0  0  0  0  0  0
   -1.2173   -3.9294   26.9717 O   0  0  0  0  0  0  0  0  0  0  0  0
   -1.0025   -5.0942   27.4586 C   0  0  0  0  0  0  0  0  0  0  0  0
    2.2474   -8.9123   16.6273 C   0  0  0  0  0  0  0  0  0  0  0  0
    4.4957   -9.2636   17.3041 C   0  0  0  0  0  0  0  0  0  0  0  0
   -1.8070   -5.6086   28.1920 O   0  0  0  0  0  0  0  0  0  0  0  0
   10.4296   -5.1799   28.3140 C   0  0  0  0  0  0  0  0  0  0  0  0
    6.6017   -5.9004   26.9187 C   0  0  0  0  0  0  0  0  0  0  0  0
    2.4761   -6.9940   26.4111 N   0  0  0  0  0  0  0  0  0  0  0  0
    9.1353   -5.4053   27.8239 C   0  0  0  0  0  0  0  0  0  0  0  0
    0.9922   -9.3232   16.5995 O   0  0  0  0  0  0  0  0  0  0  0  0
    1.5232   -7.6869   27.1182 C   0  0  0  0  0  0  0  0  0  0  0  0
    8.6878   -6.6715   27.7262 N   0  0  0  0  0  0  0  0  0  0  0  0
    6.9911   -8.2423   27.1808 C   0  0  0  0  0  0  0  0  0  0  0  0
    3.8436   -7.2758   16.0578 C   0  0  0  0  0  0  0  0  0  0  0  0
    3.1882   -9.7190   17.2566 C   0  0  0  0  0  0  0  0  0  0  0  0
    5.3488   -6.1737   26.5092 C   0  0  0  0  0  0  0  0  0  0  0  0
    7.4567   -6.9464   27.2858 C   0  0  0  0  0  0  0  0  0  0  0  0
    0.1921   -5.7592   27.1123 C   0  0  0  0  0  0  0  0  0  0  0  0
    3.5517   -7.7407   25.9711 C   0  0  0  0  0  0  0  0  0  0  0  0
  1  4  4  0
  1 22  4  0
  2 20  4  0
  2 27  4  0
  3 12  4  0
  3 23  4  0
  4 25  4  0
  4 28  1  0
  5  8  4  0
  5 17  4  0
  6  7  4  0
  6 16  4  0
  7 18  4  0
  8 27  4  0
  9 13  4  0
  9 23  4  0
 10 11  1  0
 11 14  2  0
 11 27  1  0
 12 19  1  0
 12 24  4  0
 13 24  4  0
 15 18  1  0
 16 25  4  0
 16 26  4  0
 17 20  4  0
 17 28  1  0
 18 21  4  0
 21 26  4  0
 22 26  4  0
M  END
$$$$

 Created by Python create_sdf_string function

 28 30  0  0  0  0  0  0  0  0999 V2000
    5.7174   -8.4529   26.7190 C   0  0  0  0  0  0  0  0  0  0  0  0
    0.3974   -7.0711   27.5149 C   0  0  0  0  0  0  0  0  0  0  0  0
    2.5338   -7.6891   16.0102 C   0  0  0  0  0  0  0  0  0  0  0  0
    4.8690   -7.4380   26.4151 C   0  0  0  0  0  0  0  0  0  0  0  0
    2.3021   -5.6726   26.0378 C   0  0  0  0  0  0  0  0  0  0  0  0
    7.0880   -4.6163   27.0010 C   0  0  0  0  0  0  0  0  0  0  0  0
    8.3117   -4.3698   27.4436 C   0  0  0  0  0  0  0  0  0  0  0  0
    1.1339   -5.0515   26.3541 C   0  0  0  0  0  0  0  0  0  0  0  0
    4.8080   -8.0362   16.7101 C   0  0  0  0  0  0  0  0  0  0  0  0
   -1.2173   -3.9294   26.9717 O   0  0  0  0  0  0  0  0  0  0  0  0
   -1.0025   -5.0942   27.4586 C   0  0  0  0  0  0  0  0  0  0  0  0
    2.2474   -8.9123   16.6273 C   0  0  0  0  0  0  0  0  0  0  0  0
    4.4957   -9.2636   17.3041 C   0  0  0  0  0  0  0  0  0  0  0  0
   -1.8070   -5.6086   28.1920 O   0  0  0  0  0  0  0  0  0  0  0  0
   10.4296   -5.1799   28.3140 C   0  0  0  0  0  0  0  0  0  0  0  0
    6.6017   -5.9004   26.9187 C   0  0  0  0  0  0  0  0  0  0  0  0
    2.4761   -6.9940   26.4111 N   0  0  0  0  0  0  0  0  0  0  0  0
    9.1353   -5.4053   27.8239 C   0  0  0  0  0  0  0  0  0  0  0  0
    0.9922   -9.3232   16.5995 O   0  0  0  0  0  0  0  0  0  0  0  0
    1.5232   -7.6869   27.1182 C   0  0  0  0  0  0  0  0  0  0  0  0
    8.6878   -6.6715   27.7262 N   0  0  0  0  0  0  0  0  0  0  0  0
    6.9911   -8.2423   27.1808 C   0  0  0  0  0  0  0  0  0  0  0  0
    3.8436   -7.2758   16.0578 C   0  0  0  0  0  0  0  0  0  0  0  0
    3.1882   -9.7190   17.2566 C   0  0  0  0  0  0  0  0  0  0  0  0
    5.3488   -6.1737   26.5092 C   0  0  0  0  0  0  0  0  0  0  0  0
    7.4567   -6.9464   27.2858 C   0  0  0  0  0  0  0  0  0  0  0  0
    0.1921   -5.7592   27.1123 C   0  0  0  0  0  0  0  0  0  0  0  0
    3.5517   -7.7407   25.9711 C   0  0  0  0  0  0  0  0  0  0  0  0
  1  4  4  0
  1 22  4  0
  2 20  4  0
  2 27  4  0
  3 12  4  0
  3 23  4  0
  4 25  4  0
  4 28  1  0
  5  8  4  0
  5 17  4  0
  6  7  4  0
  6 16  4  0
  7 18  4  0
  8 27  4  0
  9 13  4  0
  9 23  4  0
 10 11  1  0
 11 14  2  0
 11 27  1  0
 12 19  1  0
 12 24  4  0
 13 24  4  0
 15 18  1  0
 16 25  4  0
 16 26  4  0
 17 20  4  0
 17 28  1  0
 18 21  4  0
 21 26  4  0
 22 26  4  0
M  END
$$$$

 Created by Python create_sdf_string function

 28 30  0  0  0  0  0  0  0  0999 V2000
    5.7174   -8.4529   26.7190 C   0  0  0  0  0  0  0  0  0  0  0  0
    0.3974   -7.0711   27.5149 C   0  0  0  0  0  0  0  0  0  0  0  0
    2.5338   -7.6891   16.0102 C   0  0  0  0  0  0  0  0  0  0  0  0
    4.8690   -7.4380   26.4151 C   0  0  0  0  0  0  0  0  0  0  0  0
    2.3021   -5.6726   26.0378 C   0  0  0  0  0  0  0  0  0  0  0  0
    7.0880   -4.6163   27.0010 C   0  0  0  0  0  0  0  0  0  0  0  0
    8.3117   -4.3698   27.4436 C   0  0  0  0  0  0  0  0  0  0  0  0
    1.1339   -5.0515   26.3541 C   0  0  0  0  0  0  0  0  0  0  0  0
    4.8080   -8.0362   16.7101 C   0  0  0  0  0  0  0  0  0  0  0  0
   -1.2173   -3.9294   26.9717 O   0  0  0  0  0  0  0  0  0  0  0  0
   -1.0025   -5.0942   27.4586 C   0  0  0  0  0  0  0  0  0  0  0  0
    2.2474   -8.9123   16.6273 C   0  0  0  0  0  0  0  0  0  0  0  0
    4.4957   -9.2636   17.3041 C   0  0  0  0  0  0  0  0  0  0  0  0
   -1.8070   -5.6086   28.1920 O   0  0  0  0  0  0  0  0  0  0  0  0
   10.4296   -5.1799   28.3140 C   0  0  0  0  0  0  0  0  0  0  0  0
    6.6017   -5.9004   26.9187 C   0  0  0  0  0  0  0  0  0  0  0  0
    2.4761   -6.9940   26.4111 N   0  0  0  0  0  0  0  0  0  0  0  0
    9.1353   -5.4053   27.8239 C   0  0  0  0  0  0  0  0  0  0  0  0
    0.9922   -9.3232   16.5995 O   0  0  0  0  0  0  0  0  0  0  0  0
    1.5232   -7.6869   27.1182 C   0  0  0  0  0  0  0  0  0  0  0  0
    8.6878   -6.6715   27.7262 N   0  0  0  0  0  0  0  0  0  0  0  0
    6.9911   -8.2423   27.1808 C   0  0  0  0  0  0  0  0  0  0  0  0
    3.8436   -7.2758   16.0578 C   0  0  0  0  0  0  0  0  0  0  0  0
    3.1882   -9.7190   17.2566 C   0  0  0  0  0  0  0  0  0  0  0  0
    5.3488   -6.1737   26.5092 C   0  0  0  0  0  0  0  0  0  0  0  0
    7.4567   -6.9464   27.2858 C   0  0  0  0  0  0  0  0  0  0  0  0
    0.1921   -5.7592   27.1123 C   0  0  0  0  0  0  0  0  0  0  0  0
    3.5517   -7.7407   25.9711 C   0  0  0  0  0  0  0  0  0  0  0  0
  1  4  4  0
  1 22  4  0
  2 20  4  0
  2 27  4  0
  3 12  4  0
  3 23  4  0
  4 25  4  0
  4 28  1  0
  5  8  4  0
  5 17  4  0
  6  7  4  0
  6 16  4  0
  7 18  4  0
  8 27  4  0
  9 13  4  0
  9 23  4  0
 10 11  1  0
 11 14  2  0
 11 27  1  0
 12 19  1  0
 12 24  4  0
 13 24  4  0
 15 18  1  0
 16 25  4  0
 16 26  4  0
 17 20  4  0
 17 28  1  0
 18 21  4  0
 21 26  4  0
 22 26  4  0
M  END
$$$$

 Created by Python create_sdf_string function

 28 30  0  0  0  0  0  0  0  0999 V2000
    5.7174   -8.4529   26.7190 C   0  0  0  0  0  0  0  0  0  0  0  0
    0.3974   -7.0711   27.5149 C   0  0  0  0  0  0  0  0  0  0  0  0
    2.5338   -7.6891   16.0102 C   0  0  0  0  0  0  0  0  0  0  0  0
    4.8690   -7.4380   26.4151 C   0  0  0  0  0  0  0  0  0  0  0  0
    2.3021   -5.6726   26.0378 C   0  0  0  0  0  0  0  0  0  0  0  0
    7.0880   -4.6163   27.0010 C   0  0  0  0  0  0  0  0  0  0  0  0
    8.3117   -4.3698   27.4436 C   0  0  0  0  0  0  0  0  0  0  0  0
    1.1339   -5.0515   26.3541 C   0  0  0  0  0  0  0  0  0  0  0  0
    4.8080   -8.0362   16.7101 C   0  0  0  0  0  0  0  0  0  0  0  0
   -1.2173   -3.9294   26.9717 O   0  0  0  0  0  0  0  0  0  0  0  0
   -1.0025   -5.0942   27.4586 C   0  0  0  0  0  0  0  0  0  0  0  0
    2.2474   -8.9123   16.6273 C   0  0  0  0  0  0  0  0  0  0  0  0
    4.4957   -9.2636   17.3041 C   0  0  0  0  0  0  0  0  0  0  0  0
   -1.8070   -5.6086   28.1920 O   0  0  0  0  0  0  0  0  0  0  0  0
   10.4296   -5.1799   28.3140 C   0  0  0  0  0  0  0  0  0  0  0  0
    6.6017   -5.9004   26.9187 C   0  0  0  0  0  0  0  0  0  0  0  0
    2.4761   -6.9940   26.4111 N   0  0  0  0  0  0  0  0  0  0  0  0
    9.1353   -5.4053   27.8239 C   0  0  0  0  0  0  0  0  0  0  0  0
    0.9922   -9.3232   16.5995 O   0  0  0  0  0  0  0  0  0  0  0  0
    1.5232   -7.6869   27.1182 C   0  0  0  0  0  0  0  0  0  0  0  0
    8.6878   -6.6715   27.7262 N   0  0  0  0  0  0  0  0  0  0  0  0
    6.9911   -8.2423   27.1808 C   0  0  0  0  0  0  0  0  0  0  0  0
    3.8436   -7.2758   16.0578 C   0  0  0  0  0  0  0  0  0  0  0  0
    3.1882   -9.7190   17.2566 C   0  0  0  0  0  0  0  0  0  0  0  0
    5.3488   -6.1737   26.5092 C   0  0  0  0  0  0  0  0  0  0  0  0
    7.4567   -6.9464   27.2858 C   0  0  0  0  0  0  0  0  0  0  0  0
    0.1921   -5.7592   27.1123 C   0  0  0  0  0  0  0  0  0  0  0  0
    3.5517   -7.7407   25.9711 C   0  0  0  0  0  0  0  0  0  0  0  0
  1  4  4  0
  1 22  4  0
  2 20  4  0
  2 27  4  0
  3 12  4  0
  3 23  4  0
  4 25  4  0
  4 28  1  0
  5  8  4  0
  5 17  4  0
  6  7  4  0
  6 16  4  0
  7 18  4  0
  8 27  4  0
  9 13  4  0
  9 23  4  0
 10 11  1  0
 11 14  2  0
 11 27  1  0
 12 19  1  0
 12 24  4  0
 13 24  4  0
 15 18  1  0
 16 25  4  0
 16 26  4  0
 17 20  4  0
 17 28  1  0
 18 21  4  0
 21 26  4  0
 22 26  4  0
M  END
$$$$

 Created by Python create_sdf_string function

 28 30  0  0  0  0  0  0  0  0999 V2000
    5.7174   -8.4529   26.7190 C   0  0  0  0  0  0  0  0  0  0  0  0
    0.3974   -7.0711   27.5149 C   0  0  0  0  0  0  0  0  0  0  0  0
    2.5338   -7.6891   16.0102 C   0  0  0  0  0  0  0  0  0  0  0  0
    4.8690   -7.4380   26.4151 C   0  0  0  0  0  0  0  0  0  0  0  0
    2.3021   -5.6726   26.0378 C   0  0  0  0  0  0  0  0  0  0  0  0
    7.0880   -4.6163   27.0010 C   0  0  0  0  0  0  0  0  0  0  0  0
    8.3117   -4.3698   27.4436 C   0  0  0  0  0  0  0  0  0  0  0  0
    1.1339   -5.0515   26.3541 C   0  0  0  0  0  0  0  0  0  0  0  0
    4.8080   -8.0362   16.7101 C   0  0  0  0  0  0  0  0  0  0  0  0
   -1.2173   -3.9294   26.9717 O   0  0  0  0  0  0  0  0  0  0  0  0
   -1.0025   -5.0942   27.4586 C   0  0  0  0  0  0  0  0  0  0  0  0
    2.2474   -8.9123   16.6273 C   0  0  0  0  0  0  0  0  0  0  0  0
    4.4957   -9.2636   17.3041 C   0  0  0  0  0  0  0  0  0  0  0  0
   -1.8070   -5.6086   28.1920 O   0  0  0  0  0  0  0  0  0  0  0  0
   10.4296   -5.1799   28.3140 C   0  0  0  0  0  0  0  0  0  0  0  0
    6.6017   -5.9004   26.9187 C   0  0  0  0  0  0  0  0  0  0  0  0
    2.4761   -6.9940   26.4111 N   0  0  0  0  0  0  0  0  0  0  0  0
    9.1353   -5.4053   27.8239 C   0  0  0  0  0  0  0  0  0  0  0  0
    0.9922   -9.3232   16.5995 O   0  0  0  0  0  0  0  0  0  0  0  0
    1.5232   -7.6869   27.1182 C   0  0  0  0  0  0  0  0  0  0  0  0
    8.6878   -6.6715   27.7262 N   0  0  0  0  0  0  0  0  0  0  0  0
    6.9911   -8.2423   27.1808 C   0  0  0  0  0  0  0  0  0  0  0  0
    3.8436   -7.2758   16.0578 C   0  0  0  0  0  0  0  0  0  0  0  0
    3.1882   -9.7190   17.2566 C   0  0  0  0  0  0  0  0  0  0  0  0
    5.3488   -6.1737   26.5092 C   0  0  0  0  0  0  0  0  0  0  0  0
    7.4567   -6.9464   27.2858 C   0  0  0  0  0  0  0  0  0  0  0  0
    0.1921   -5.7592   27.1123 C   0  0  0  0  0  0  0  0  0  0  0  0
    3.5517   -7.7407   25.9711 C   0  0  0  0  0  0  0  0  0  0  0  0
  1  4  4  0
  1 22  4  0
  2 20  4  0
  2 27  4  0
  3 12  4  0
  3 23  4  0
  4 25  4  0
  4 28  1  0
  5  8  4  0
  5 17  4  0
  6  7  4  0
  6 16  4  0
  7 18  4  0
  8 27  4  0
  9 13  4  0
  9 23  4  0
 10 11  1  0
 11 14  2  0
 11 27  1  0
 12 19  1  0
 12 24  4  0
 13 24  4  0
 15 18  1  0
 16 25  4  0
 16 26  4  0
 17 20  4  0
 17 28  1  0
 18 21  4  0
 21 26  4  0
 22 26  4  0
M  END
$$$$

 Created by Python create_sdf_string function

 28 30  0  0  0  0  0  0  0  0999 V2000
    5.7174   -8.4529   26.7190 C   0  0  0  0  0  0  0  0  0  0  0  0
    0.3974   -7.0711   27.5149 C   0  0  0  0  0  0  0  0  0  0  0  0
    2.5338   -7.6891   16.0102 C   0  0  0  0  0  0  0  0  0  0  0  0
    4.8690   -7.4380   26.4151 C   0  0  0  0  0  0  0  0  0  0  0  0
    2.3021   -5.6726   26.0378 C   0  0  0  0  0  0  0  0  0  0  0  0
    7.0880   -4.6163   27.0010 C   0  0  0  0  0  0  0  0  0  0  0  0
    8.3117   -4.3698   27.4436 C   0  0  0  0  0  0  0  0  0  0  0  0
    1.1339   -5.0515   26.3541 C   0  0  0  0  0  0  0  0  0  0  0  0
    4.8080   -8.0362   16.7101 C   0  0  0  0  0  0  0  0  0  0  0  0
   -1.2173   -3.9294   26.9717 O   0  0  0  0  0  0  0  0  0  0  0  0
   -1.0025   -5.0942   27.4586 C   0  0  0  0  0  0  0  0  0  0  0  0
    2.2474   -8.9123   16.6273 C   0  0  0  0  0  0  0  0  0  0  0  0
    4.4957   -9.2636   17.3041 C   0  0  0  0  0  0  0  0  0  0  0  0
   -1.8070   -5.6086   28.1920 O   0  0  0  0  0  0  0  0  0  0  0  0
   10.4296   -5.1799   28.3140 C   0  0  0  0  0  0  0  0  0  0  0  0
    6.6017   -5.9004   26.9187 C   0  0  0  0  0  0  0  0  0  0  0  0
    2.4761   -6.9940   26.4111 N   0  0  0  0  0  0  0  0  0  0  0  0
    9.1353   -5.4053   27.8239 C   0  0  0  0  0  0  0  0  0  0  0  0
    0.9922   -9.3232   16.5995 O   0  0  0  0  0  0  0  0  0  0  0  0
    1.5232   -7.6869   27.1182 C   0  0  0  0  0  0  0  0  0  0  0  0
    8.6878   -6.6715   27.7262 N   0  0  0  0  0  0  0  0  0  0  0  0
    6.9911   -8.2423   27.1808 C   0  0  0  0  0  0  0  0  0  0  0  0
    3.8436   -7.2758   16.0578 C   0  0  0  0  0  0  0  0  0  0  0  0
    3.1882   -9.7190   17.2566 C   0  0  0  0  0  0  0  0  0  0  0  0
    5.3488   -6.1737   26.5092 C   0  0  0  0  0  0  0  0  0  0  0  0
    7.4567   -6.9464   27.2858 C   0  0  0  0  0  0  0  0  0  0  0  0
    0.1921   -5.7592   27.1123 C   0  0  0  0  0  0  0  0  0  0  0  0
    3.5517   -7.7407   25.9711 C   0  0  0  0  0  0  0  0  0  0  0  0
  1  4  4  0
  1 22  4  0
  2 20  4  0
  2 27  4  0
  3 12  4  0
  3 23  4  0
  4 25  4  0
  4 28  1  0
  5  8  4  0
  5 17  4  0
  6  7  4  0
  6 16  4  0
  7 18  4  0
  8 27  4  0
  9 13  4  0
  9 23  4  0
 10 11  1  0
 11 14  2  0
 11 27  1  0
 12 19  1  0
 12 24  4  0
 13 24  4  0
 15 18  1  0
 16 25  4  0
 16 26  4  0
 17 20  4  0
 17 28  1  0
 18 21  4  0
 21 26  4  0
 22 26  4  0
M  END
$$$$

 Created by Python create_sdf_string function

 28 30  0  0  0  0  0  0  0  0999 V2000
    5.7174   -8.4529   26.7190 C   0  0  0  0  0  0  0  0  0  0  0  0
    0.3974   -7.0711   27.5149 C   0  0  0  0  0  0  0  0  0  0  0  0
    2.5338   -7.6891   16.0102 C   0  0  0  0  0  0  0  0  0  0  0  0
    4.8690   -7.4380   26.4151 C   0  0  0  0  0  0  0  0  0  0  0  0
    2.3021   -5.6726   26.0378 C   0  0  0  0  0  0  0  0  0  0  0  0
    7.0880   -4.6163   27.0010 C   0  0  0  0  0  0  0  0  0  0  0  0
    8.3117   -4.3698   27.4436 C   0  0  0  0  0  0  0  0  0  0  0  0
    1.1339   -5.0515   26.3541 C   0  0  0  0  0  0  0  0  0  0  0  0
    4.8080   -8.0362   16.7101 C   0  0  0  0  0  0  0  0  0  0  0  0
   -1.2173   -3.9294   26.9717 O   0  0  0  0  0  0  0  0  0  0  0  0
   -1.0025   -5.0942   27.4586 C   0  0  0  0  0  0  0  0  0  0  0  0
    2.2474   -8.9123   16.6273 C   0  0  0  0  0  0  0  0  0  0  0  0
    4.4957   -9.2636   17.3041 C   0  0  0  0  0  0  0  0  0  0  0  0
   -1.8070   -5.6086   28.1920 O   0  0  0  0  0  0  0  0  0  0  0  0
   10.4296   -5.1799   28.3140 C   0  0  0  0  0  0  0  0  0  0  0  0
    6.6017   -5.9004   26.9187 C   0  0  0  0  0  0  0  0  0  0  0  0
    2.4761   -6.9940   26.4111 N   0  0  0  0  0  0  0  0  0  0  0  0
    9.1353   -5.4053   27.8239 C   0  0  0  0  0  0  0  0  0  0  0  0
    0.9922   -9.3232   16.5995 O   0  0  0  0  0  0  0  0  0  0  0  0
    1.5232   -7.6869   27.1182 C   0  0  0  0  0  0  0  0  0  0  0  0
    8.6878   -6.6715   27.7262 N   0  0  0  0  0  0  0  0  0  0  0  0
    6.9911   -8.2423   27.1808 C   0  0  0  0  0  0  0  0  0  0  0  0
    3.8436   -7.2758   16.0578 C   0  0  0  0  0  0  0  0  0  0  0  0
    3.1882   -9.7190   17.2566 C   0  0  0  0  0  0  0  0  0  0  0  0
    5.3488   -6.1737   26.5092 C   0  0  0  0  0  0  0  0  0  0  0  0
    7.4567   -6.9464   27.2858 C   0  0  0  0  0  0  0  0  0  0  0  0
    0.1921   -5.7592   27.1123 C   0  0  0  0  0  0  0  0  0  0  0  0
    3.5517   -7.7407   25.9711 C   0  0  0  0  0  0  0  0  0  0  0  0
  1  4  4  0
  1 22  4  0
  2 20  4  0
  2 27  4  0
  3 12  4  0
  3 23  4  0
  4 25  4  0
  4 28  1  0
  5  8  4  0
  5 17  4  0
  6  7  4  0
  6 16  4  0
  7 18  4  0
  8 27  4  0
  9 13  4  0
  9 23  4  0
 10 11  1  0
 11 14  2  0
 11 27  1  0
 12 19  1  0
 12 24  4  0
 13 24  4  0
 15 18  1  0
 16 25  4  0
 16 26  4  0
 17 20  4  0
 17 28  1  0
 18 21  4  0
 21 26  4  0
 22 26  4  0
M  END
$$$$

 Created by Python create_sdf_string function

 28 30  0  0  0  0  0  0  0  0999 V2000
    5.7174   -8.4529   26.7190 C   0  0  0  0  0  0  0  0  0  0  0  0
    0.3974   -7.0711   27.5149 C   0  0  0  0  0  0  0  0  0  0  0  0
    2.5338   -7.6891   16.0102 C   0  0  0  0  0  0  0  0  0  0  0  0
    4.8690   -7.4380   26.4151 C   0  0  0  0  0  0  0  0  0  0  0  0
    2.3021   -5.6726   26.0378 C   0  0  0  0  0  0  0  0  0  0  0  0
    7.0880   -4.6163   27.0010 C   0  0  0  0  0  0  0  0  0  0  0  0
    8.3117   -4.3698   27.4436 C   0  0  0  0  0  0  0  0  0  0  0  0
    1.1339   -5.0515   26.3541 C   0  0  0  0  0  0  0  0  0  0  0  0
    4.8080   -8.0362   16.7101 C   0  0  0  0  0  0  0  0  0  0  0  0
   -1.2173   -3.9294   26.9717 O   0  0  0  0  0  0  0  0  0  0  0  0
   -1.0025   -5.0942   27.4586 C   0  0  0  0  0  0  0  0  0  0  0  0
    2.2474   -8.9123   16.6273 C   0  0  0  0  0  0  0  0  0  0  0  0
    4.4957   -9.2636   17.3041 C   0  0  0  0  0  0  0  0  0  0  0  0
   -1.8070   -5.6086   28.1920 O   0  0  0  0  0  0  0  0  0  0  0  0
   10.4296   -5.1799   28.3140 C   0  0  0  0  0  0  0  0  0  0  0  0
    6.6017   -5.9004   26.9187 C   0  0  0  0  0  0  0  0  0  0  0  0
    2.4761   -6.9940   26.4111 N   0  0  0  0  0  0  0  0  0  0  0  0
    9.1353   -5.4053   27.8239 C   0  0  0  0  0  0  0  0  0  0  0  0
    0.9922   -9.3232   16.5995 O   0  0  0  0  0  0  0  0  0  0  0  0
    1.5232   -7.6869   27.1182 C   0  0  0  0  0  0  0  0  0  0  0  0
    8.6878   -6.6715   27.7262 N   0  0  0  0  0  0  0  0  0  0  0  0
    6.9911   -8.2423   27.1808 C   0  0  0  0  0  0  0  0  0  0  0  0
    3.8436   -7.2758   16.0578 C   0  0  0  0  0  0  0  0  0  0  0  0
    3.1882   -9.7190   17.2566 C   0  0  0  0  0  0  0  0  0  0  0  0
    5.3488   -6.1737   26.5092 C   0  0  0  0  0  0  0  0  0  0  0  0
    7.4567   -6.9464   27.2858 C   0  0  0  0  0  0  0  0  0  0  0  0
    0.1921   -5.7592   27.1123 C   0  0  0  0  0  0  0  0  0  0  0  0
    3.5517   -7.7407   25.9711 C   0  0  0  0  0  0  0  0  0  0  0  0
  1  4  4  0
  1 22  4  0
  2 20  4  0
  2 27  4  0
  3 12  4  0
  3 23  4  0
  4 25  4  0
  4 28  1  0
  5  8  4  0
  5 17  4  0
  6  7  4  0
  6 16  4  0
  7 18  4  0
  8 27  4  0
  9 13  4  0
  9 23  4  0
 10 11  1  0
 11 14  2  0
 11 27  1  0
 12 19  1  0
 12 24  4  0
 13 24  4  0
 15 18  1  0
 16 25  4  0
 16 26  4  0
 17 20  4  0
 17 28  1  0
 18 21  4  0
 21 26  4  0
 22 26  4  0
M  END
$$$$

 Created by Python create_sdf_string function

 28 30  0  0  0  0  0  0  0  0999 V2000
    5.7174   -8.4529   26.7190 C   0  0  0  0  0  0  0  0  0  0  0  0
    0.3974   -7.0711   27.5149 C   0  0  0  0  0  0  0  0  0  0  0  0
    2.5338   -7.6891   16.0102 C   0  0  0  0  0  0  0  0  0  0  0  0
    4.8690   -7.4380   26.4151 C   0  0  0  0  0  0  0  0  0  0  0  0
    2.3021   -5.6726   26.0378 C   0  0  0  0  0  0  0  0  0  0  0  0
    7.0880   -4.6163   27.0010 C   0  0  0  0  0  0  0  0  0  0  0  0
    8.3117   -4.3698   27.4436 C   0  0  0  0  0  0  0  0  0  0  0  0
    1.1339   -5.0515   26.3541 C   0  0  0  0  0  0  0  0  0  0  0  0
    4.8080   -8.0362   16.7101 C   0  0  0  0  0  0  0  0  0  0  0  0
   -1.2173   -3.9294   26.9717 O   0  0  0  0  0  0  0  0  0  0  0  0
   -1.0025   -5.0942   27.4586 C   0  0  0  0  0  0  0  0  0  0  0  0
    2.2474   -8.9123   16.6273 C   0  0  0  0  0  0  0  0  0  0  0  0
    4.4957   -9.2636   17.3041 C   0  0  0  0  0  0  0  0  0  0  0  0
   -1.8070   -5.6086   28.1920 O   0  0  0  0  0  0  0  0  0  0  0  0
   10.4296   -5.1799   28.3140 C   0  0  0  0  0  0  0  0  0  0  0  0
    6.6017   -5.9004   26.9187 C   0  0  0  0  0  0  0  0  0  0  0  0
    2.4761   -6.9940   26.4111 N   0  0  0  0  0  0  0  0  0  0  0  0
    9.1353   -5.4053   27.8239 C   0  0  0  0  0  0  0  0  0  0  0  0
    0.9922   -9.3232   16.5995 O   0  0  0  0  0  0  0  0  0  0  0  0
    1.5232   -7.6869   27.1182 C   0  0  0  0  0  0  0  0  0  0  0  0
    8.6878   -6.6715   27.7262 N   0  0  0  0  0  0  0  0  0  0  0  0
    6.9911   -8.2423   27.1808 C   0  0  0  0  0  0  0  0  0  0  0  0
    3.8436   -7.2758   16.0578 C   0  0  0  0  0  0  0  0  0  0  0  0
    3.1882   -9.7190   17.2566 C   0  0  0  0  0  0  0  0  0  0  0  0
    5.3488   -6.1737   26.5092 C   0  0  0  0  0  0  0  0  0  0  0  0
    7.4567   -6.9464   27.2858 C   0  0  0  0  0  0  0  0  0  0  0  0
    0.1921   -5.7592   27.1123 C   0  0  0  0  0  0  0  0  0  0  0  0
    3.5517   -7.7407   25.9711 C   0  0  0  0  0  0  0  0  0  0  0  0
  1  4  4  0
  1 22  4  0
  2 20  4  0
  2 27  4  0
  3 12  4  0
  3 23  4  0
  4 25  4  0
  4 28  1  0
  5  8  4  0
  5 17  4  0
  6  7  4  0
  6 16  4  0
  7 18  4  0
  8 27  4  0
  9 13  4  0
  9 23  4  0
 10 11  1  0
 11 14  2  0
 11 27  1  0
 12 19  1  0
 12 24  4  0
 13 24  4  0
 15 18  1  0
 16 25  4  0
 16 26  4  0
 17 20  4  0
 17 28  1  0
 18 21  4  0
 21 26  4  0
 22 26  4  0
M  END
$$$$

 Created by Python create_sdf_string function

 28 30  0  0  0  0  0  0  0  0999 V2000
    5.7174   -8.4529   26.7190 C   0  0  0  0  0  0  0  0  0  0  0  0
    0.3974   -7.0711   27.5149 C   0  0  0  0  0  0  0  0  0  0  0  0
    2.5338   -7.6891   16.0102 C   0  0  0  0  0  0  0  0  0  0  0  0
    4.8690   -7.4380   26.4151 C   0  0  0  0  0  0  0  0  0  0  0  0
    2.3021   -5.6726   26.0378 C   0  0  0  0  0  0  0  0  0  0  0  0
    7.0880   -4.6163   27.0010 C   0  0  0  0  0  0  0  0  0  0  0  0
    8.3117   -4.3698   27.4436 C   0  0  0  0  0  0  0  0  0  0  0  0
    1.1339   -5.0515   26.3541 C   0  0  0  0  0  0  0  0  0  0  0  0
    4.8080   -8.0362   16.7101 C   0  0  0  0  0  0  0  0  0  0  0  0
   -1.2173   -3.9294   26.9717 O   0  0  0  0  0  0  0  0  0  0  0  0
   -1.0025   -5.0942   27.4586 C   0  0  0  0  0  0  0  0  0  0  0  0
    2.2474   -8.9123   16.6273 C   0  0  0  0  0  0  0  0  0  0  0  0
    4.4957   -9.2636   17.3041 C   0  0  0  0  0  0  0  0  0  0  0  0
   -1.8070   -5.6086   28.1920 O   0  0  0  0  0  0  0  0  0  0  0  0
   10.4296   -5.1799   28.3140 C   0  0  0  0  0  0  0  0  0  0  0  0
    6.6017   -5.9004   26.9187 C   0  0  0  0  0  0  0  0  0  0  0  0
    2.4761   -6.9940   26.4111 N   0  0  0  0  0  0  0  0  0  0  0  0
    9.1353   -5.4053   27.8239 C   0  0  0  0  0  0  0  0  0  0  0  0
    0.9922   -9.3232   16.5995 O   0  0  0  0  0  0  0  0  0  0  0  0
    1.5232   -7.6869   27.1182 C   0  0  0  0  0  0  0  0  0  0  0  0
    8.6878   -6.6715   27.7262 N   0  0  0  0  0  0  0  0  0  0  0  0
    6.9911   -8.2423   27.1808 C   0  0  0  0  0  0  0  0  0  0  0  0
    3.8436   -7.2758   16.0578 C   0  0  0  0  0  0  0  0  0  0  0  0
    3.1882   -9.7190   17.2566 C   0  0  0  0  0  0  0  0  0  0  0  0
    5.3488   -6.1737   26.5092 C   0  0  0  0  0  0  0  0  0  0  0  0
    7.4567   -6.9464   27.2858 C   0  0  0  0  0  0  0  0  0  0  0  0
    0.1921   -5.7592   27.1123 C   0  0  0  0  0  0  0  0  0  0  0  0
    3.5517   -7.7407   25.9711 C   0  0  0  0  0  0  0  0  0  0  0  0
  1  4  4  0
  1 22  4  0
  2 20  4  0
  2 27  4  0
  3 12  4  0
  3 23  4  0
  4 25  4  0
  4 28  1  0
  5  8  4  0
  5 17  4  0
  6  7  4  0
  6 16  4  0
  7 18  4  0
  8 27  4  0
  9 13  4  0
  9 23  4  0
 10 11  1  0
 11 14  2  0
 11 27  1  0
 12 19  1  0
 12 24  4  0
 13 24  4  0
 15 18  1  0
 16 25  4  0
 16 26  4  0
 17 20  4  0
 17 28  1  0
 18 21  4  0
 21 26  4  0
 22 26  4  0
M  END
$$$$

 Created by Python create_sdf_string function

 28 30  0  0  0  0  0  0  0  0999 V2000
    5.7174   -8.4529   26.7190 C   0  0  0  0  0  0  0  0  0  0  0  0
    0.3974   -7.0711   27.5149 C   0  0  0  0  0  0  0  0  0  0  0  0
    2.5338   -7.6891   16.0102 C   0  0  0  0  0  0  0  0  0  0  0  0
    4.8690   -7.4380   26.4151 C   0  0  0  0  0  0  0  0  0  0  0  0
    2.3021   -5.6726   26.0378 C   0  0  0  0  0  0  0  0  0  0  0  0
    7.0880   -4.6163   27.0010 C   0  0  0  0  0  0  0  0  0  0  0  0
    8.3117   -4.3698   27.4436 C   0  0  0  0  0  0  0  0  0  0  0  0
    1.1339   -5.0515   26.3541 C   0  0  0  0  0  0  0  0  0  0  0  0
    4.8080   -8.0362   16.7101 C   0  0  0  0  0  0  0  0  0  0  0  0
   -1.2173   -3.9294   26.9717 O   0  0  0  0  0  0  0  0  0  0  0  0
   -1.0025   -5.0942   27.4586 C   0  0  0  0  0  0  0  0  0  0  0  0
    2.2474   -8.9123   16.6273 C   0  0  0  0  0  0  0  0  0  0  0  0
    4.4957   -9.2636   17.3041 C   0  0  0  0  0  0  0  0  0  0  0  0
   -1.8070   -5.6086   28.1920 O   0  0  0  0  0  0  0  0  0  0  0  0
   10.4296   -5.1799   28.3140 C   0  0  0  0  0  0  0  0  0  0  0  0
    6.6017   -5.9004   26.9187 C   0  0  0  0  0  0  0  0  0  0  0  0
    2.4761   -6.9940   26.4111 N   0  0  0  0  0  0  0  0  0  0  0  0
    9.1353   -5.4053   27.8239 C   0  0  0  0  0  0  0  0  0  0  0  0
    0.9922   -9.3232   16.5995 O   0  0  0  0  0  0  0  0  0  0  0  0
    1.5232   -7.6869   27.1182 C   0  0  0  0  0  0  0  0  0  0  0  0
    8.6878   -6.6715   27.7262 N   0  0  0  0  0  0  0  0  0  0  0  0
    6.9911   -8.2423   27.1808 C   0  0  0  0  0  0  0  0  0  0  0  0
    3.8436   -7.2758   16.0578 C   0  0  0  0  0  0  0  0  0  0  0  0
    3.1882   -9.7190   17.2566 C   0  0  0  0  0  0  0  0  0  0  0  0
    5.3488   -6.1737   26.5092 C   0  0  0  0  0  0  0  0  0  0  0  0
    7.4567   -6.9464   27.2858 C   0  0  0  0  0  0  0  0  0  0  0  0
    0.1921   -5.7592   27.1123 C   0  0  0  0  0  0  0  0  0  0  0  0
    3.5517   -7.7407   25.9711 C   0  0  0  0  0  0  0  0  0  0  0  0
  1  4  4  0
  1 22  4  0
  2 20  4  0
  2 27  4  0
  3 12  4  0
  3 23  4  0
  4 25  4  0
  4 28  1  0
  5  8  4  0
  5 17  4  0
  6  7  4  0
  6 16  4  0
  7 18  4  0
  8 27  4  0
  9 13  4  0
  9 23  4  0
 10 11  1  0
 11 14  2  0
 11 27  1  0
 12 19  1  0
 12 24  4  0
 13 24  4  0
 15 18  1  0
 16 25  4  0
 16 26  4  0
 17 20  4  0
 17 28  1  0
 18 21  4  0
 21 26  4  0
 22 26  4  0
M  END
$$$$

 Created by Python create_sdf_string function

 28 30  0  0  0  0  0  0  0  0999 V2000
    5.7174   -8.4529   26.7190 C   0  0  0  0  0  0  0  0  0  0  0  0
    0.3974   -7.0711   27.5149 C   0  0  0  0  0  0  0  0  0  0  0  0
    2.5338   -7.6891   16.0102 C   0  0  0  0  0  0  0  0  0  0  0  0
    4.8690   -7.4380   26.4151 C   0  0  0  0  0  0  0  0  0  0  0  0
    2.3021   -5.6726   26.0378 C   0  0  0  0  0  0  0  0  0  0  0  0
    7.0880   -4.6163   27.0010 C   0  0  0  0  0  0  0  0  0  0  0  0
    8.3117   -4.3698   27.4436 C   0  0  0  0  0  0  0  0  0  0  0  0
    1.1339   -5.0515   26.3541 C   0  0  0  0  0  0  0  0  0  0  0  0
    4.8080   -8.0362   16.7101 C   0  0  0  0  0  0  0  0  0  0  0  0
   -1.2173   -3.9294   26.9717 O   0  0  0  0  0  0  0  0  0  0  0  0
   -1.0025   -5.0942   27.4586 C   0  0  0  0  0  0  0  0  0  0  0  0
    2.2474   -8.9123   16.6273 C   0  0  0  0  0  0  0  0  0  0  0  0
    4.4957   -9.2636   17.3041 C   0  0  0  0  0  0  0  0  0  0  0  0
   -1.8070   -5.6086   28.1920 O   0  0  0  0  0  0  0  0  0  0  0  0
   10.4296   -5.1799   28.3140 C   0  0  0  0  0  0  0  0  0  0  0  0
    6.6017   -5.9004   26.9187 C   0  0  0  0  0  0  0  0  0  0  0  0
    2.4761   -6.9940   26.4111 N   0  0  0  0  0  0  0  0  0  0  0  0
    9.1353   -5.4053   27.8239 C   0  0  0  0  0  0  0  0  0  0  0  0
    0.9922   -9.3232   16.5995 O   0  0  0  0  0  0  0  0  0  0  0  0
    1.5232   -7.6869   27.1182 C   0  0  0  0  0  0  0  0  0  0  0  0
    8.6878   -6.6715   27.7262 N   0  0  0  0  0  0  0  0  0  0  0  0
    6.9911   -8.2423   27.1808 C   0  0  0  0  0  0  0  0  0  0  0  0
    3.8436   -7.2758   16.0578 C   0  0  0  0  0  0  0  0  0  0  0  0
    3.1882   -9.7190   17.2566 C   0  0  0  0  0  0  0  0  0  0  0  0
    5.3488   -6.1737   26.5092 C   0  0  0  0  0  0  0  0  0  0  0  0
    7.4567   -6.9464   27.2858 C   0  0  0  0  0  0  0  0  0  0  0  0
    0.1921   -5.7592   27.1123 C   0  0  0  0  0  0  0  0  0  0  0  0
    3.5517   -7.7407   25.9711 C   0  0  0  0  0  0  0  0  0  0  0  0
  1  4  4  0
  1 22  4  0
  2 20  4  0
  2 27  4  0
  3 12  4  0
  3 23  4  0
  4 25  4  0
  4 28  1  0
  5  8  4  0
  5 17  4  0
  6  7  4  0
  6 16  4  0
  7 18  4  0
  8 27  4  0
  9 13  4  0
  9 23  4  0
 10 11  1  0
 11 14  2  0
 11 27  1  0
 12 19  1  0
 12 24  4  0
 13 24  4  0
 15 18  1  0
 16 25  4  0
 16 26  4  0
 17 20  4  0
 17 28  1  0
 18 21  4  0
 21 26  4  0
 22 26  4  0
M  END
$$$$

 Created by Python create_sdf_string function

 28 30  0  0  0  0  0  0  0  0999 V2000
    5.7174   -8.4529   26.7190 C   0  0  0  0  0  0  0  0  0  0  0  0
    0.3974   -7.0711   27.5149 C   0  0  0  0  0  0  0  0  0  0  0  0
    2.5338   -7.6891   16.0102 C   0  0  0  0  0  0  0  0  0  0  0  0
    4.8690   -7.4380   26.4151 C   0  0  0  0  0  0  0  0  0  0  0  0
    2.3021   -5.6726   26.0378 C   0  0  0  0  0  0  0  0  0  0  0  0
    7.0880   -4.6163   27.0010 C   0  0  0  0  0  0  0  0  0  0  0  0
    8.3117   -4.3698   27.4436 C   0  0  0  0  0  0  0  0  0  0  0  0
    1.1339   -5.0515   26.3541 C   0  0  0  0  0  0  0  0  0  0  0  0
    4.8080   -8.0362   16.7101 C   0  0  0  0  0  0  0  0  0  0  0  0
   -1.2173   -3.9294   26.9717 O   0  0  0  0  0  0  0  0  0  0  0  0
   -1.0025   -5.0942   27.4586 C   0  0  0  0  0  0  0  0  0  0  0  0
    2.2474   -8.9123   16.6273 C   0  0  0  0  0  0  0  0  0  0  0  0
    4.4957   -9.2636   17.3041 C   0  0  0  0  0  0  0  0  0  0  0  0
   -1.8070   -5.6086   28.1920 O   0  0  0  0  0  0  0  0  0  0  0  0
   10.4296   -5.1799   28.3140 C   0  0  0  0  0  0  0  0  0  0  0  0
    6.6017   -5.9004   26.9187 C   0  0  0  0  0  0  0  0  0  0  0  0
    2.4761   -6.9940   26.4111 N   0  0  0  0  0  0  0  0  0  0  0  0
    9.1353   -5.4053   27.8239 C   0  0  0  0  0  0  0  0  0  0  0  0
    0.9922   -9.3232   16.5995 O   0  0  0  0  0  0  0  0  0  0  0  0
    1.5232   -7.6869   27.1182 C   0  0  0  0  0  0  0  0  0  0  0  0
    8.6878   -6.6715   27.7262 N   0  0  0  0  0  0  0  0  0  0  0  0
    6.9911   -8.2423   27.1808 C   0  0  0  0  0  0  0  0  0  0  0  0
    3.8436   -7.2758   16.0578 C   0  0  0  0  0  0  0  0  0  0  0  0
    3.1882   -9.7190   17.2566 C   0  0  0  0  0  0  0  0  0  0  0  0
    5.3488   -6.1737   26.5092 C   0  0  0  0  0  0  0  0  0  0  0  0
    7.4567   -6.9464   27.2858 C   0  0  0  0  0  0  0  0  0  0  0  0
    0.1921   -5.7592   27.1123 C   0  0  0  0  0  0  0  0  0  0  0  0
    3.5517   -7.7407   25.9711 C   0  0  0  0  0  0  0  0  0  0  0  0
  1  4  4  0
  1 22  4  0
  2 20  4  0
  2 27  4  0
  3 12  4  0
  3 23  4  0
  4 25  4  0
  4 28  1  0
  5  8  4  0
  5 17  4  0
  6  7  4  0
  6 16  4  0
  7 18  4  0
  8 27  4  0
  9 13  4  0
  9 23  4  0
 10 11  1  0
 11 14  2  0
 11 27  1  0
 12 19  1  0
 12 24  4  0
 13 24  4  0
 15 18  1  0
 16 25  4  0
 16 26  4  0
 17 20  4  0
 17 28  1  0
 18 21  4  0
 21 26  4  0
 22 26  4  0
M  END
$$$$

 Created by Python create_sdf_string function

 28 30  0  0  0  0  0  0  0  0999 V2000
    5.7174   -8.4529   26.7190 C   0  0  0  0  0  0  0  0  0  0  0  0
    0.3974   -7.0711   27.5149 C   0  0  0  0  0  0  0  0  0  0  0  0
    2.5338   -7.6891   16.0102 C   0  0  0  0  0  0  0  0  0  0  0  0
    4.8690   -7.4380   26.4151 C   0  0  0  0  0  0  0  0  0  0  0  0
    2.3021   -5.6726   26.0378 C   0  0  0  0  0  0  0  0  0  0  0  0
    7.0880   -4.6163   27.0010 C   0  0  0  0  0  0  0  0  0  0  0  0
    8.3117   -4.3698   27.4436 C   0  0  0  0  0  0  0  0  0  0  0  0
    1.1339   -5.0515   26.3541 C   0  0  0  0  0  0  0  0  0  0  0  0
    4.8080   -8.0362   16.7101 C   0  0  0  0  0  0  0  0  0  0  0  0
   -1.2173   -3.9294   26.9717 O   0  0  0  0  0  0  0  0  0  0  0  0
   -1.0025   -5.0942   27.4586 C   0  0  0  0  0  0  0  0  0  0  0  0
    2.2474   -8.9123   16.6273 C   0  0  0  0  0  0  0  0  0  0  0  0
    4.4957   -9.2636   17.3041 C   0  0  0  0  0  0  0  0  0  0  0  0
   -1.8070   -5.6086   28.1920 O   0  0  0  0  0  0  0  0  0  0  0  0
   10.4296   -5.1799   28.3140 C   0  0  0  0  0  0  0  0  0  0  0  0
    6.6017   -5.9004   26.9187 C   0  0  0  0  0  0  0  0  0  0  0  0
    2.4761   -6.9940   26.4111 N   0  0  0  0  0  0  0  0  0  0  0  0
    9.1353   -5.4053   27.8239 C   0  0  0  0  0  0  0  0  0  0  0  0
    0.9922   -9.3232   16.5995 O   0  0  0  0  0  0  0  0  0  0  0  0
    1.5232   -7.6869   27.1182 C   0  0  0  0  0  0  0  0  0  0  0  0
    8.6878   -6.6715   27.7262 N   0  0  0  0  0  0  0  0  0  0  0  0
    6.9911   -8.2423   27.1808 C   0  0  0  0  0  0  0  0  0  0  0  0
    3.8436   -7.2758   16.0578 C   0  0  0  0  0  0  0  0  0  0  0  0
    3.1882   -9.7190   17.2566 C   0  0  0  0  0  0  0  0  0  0  0  0
    5.3488   -6.1737   26.5092 C   0  0  0  0  0  0  0  0  0  0  0  0
    7.4567   -6.9464   27.2858 C   0  0  0  0  0  0  0  0  0  0  0  0
    0.1921   -5.7592   27.1123 C   0  0  0  0  0  0  0  0  0  0  0  0
    3.5517   -7.7407   25.9711 C   0  0  0  0  0  0  0  0  0  0  0  0
  1  4  4  0
  1 22  4  0
  2 20  4  0
  2 27  4  0
  3 12  4  0
  3 23  4  0
  4 25  4  0
  4 28  1  0
  5  8  4  0
  5 17  4  0
  6  7  4  0
  6 16  4  0
  7 18  4  0
  8 27  4  0
  9 13  4  0
  9 23  4  0
 10 11  1  0
 11 14  2  0
 11 27  1  0
 12 19  1  0
 12 24  4  0
 13 24  4  0
 15 18  1  0
 16 25  4  0
 16 26  4  0
 17 20  4  0
 17 28  1  0
 18 21  4  0
 21 26  4  0
 22 26  4  0
M  END
$$$$

 Created by Python create_sdf_string function

 28 30  0  0  0  0  0  0  0  0999 V2000
    5.7174   -8.4529   26.7190 C   0  0  0  0  0  0  0  0  0  0  0  0
    0.3974   -7.0711   27.5149 C   0  0  0  0  0  0  0  0  0  0  0  0
    2.5338   -7.6891   16.0102 C   0  0  0  0  0  0  0  0  0  0  0  0
    4.8690   -7.4380   26.4151 C   0  0  0  0  0  0  0  0  0  0  0  0
    2.3021   -5.6726   26.0378 C   0  0  0  0  0  0  0  0  0  0  0  0
    7.0880   -4.6163   27.0010 C   0  0  0  0  0  0  0  0  0  0  0  0
    8.3117   -4.3698   27.4436 C   0  0  0  0  0  0  0  0  0  0  0  0
    1.1339   -5.0515   26.3541 C   0  0  0  0  0  0  0  0  0  0  0  0
    4.8080   -8.0362   16.7101 C   0  0  0  0  0  0  0  0  0  0  0  0
   -1.2173   -3.9294   26.9717 O   0  0  0  0  0  0  0  0  0  0  0  0
   -1.0025   -5.0942   27.4586 C   0  0  0  0  0  0  0  0  0  0  0  0
    2.2474   -8.9123   16.6273 C   0  0  0  0  0  0  0  0  0  0  0  0
    4.4957   -9.2636   17.3041 C   0  0  0  0  0  0  0  0  0  0  0  0
   -1.8070   -5.6086   28.1920 O   0  0  0  0  0  0  0  0  0  0  0  0
   10.4296   -5.1799   28.3140 C   0  0  0  0  0  0  0  0  0  0  0  0
    6.6017   -5.9004   26.9187 C   0  0  0  0  0  0  0  0  0  0  0  0
    2.4761   -6.9940   26.4111 N   0  0  0  0  0  0  0  0  0  0  0  0
    9.1353   -5.4053   27.8239 C   0  0  0  0  0  0  0  0  0  0  0  0
    0.9922   -9.3232   16.5995 O   0  0  0  0  0  0  0  0  0  0  0  0
    1.5232   -7.6869   27.1182 C   0  0  0  0  0  0  0  0  0  0  0  0
    8.6878   -6.6715   27.7262 N   0  0  0  0  0  0  0  0  0  0  0  0
    6.9911   -8.2423   27.1808 C   0  0  0  0  0  0  0  0  0  0  0  0
    3.8436   -7.2758   16.0578 C   0  0  0  0  0  0  0  0  0  0  0  0
    3.1882   -9.7190   17.2566 C   0  0  0  0  0  0  0  0  0  0  0  0
    5.3488   -6.1737   26.5092 C   0  0  0  0  0  0  0  0  0  0  0  0
    7.4567   -6.9464   27.2858 C   0  0  0  0  0  0  0  0  0  0  0  0
    0.1921   -5.7592   27.1123 C   0  0  0  0  0  0  0  0  0  0  0  0
    3.5517   -7.7407   25.9711 C   0  0  0  0  0  0  0  0  0  0  0  0
  1  4  4  0
  1 22  4  0
  2 20  4  0
  2 27  4  0
  3 12  4  0
  3 23  4  0
  4 25  4  0
  4 28  1  0
  5  8  4  0
  5 17  4  0
  6  7  4  0
  6 16  4  0
  7 18  4  0
  8 27  4  0
  9 13  4  0
  9 23  4  0
 10 11  1  0
 11 14  2  0
 11 27  1  0
 12 19  1  0
 12 24  4  0
 13 24  4  0
 15 18  1  0
 16 25  4  0
 16 26  4  0
 17 20  4  0
 17 28  1  0
 18 21  4  0
 21 26  4  0
 22 26  4  0
M  END
$$$$

 Created by Python create_sdf_string function

 28 30  0  0  0  0  0  0  0  0999 V2000
    5.7174   -8.4529   26.7190 C   0  0  0  0  0  0  0  0  0  0  0  0
    0.3974   -7.0711   27.5149 C   0  0  0  0  0  0  0  0  0  0  0  0
    2.5338   -7.6891   16.0102 C   0  0  0  0  0  0  0  0  0  0  0  0
    4.8690   -7.4380   26.4151 C   0  0  0  0  0  0  0  0  0  0  0  0
    2.3021   -5.6726   26.0378 C   0  0  0  0  0  0  0  0  0  0  0  0
    7.0880   -4.6163   27.0010 C   0  0  0  0  0  0  0  0  0  0  0  0
    8.3117   -4.3698   27.4436 C   0  0  0  0  0  0  0  0  0  0  0  0
    1.1339   -5.0515   26.3541 C   0  0  0  0  0  0  0  0  0  0  0  0
    4.8080   -8.0362   16.7101 C   0  0  0  0  0  0  0  0  0  0  0  0
   -1.2173   -3.9294   26.9717 O   0  0  0  0  0  0  0  0  0  0  0  0
   -1.0025   -5.0942   27.4586 C   0  0  0  0  0  0  0  0  0  0  0  0
    2.2474   -8.9123   16.6273 C   0  0  0  0  0  0  0  0  0  0  0  0
    4.4957   -9.2636   17.3041 C   0  0  0  0  0  0  0  0  0  0  0  0
   -1.8070   -5.6086   28.1920 O   0  0  0  0  0  0  0  0  0  0  0  0
   10.4296   -5.1799   28.3140 C   0  0  0  0  0  0  0  0  0  0  0  0
    6.6017   -5.9004   26.9187 C   0  0  0  0  0  0  0  0  0  0  0  0
    2.4761   -6.9940   26.4111 N   0  0  0  0  0  0  0  0  0  0  0  0
    9.1353   -5.4053   27.8239 C   0  0  0  0  0  0  0  0  0  0  0  0
    0.9922   -9.3232   16.5995 O   0  0  0  0  0  0  0  0  0  0  0  0
    1.5232   -7.6869   27.1182 C   0  0  0  0  0  0  0  0  0  0  0  0
    8.6878   -6.6715   27.7262 N   0  0  0  0  0  0  0  0  0  0  0  0
    6.9911   -8.2423   27.1808 C   0  0  0  0  0  0  0  0  0  0  0  0
    3.8436   -7.2758   16.0578 C   0  0  0  0  0  0  0  0  0  0  0  0
    3.1882   -9.7190   17.2566 C   0  0  0  0  0  0  0  0  0  0  0  0
    5.3488   -6.1737   26.5092 C   0  0  0  0  0  0  0  0  0  0  0  0
    7.4567   -6.9464   27.2858 C   0  0  0  0  0  0  0  0  0  0  0  0
    0.1921   -5.7592   27.1123 C   0  0  0  0  0  0  0  0  0  0  0  0
    3.5517   -7.7407   25.9711 C   0  0  0  0  0  0  0  0  0  0  0  0
  1  4  4  0
  1 22  4  0
  2 20  4  0
  2 27  4  0
  3 12  4  0
  3 23  4  0
  4 25  4  0
  4 28  1  0
  5  8  4  0
  5 17  4  0
  6  7  4  0
  6 16  4  0
  7 18  4  0
  8 27  4  0
  9 13  4  0
  9 23  4  0
 10 11  1  0
 11 14  2  0
 11 27  1  0
 12 19  1  0
 12 24  4  0
 13 24  4  0
 15 18  1  0
 16 25  4  0
 16 26  4  0
 17 20  4  0
 17 28  1  0
 18 21  4  0
 21 26  4  0
 22 26  4  0
M  END
$$$$

 Created by Python create_sdf_string function

 28 30  0  0  0  0  0  0  0  0999 V2000
    5.7174   -8.4529   26.7190 C   0  0  0  0  0  0  0  0  0  0  0  0
    0.3974   -7.0711   27.5149 C   0  0  0  0  0  0  0  0  0  0  0  0
    2.5338   -7.6891   16.0102 C   0  0  0  0  0  0  0  0  0  0  0  0
    4.8690   -7.4380   26.4151 C   0  0  0  0  0  0  0  0  0  0  0  0
    2.3021   -5.6726   26.0378 C   0  0  0  0  0  0  0  0  0  0  0  0
    7.0880   -4.6163   27.0010 C   0  0  0  0  0  0  0  0  0  0  0  0
    8.3117   -4.3698   27.4436 C   0  0  0  0  0  0  0  0  0  0  0  0
    1.1339   -5.0515   26.3541 C   0  0  0  0  0  0  0  0  0  0  0  0
    4.8080   -8.0362   16.7101 C   0  0  0  0  0  0  0  0  0  0  0  0
   -1.2173   -3.9294   26.9717 O   0  0  0  0  0  0  0  0  0  0  0  0
   -1.0025   -5.0942   27.4586 C   0  0  0  0  0  0  0  0  0  0  0  0
    2.2474   -8.9123   16.6273 C   0  0  0  0  0  0  0  0  0  0  0  0
    4.4957   -9.2636   17.3041 C   0  0  0  0  0  0  0  0  0  0  0  0
   -1.8070   -5.6086   28.1920 O   0  0  0  0  0  0  0  0  0  0  0  0
   10.4296   -5.1799   28.3140 C   0  0  0  0  0  0  0  0  0  0  0  0
    6.6017   -5.9004   26.9187 C   0  0  0  0  0  0  0  0  0  0  0  0
    2.4761   -6.9940   26.4111 N   0  0  0  0  0  0  0  0  0  0  0  0
    9.1353   -5.4053   27.8239 C   0  0  0  0  0  0  0  0  0  0  0  0
    0.9922   -9.3232   16.5995 O   0  0  0  0  0  0  0  0  0  0  0  0
    1.5232   -7.6869   27.1182 C   0  0  0  0  0  0  0  0  0  0  0  0
    8.6878   -6.6715   27.7262 N   0  0  0  0  0  0  0  0  0  0  0  0
    6.9911   -8.2423   27.1808 C   0  0  0  0  0  0  0  0  0  0  0  0
    3.8436   -7.2758   16.0578 C   0  0  0  0  0  0  0  0  0  0  0  0
    3.1882   -9.7190   17.2566 C   0  0  0  0  0  0  0  0  0  0  0  0
    5.3488   -6.1737   26.5092 C   0  0  0  0  0  0  0  0  0  0  0  0
    7.4567   -6.9464   27.2858 C   0  0  0  0  0  0  0  0  0  0  0  0
    0.1921   -5.7592   27.1123 C   0  0  0  0  0  0  0  0  0  0  0  0
    3.5517   -7.7407   25.9711 C   0  0  0  0  0  0  0  0  0  0  0  0
  1  4  4  0
  1 22  4  0
  2 20  4  0
  2 27  4  0
  3 12  4  0
  3 23  4  0
  4 25  4  0
  4 28  1  0
  5  8  4  0
  5 17  4  0
  6  7  4  0
  6 16  4  0
  7 18  4  0
  8 27  4  0
  9 13  4  0
  9 23  4  0
 10 11  1  0
 11 14  2  0
 11 27  1  0
 12 19  1  0
 12 24  4  0
 13 24  4  0
 15 18  1  0
 16 25  4  0
 16 26  4  0
 17 20  4  0
 17 28  1  0
 18 21  4  0
 21 26  4  0
 22 26  4  0
M  END
$$$$

 Created by Python create_sdf_string function

 28 30  0  0  0  0  0  0  0  0999 V2000
    5.7174   -8.4529   26.7190 C   0  0  0  0  0  0  0  0  0  0  0  0
    0.3974   -7.0711   27.5149 C   0  0  0  0  0  0  0  0  0  0  0  0
    2.5338   -7.6891   16.0102 C   0  0  0  0  0  0  0  0  0  0  0  0
    4.8690   -7.4380   26.4151 C   0  0  0  0  0  0  0  0  0  0  0  0
    2.3021   -5.6726   26.0378 C   0  0  0  0  0  0  0  0  0  0  0  0
    7.0880   -4.6163   27.0010 C   0  0  0  0  0  0  0  0  0  0  0  0
    8.3117   -4.3698   27.4436 C   0  0  0  0  0  0  0  0  0  0  0  0
    1.1339   -5.0515   26.3541 C   0  0  0  0  0  0  0  0  0  0  0  0
    4.8080   -8.0362   16.7101 C   0  0  0  0  0  0  0  0  0  0  0  0
   -1.2173   -3.9294   26.9717 O   0  0  0  0  0  0  0  0  0  0  0  0
   -1.0025   -5.0942   27.4586 C   0  0  0  0  0  0  0  0  0  0  0  0
    2.2474   -8.9123   16.6273 C   0  0  0  0  0  0  0  0  0  0  0  0
    4.4957   -9.2636   17.3041 C   0  0  0  0  0  0  0  0  0  0  0  0
   -1.8070   -5.6086   28.1920 O   0  0  0  0  0  0  0  0  0  0  0  0
   10.4296   -5.1799   28.3140 C   0  0  0  0  0  0  0  0  0  0  0  0
    6.6017   -5.9004   26.9187 C   0  0  0  0  0  0  0  0  0  0  0  0
    2.4761   -6.9940   26.4111 N   0  0  0  0  0  0  0  0  0  0  0  0
    9.1353   -5.4053   27.8239 C   0  0  0  0  0  0  0  0  0  0  0  0
    0.9922   -9.3232   16.5995 O   0  0  0  0  0  0  0  0  0  0  0  0
    1.5232   -7.6869   27.1182 C   0  0  0  0  0  0  0  0  0  0  0  0
    8.6878   -6.6715   27.7262 N   0  0  0  0  0  0  0  0  0  0  0  0
    6.9911   -8.2423   27.1808 C   0  0  0  0  0  0  0  0  0  0  0  0
    3.8436   -7.2758   16.0578 C   0  0  0  0  0  0  0  0  0  0  0  0
    3.1882   -9.7190   17.2566 C   0  0  0  0  0  0  0  0  0  0  0  0
    5.3488   -6.1737   26.5092 C   0  0  0  0  0  0  0  0  0  0  0  0
    7.4567   -6.9464   27.2858 C   0  0  0  0  0  0  0  0  0  0  0  0
    0.1921   -5.7592   27.1123 C   0  0  0  0  0  0  0  0  0  0  0  0
    3.5517   -7.7407   25.9711 C   0  0  0  0  0  0  0  0  0  0  0  0
  1  4  4  0
  1 22  4  0
  2 20  4  0
  2 27  4  0
  3 12  4  0
  3 23  4  0
  4 25  4  0
  4 28  1  0
  5  8  4  0
  5 17  4  0
  6  7  4  0
  6 16  4  0
  7 18  4  0
  8 27  4  0
  9 13  4  0
  9 23  4  0
 10 11  1  0
 11 14  2  0
 11 27  1  0
 12 19  1  0
 12 24  4  0
 13 24  4  0
 15 18  1  0
 16 25  4  0
 16 26  4  0
 17 20  4  0
 17 28  1  0
 18 21  4  0
 21 26  4  0
 22 26  4  0
M  END
$$$$

 Created by Python create_sdf_string function

 28 30  0  0  0  0  0  0  0  0999 V2000
    5.7174   -8.4529   26.7190 C   0  0  0  0  0  0  0  0  0  0  0  0
    0.3974   -7.0711   27.5149 C   0  0  0  0  0  0  0  0  0  0  0  0
    2.5338   -7.6891   16.0102 C   0  0  0  0  0  0  0  0  0  0  0  0
    4.8690   -7.4380   26.4151 C   0  0  0  0  0  0  0  0  0  0  0  0
    2.3021   -5.6726   26.0378 C   0  0  0  0  0  0  0  0  0  0  0  0
    7.0880   -4.6163   27.0010 C   0  0  0  0  0  0  0  0  0  0  0  0
    8.3117   -4.3698   27.4436 C   0  0  0  0  0  0  0  0  0  0  0  0
    1.1339   -5.0515   26.3541 C   0  0  0  0  0  0  0  0  0  0  0  0
    4.8080   -8.0362   16.7101 C   0  0  0  0  0  0  0  0  0  0  0  0
   -1.2173   -3.9294   26.9717 O   0  0  0  0  0  0  0  0  0  0  0  0
   -1.0025   -5.0942   27.4586 C   0  0  0  0  0  0  0  0  0  0  0  0
    2.2474   -8.9123   16.6273 C   0  0  0  0  0  0  0  0  0  0  0  0
    4.4957   -9.2636   17.3041 C   0  0  0  0  0  0  0  0  0  0  0  0
   -1.8070   -5.6086   28.1920 O   0  0  0  0  0  0  0  0  0  0  0  0
   10.4296   -5.1799   28.3140 C   0  0  0  0  0  0  0  0  0  0  0  0
    6.6017   -5.9004   26.9187 C   0  0  0  0  0  0  0  0  0  0  0  0
    2.4761   -6.9940   26.4111 N   0  0  0  0  0  0  0  0  0  0  0  0
    9.1353   -5.4053   27.8239 C   0  0  0  0  0  0  0  0  0  0  0  0
    0.9922   -9.3232   16.5995 O   0  0  0  0  0  0  0  0  0  0  0  0
    1.5232   -7.6869   27.1182 C   0  0  0  0  0  0  0  0  0  0  0  0
    8.6878   -6.6715   27.7262 N   0  0  0  0  0  0  0  0  0  0  0  0
    6.9911   -8.2423   27.1808 C   0  0  0  0  0  0  0  0  0  0  0  0
    3.8436   -7.2758   16.0578 C   0  0  0  0  0  0  0  0  0  0  0  0
    3.1882   -9.7190   17.2566 C   0  0  0  0  0  0  0  0  0  0  0  0
    5.3488   -6.1737   26.5092 C   0  0  0  0  0  0  0  0  0  0  0  0
    7.4567   -6.9464   27.2858 C   0  0  0  0  0  0  0  0  0  0  0  0
    0.1921   -5.7592   27.1123 C   0  0  0  0  0  0  0  0  0  0  0  0
    3.5517   -7.7407   25.9711 C   0  0  0  0  0  0  0  0  0  0  0  0
  1  4  4  0
  1 22  4  0
  2 20  4  0
  2 27  4  0
  3 12  4  0
  3 23  4  0
  4 25  4  0
  4 28  1  0
  5  8  4  0
  5 17  4  0
  6  7  4  0
  6 16  4  0
  7 18  4  0
  8 27  4  0
  9 13  4  0
  9 23  4  0
 10 11  1  0
 11 14  2  0
 11 27  1  0
 12 19  1  0
 12 24  4  0
 13 24  4  0
 15 18  1  0
 16 25  4  0
 16 26  4  0
 17 20  4  0
 17 28  1  0
 18 21  4  0
 21 26  4  0
 22 26  4  0
M  END
$$$$

 Created by Python create_sdf_string function

 28 30  0  0  0  0  0  0  0  0999 V2000
    5.7174   -8.4529   26.7190 C   0  0  0  0  0  0  0  0  0  0  0  0
    0.3974   -7.0711   27.5149 C   0  0  0  0  0  0  0  0  0  0  0  0
    2.5338   -7.6891   16.0102 C   0  0  0  0  0  0  0  0  0  0  0  0
    4.8690   -7.4380   26.4151 C   0  0  0  0  0  0  0  0  0  0  0  0
    2.3021   -5.6726   26.0378 C   0  0  0  0  0  0  0  0  0  0  0  0
    7.0880   -4.6163   27.0010 C   0  0  0  0  0  0  0  0  0  0  0  0
    8.3117   -4.3698   27.4436 C   0  0  0  0  0  0  0  0  0  0  0  0
    1.1339   -5.0515   26.3541 C   0  0  0  0  0  0  0  0  0  0  0  0
    4.8080   -8.0362   16.7101 C   0  0  0  0  0  0  0  0  0  0  0  0
   -1.2173   -3.9294   26.9717 O   0  0  0  0  0  0  0  0  0  0  0  0
   -1.0025   -5.0942   27.4586 C   0  0  0  0  0  0  0  0  0  0  0  0
    2.2474   -8.9123   16.6273 C   0  0  0  0  0  0  0  0  0  0  0  0
    4.4957   -9.2636   17.3041 C   0  0  0  0  0  0  0  0  0  0  0  0
   -1.8070   -5.6086   28.1920 O   0  0  0  0  0  0  0  0  0  0  0  0
   10.4296   -5.1799   28.3140 C   0  0  0  0  0  0  0  0  0  0  0  0
    6.6017   -5.9004   26.9187 C   0  0  0  0  0  0  0  0  0  0  0  0
    2.4761   -6.9940   26.4111 N   0  0  0  0  0  0  0  0  0  0  0  0
    9.1353   -5.4053   27.8239 C   0  0  0  0  0  0  0  0  0  0  0  0
    0.9922   -9.3232   16.5995 O   0  0  0  0  0  0  0  0  0  0  0  0
    1.5232   -7.6869   27.1182 C   0  0  0  0  0  0  0  0  0  0  0  0
    8.6878   -6.6715   27.7262 N   0  0  0  0  0  0  0  0  0  0  0  0
    6.9911   -8.2423   27.1808 C   0  0  0  0  0  0  0  0  0  0  0  0
    3.8436   -7.2758   16.0578 C   0  0  0  0  0  0  0  0  0  0  0  0
    3.1882   -9.7190   17.2566 C   0  0  0  0  0  0  0  0  0  0  0  0
    5.3488   -6.1737   26.5092 C   0  0  0  0  0  0  0  0  0  0  0  0
    7.4567   -6.9464   27.2858 C   0  0  0  0  0  0  0  0  0  0  0  0
    0.1921   -5.7592   27.1123 C   0  0  0  0  0  0  0  0  0  0  0  0
    3.5517   -7.7407   25.9711 C   0  0  0  0  0  0  0  0  0  0  0  0
  1  4  4  0
  1 22  4  0
  2 20  4  0
  2 27  4  0
  3 12  4  0
  3 23  4  0
  4 25  4  0
  4 28  1  0
  5  8  4  0
  5 17  4  0
  6  7  4  0
  6 16  4  0
  7 18  4  0
  8 27  4  0
  9 13  4  0
  9 23  4  0
 10 11  1  0
 11 14  2  0
 11 27  1  0
 12 19  1  0
 12 24  4  0
 13 24  4  0
 15 18  1  0
 16 25  4  0
 16 26  4  0
 17 20  4  0
 17 28  1  0
 18 21  4  0
 21 26  4  0
 22 26  4  0
M  END
$$$$

 Created by Python create_sdf_string function

 28 30  0  0  0  0  0  0  0  0999 V2000
    5.7174   -8.4529   26.7190 C   0  0  0  0  0  0  0  0  0  0  0  0
    0.3974   -7.0711   27.5149 C   0  0  0  0  0  0  0  0  0  0  0  0
    2.5338   -7.6891   16.0102 C   0  0  0  0  0  0  0  0  0  0  0  0
    4.8690   -7.4380   26.4151 C   0  0  0  0  0  0  0  0  0  0  0  0
    2.3021   -5.6726   26.0378 C   0  0  0  0  0  0  0  0  0  0  0  0
    7.0880   -4.6163   27.0010 C   0  0  0  0  0  0  0  0  0  0  0  0
    8.3117   -4.3698   27.4436 C   0  0  0  0  0  0  0  0  0  0  0  0
    1.1339   -5.0515   26.3541 C   0  0  0  0  0  0  0  0  0  0  0  0
    4.8080   -8.0362   16.7101 C   0  0  0  0  0  0  0  0  0  0  0  0
   -1.2173   -3.9294   26.9717 O   0  0  0  0  0  0  0  0  0  0  0  0
   -1.0025   -5.0942   27.4586 C   0  0  0  0  0  0  0  0  0  0  0  0
    2.2474   -8.9123   16.6273 C   0  0  0  0  0  0  0  0  0  0  0  0
    4.4957   -9.2636   17.3041 C   0  0  0  0  0  0  0  0  0  0  0  0
   -1.8070   -5.6086   28.1920 O   0  0  0  0  0  0  0  0  0  0  0  0
   10.4296   -5.1799   28.3140 C   0  0  0  0  0  0  0  0  0  0  0  0
    6.6017   -5.9004   26.9187 C   0  0  0  0  0  0  0  0  0  0  0  0
    2.4761   -6.9940   26.4111 N   0  0  0  0  0  0  0  0  0  0  0  0
    9.1353   -5.4053   27.8239 C   0  0  0  0  0  0  0  0  0  0  0  0
    0.9922   -9.3232   16.5995 O   0  0  0  0  0  0  0  0  0  0  0  0
    1.5232   -7.6869   27.1182 C   0  0  0  0  0  0  0  0  0  0  0  0
    8.6878   -6.6715   27.7262 N   0  0  0  0  0  0  0  0  0  0  0  0
    6.9911   -8.2423   27.1808 C   0  0  0  0  0  0  0  0  0  0  0  0
    3.8436   -7.2758   16.0578 C   0  0  0  0  0  0  0  0  0  0  0  0
    3.1882   -9.7190   17.2566 C   0  0  0  0  0  0  0  0  0  0  0  0
    5.3488   -6.1737   26.5092 C   0  0  0  0  0  0  0  0  0  0  0  0
    7.4567   -6.9464   27.2858 C   0  0  0  0  0  0  0  0  0  0  0  0
    0.1921   -5.7592   27.1123 C   0  0  0  0  0  0  0  0  0  0  0  0
    3.5517   -7.7407   25.9711 C   0  0  0  0  0  0  0  0  0  0  0  0
  1  4  4  0
  1 22  4  0
  2 20  4  0
  2 27  4  0
  3 12  4  0
  3 23  4  0
  4 25  4  0
  4 28  1  0
  5  8  4  0
  5 17  4  0
  6  7  4  0
  6 16  4  0
  7 18  4  0
  8 27  4  0
  9 13  4  0
  9 23  4  0
 10 11  1  0
 11 14  2  0
 11 27  1  0
 12 19  1  0
 12 24  4  0
 13 24  4  0
 15 18  1  0
 16 25  4  0
 16 26  4  0
 17 20  4  0
 17 28  1  0
 18 21  4  0
 21 26  4  0
 22 26  4  0
M  END
$$$$

 Created by Python create_sdf_string function

 28 30  0  0  0  0  0  0  0  0999 V2000
    5.7174   -8.4529   26.7190 C   0  0  0  0  0  0  0  0  0  0  0  0
    0.3974   -7.0711   27.5149 C   0  0  0  0  0  0  0  0  0  0  0  0
    2.5338   -7.6891   16.0102 C   0  0  0  0  0  0  0  0  0  0  0  0
    4.8690   -7.4380   26.4151 C   0  0  0  0  0  0  0  0  0  0  0  0
    2.3021   -5.6726   26.0378 C   0  0  0  0  0  0  0  0  0  0  0  0
    7.0880   -4.6163   27.0010 C   0  0  0  0  0  0  0  0  0  0  0  0
    8.3117   -4.3698   27.4436 C   0  0  0  0  0  0  0  0  0  0  0  0
    1.1339   -5.0515   26.3541 C   0  0  0  0  0  0  0  0  0  0  0  0
    4.8080   -8.0362   16.7101 C   0  0  0  0  0  0  0  0  0  0  0  0
   -1.2173   -3.9294   26.9717 O   0  0  0  0  0  0  0  0  0  0  0  0
   -1.0025   -5.0942   27.4586 C   0  0  0  0  0  0  0  0  0  0  0  0
    2.2474   -8.9123   16.6273 C   0  0  0  0  0  0  0  0  0  0  0  0
    4.4957   -9.2636   17.3041 C   0  0  0  0  0  0  0  0  0  0  0  0
   -1.8070   -5.6086   28.1920 O   0  0  0  0  0  0  0  0  0  0  0  0
   10.4296   -5.1799   28.3140 C   0  0  0  0  0  0  0  0  0  0  0  0
    6.6017   -5.9004   26.9187 C   0  0  0  0  0  0  0  0  0  0  0  0
    2.4761   -6.9940   26.4111 N   0  0  0  0  0  0  0  0  0  0  0  0
    9.1353   -5.4053   27.8239 C   0  0  0  0  0  0  0  0  0  0  0  0
    0.9922   -9.3232   16.5995 O   0  0  0  0  0  0  0  0  0  0  0  0
    1.5232   -7.6869   27.1182 C   0  0  0  0  0  0  0  0  0  0  0  0
    8.6878   -6.6715   27.7262 N   0  0  0  0  0  0  0  0  0  0  0  0
    6.9911   -8.2423   27.1808 C   0  0  0  0  0  0  0  0  0  0  0  0
    3.8436   -7.2758   16.0578 C   0  0  0  0  0  0  0  0  0  0  0  0
    3.1882   -9.7190   17.2566 C   0  0  0  0  0  0  0  0  0  0  0  0
    5.3488   -6.1737   26.5092 C   0  0  0  0  0  0  0  0  0  0  0  0
    7.4567   -6.9464   27.2858 C   0  0  0  0  0  0  0  0  0  0  0  0
    0.1921   -5.7592   27.1123 C   0  0  0  0  0  0  0  0  0  0  0  0
    3.5517   -7.7407   25.9711 C   0  0  0  0  0  0  0  0  0  0  0  0
  1  4  4  0
  1 22  4  0
  2 20  4  0
  2 27  4  0
  3 12  4  0
  3 23  4  0
  4 25  4  0
  4 28  1  0
  5  8  4  0
  5 17  4  0
  6  7  4  0
  6 16  4  0
  7 18  4  0
  8 27  4  0
  9 13  4  0
  9 23  4  0
 10 11  1  0
 11 14  2  0
 11 27  1  0
 12 19  1  0
 12 24  4  0
 13 24  4  0
 15 18  1  0
 16 25  4  0
 16 26  4  0
 17 20  4  0
 17 28  1  0
 18 21  4  0
 21 26  4  0
 22 26  4  0
M  END
$$$$

 Created by Python create_sdf_string function

 28 30  0  0  0  0  0  0  0  0999 V2000
    5.7174   -8.4529   26.7190 C   0  0  0  0  0  0  0  0  0  0  0  0
    0.3974   -7.0711   27.5149 C   0  0  0  0  0  0  0  0  0  0  0  0
    2.5338   -7.6891   16.0102 C   0  0  0  0  0  0  0  0  0  0  0  0
    4.8690   -7.4380   26.4151 C   0  0  0  0  0  0  0  0  0  0  0  0
    2.3021   -5.6726   26.0378 C   0  0  0  0  0  0  0  0  0  0  0  0
    7.0880   -4.6163   27.0010 C   0  0  0  0  0  0  0  0  0  0  0  0
    8.3117   -4.3698   27.4436 C   0  0  0  0  0  0  0  0  0  0  0  0
    1.1339   -5.0515   26.3541 C   0  0  0  0  0  0  0  0  0  0  0  0
    4.8080   -8.0362   16.7101 C   0  0  0  0  0  0  0  0  0  0  0  0
   -1.2173   -3.9294   26.9717 O   0  0  0  0  0  0  0  0  0  0  0  0
   -1.0025   -5.0942   27.4586 C   0  0  0  0  0  0  0  0  0  0  0  0
    2.2474   -8.9123   16.6273 C   0  0  0  0  0  0  0  0  0  0  0  0
    4.4957   -9.2636   17.3041 C   0  0  0  0  0  0  0  0  0  0  0  0
   -1.8070   -5.6086   28.1920 O   0  0  0  0  0  0  0  0  0  0  0  0
   10.4296   -5.1799   28.3140 C   0  0  0  0  0  0  0  0  0  0  0  0
    6.6017   -5.9004   26.9187 C   0  0  0  0  0  0  0  0  0  0  0  0
    2.4761   -6.9940   26.4111 N   0  0  0  0  0  0  0  0  0  0  0  0
    9.1353   -5.4053   27.8239 C   0  0  0  0  0  0  0  0  0  0  0  0
    0.9922   -9.3232   16.5995 O   0  0  0  0  0  0  0  0  0  0  0  0
    1.5232   -7.6869   27.1182 C   0  0  0  0  0  0  0  0  0  0  0  0
    8.6878   -6.6715   27.7262 N   0  0  0  0  0  0  0  0  0  0  0  0
    6.9911   -8.2423   27.1808 C   0  0  0  0  0  0  0  0  0  0  0  0
    3.8436   -7.2758   16.0578 C   0  0  0  0  0  0  0  0  0  0  0  0
    3.1882   -9.7190   17.2566 C   0  0  0  0  0  0  0  0  0  0  0  0
    5.3488   -6.1737   26.5092 C   0  0  0  0  0  0  0  0  0  0  0  0
    7.4567   -6.9464   27.2858 C   0  0  0  0  0  0  0  0  0  0  0  0
    0.1921   -5.7592   27.1123 C   0  0  0  0  0  0  0  0  0  0  0  0
    3.5517   -7.7407   25.9711 C   0  0  0  0  0  0  0  0  0  0  0  0
  1  4  4  0
  1 22  4  0
  2 20  4  0
  2 27  4  0
  3 12  4  0
  3 23  4  0
  4 25  4  0
  4 28  1  0
  5  8  4  0
  5 17  4  0
  6  7  4  0
  6 16  4  0
  7 18  4  0
  8 27  4  0
  9 13  4  0
  9 23  4  0
 10 11  1  0
 11 14  2  0
 11 27  1  0
 12 19  1  0
 12 24  4  0
 13 24  4  0
 15 18  1  0
 16 25  4  0
 16 26  4  0
 17 20  4  0
 17 28  1  0
 18 21  4  0
 21 26  4  0
 22 26  4  0
M  END
$$$$

 Created by Python create_sdf_string function

 28 30  0  0  0  0  0  0  0  0999 V2000
    5.7174   -8.4529   26.7190 C   0  0  0  0  0  0  0  0  0  0  0  0
    0.3974   -7.0711   27.5149 C   0  0  0  0  0  0  0  0  0  0  0  0
    2.5338   -7.6891   16.0102 C   0  0  0  0  0  0  0  0  0  0  0  0
    4.8690   -7.4380   26.4151 C   0  0  0  0  0  0  0  0  0  0  0  0
    2.3021   -5.6726   26.0378 C   0  0  0  0  0  0  0  0  0  0  0  0
    7.0880   -4.6163   27.0010 C   0  0  0  0  0  0  0  0  0  0  0  0
    8.3117   -4.3698   27.4436 C   0  0  0  0  0  0  0  0  0  0  0  0
    1.1339   -5.0515   26.3541 C   0  0  0  0  0  0  0  0  0  0  0  0
    4.8080   -8.0362   16.7101 C   0  0  0  0  0  0  0  0  0  0  0  0
   -1.2173   -3.9294   26.9717 O   0  0  0  0  0  0  0  0  0  0  0  0
   -1.0025   -5.0942   27.4586 C   0  0  0  0  0  0  0  0  0  0  0  0
    2.2474   -8.9123   16.6273 C   0  0  0  0  0  0  0  0  0  0  0  0
    4.4957   -9.2636   17.3041 C   0  0  0  0  0  0  0  0  0  0  0  0
   -1.8070   -5.6086   28.1920 O   0  0  0  0  0  0  0  0  0  0  0  0
   10.4296   -5.1799   28.3140 C   0  0  0  0  0  0  0  0  0  0  0  0
    6.6017   -5.9004   26.9187 C   0  0  0  0  0  0  0  0  0  0  0  0
    2.4761   -6.9940   26.4111 N   0  0  0  0  0  0  0  0  0  0  0  0
    9.1353   -5.4053   27.8239 C   0  0  0  0  0  0  0  0  0  0  0  0
    0.9922   -9.3232   16.5995 O   0  0  0  0  0  0  0  0  0  0  0  0
    1.5232   -7.6869   27.1182 C   0  0  0  0  0  0  0  0  0  0  0  0
    8.6878   -6.6715   27.7262 N   0  0  0  0  0  0  0  0  0  0  0  0
    6.9911   -8.2423   27.1808 C   0  0  0  0  0  0  0  0  0  0  0  0
    3.8436   -7.2758   16.0578 C   0  0  0  0  0  0  0  0  0  0  0  0
    3.1882   -9.7190   17.2566 C   0  0  0  0  0  0  0  0  0  0  0  0
    5.3488   -6.1737   26.5092 C   0  0  0  0  0  0  0  0  0  0  0  0
    7.4567   -6.9464   27.2858 C   0  0  0  0  0  0  0  0  0  0  0  0
    0.1921   -5.7592   27.1123 C   0  0  0  0  0  0  0  0  0  0  0  0
    3.5517   -7.7407   25.9711 C   0  0  0  0  0  0  0  0  0  0  0  0
  1  4  4  0
  1 22  4  0
  2 20  4  0
  2 27  4  0
  3 12  4  0
  3 23  4  0
  4 25  4  0
  4 28  1  0
  5  8  4  0
  5 17  4  0
  6  7  4  0
  6 16  4  0
  7 18  4  0
  8 27  4  0
  9 13  4  0
  9 23  4  0
 10 11  1  0
 11 14  2  0
 11 27  1  0
 12 19  1  0
 12 24  4  0
 13 24  4  0
 15 18  1  0
 16 25  4  0
 16 26  4  0
 17 20  4  0
 17 28  1  0
 18 21  4  0
 21 26  4  0
 22 26  4  0
M  END
$$$$

 Created by Python create_sdf_string function

 28 30  0  0  0  0  0  0  0  0999 V2000
    5.7174   -8.4529   26.7190 C   0  0  0  0  0  0  0  0  0  0  0  0
    0.3974   -7.0711   27.5149 C   0  0  0  0  0  0  0  0  0  0  0  0
    2.5338   -7.6891   16.0102 C   0  0  0  0  0  0  0  0  0  0  0  0
    4.8690   -7.4380   26.4151 C   0  0  0  0  0  0  0  0  0  0  0  0
    2.3021   -5.6726   26.0378 C   0  0  0  0  0  0  0  0  0  0  0  0
    7.0880   -4.6163   27.0010 C   0  0  0  0  0  0  0  0  0  0  0  0
    8.3117   -4.3698   27.4436 C   0  0  0  0  0  0  0  0  0  0  0  0
    1.1339   -5.0515   26.3541 C   0  0  0  0  0  0  0  0  0  0  0  0
    4.8080   -8.0362   16.7101 C   0  0  0  0  0  0  0  0  0  0  0  0
   -1.2173   -3.9294   26.9717 O   0  0  0  0  0  0  0  0  0  0  0  0
   -1.0025   -5.0942   27.4586 C   0  0  0  0  0  0  0  0  0  0  0  0
    2.2474   -8.9123   16.6273 C   0  0  0  0  0  0  0  0  0  0  0  0
    4.4957   -9.2636   17.3041 C   0  0  0  0  0  0  0  0  0  0  0  0
   -1.8070   -5.6086   28.1920 O   0  0  0  0  0  0  0  0  0  0  0  0
   10.4296   -5.1799   28.3140 C   0  0  0  0  0  0  0  0  0  0  0  0
    6.6017   -5.9004   26.9187 C   0  0  0  0  0  0  0  0  0  0  0  0
    2.4761   -6.9940   26.4111 N   0  0  0  0  0  0  0  0  0  0  0  0
    9.1353   -5.4053   27.8239 C   0  0  0  0  0  0  0  0  0  0  0  0
    0.9922   -9.3232   16.5995 O   0  0  0  0  0  0  0  0  0  0  0  0
    1.5232   -7.6869   27.1182 C   0  0  0  0  0  0  0  0  0  0  0  0
    8.6878   -6.6715   27.7262 N   0  0  0  0  0  0  0  0  0  0  0  0
    6.9911   -8.2423   27.1808 C   0  0  0  0  0  0  0  0  0  0  0  0
    3.8436   -7.2758   16.0578 C   0  0  0  0  0  0  0  0  0  0  0  0
    3.1882   -9.7190   17.2566 C   0  0  0  0  0  0  0  0  0  0  0  0
    5.3488   -6.1737   26.5092 C   0  0  0  0  0  0  0  0  0  0  0  0
    7.4567   -6.9464   27.2858 C   0  0  0  0  0  0  0  0  0  0  0  0
    0.1921   -5.7592   27.1123 C   0  0  0  0  0  0  0  0  0  0  0  0
    3.5517   -7.7407   25.9711 C   0  0  0  0  0  0  0  0  0  0  0  0
  1  4  4  0
  1 22  4  0
  2 20  4  0
  2 27  4  0
  3 12  4  0
  3 23  4  0
  4 25  4  0
  4 28  1  0
  5  8  4  0
  5 17  4  0
  6  7  4  0
  6 16  4  0
  7 18  4  0
  8 27  4  0
  9 13  4  0
  9 23  4  0
 10 11  1  0
 11 14  2  0
 11 27  1  0
 12 19  1  0
 12 24  4  0
 13 24  4  0
 15 18  1  0
 16 25  4  0
 16 26  4  0
 17 20  4  0
 17 28  1  0
 18 21  4  0
 21 26  4  0
 22 26  4  0
M  END
$$$$

 Created by Python create_sdf_string function

 28 30  0  0  0  0  0  0  0  0999 V2000
    5.7174   -8.4529   26.7190 C   0  0  0  0  0  0  0  0  0  0  0  0
    0.3974   -7.0711   27.5149 C   0  0  0  0  0  0  0  0  0  0  0  0
    2.5338   -7.6891   16.0102 C   0  0  0  0  0  0  0  0  0  0  0  0
    4.8690   -7.4380   26.4151 C   0  0  0  0  0  0  0  0  0  0  0  0
    2.3021   -5.6726   26.0378 C   0  0  0  0  0  0  0  0  0  0  0  0
    7.0880   -4.6163   27.0010 C   0  0  0  0  0  0  0  0  0  0  0  0
    8.3117   -4.3698   27.4436 C   0  0  0  0  0  0  0  0  0  0  0  0
    1.1339   -5.0515   26.3541 C   0  0  0  0  0  0  0  0  0  0  0  0
    4.8080   -8.0362   16.7101 C   0  0  0  0  0  0  0  0  0  0  0  0
   -1.2173   -3.9294   26.9717 O   0  0  0  0  0  0  0  0  0  0  0  0
   -1.0025   -5.0942   27.4586 C   0  0  0  0  0  0  0  0  0  0  0  0
    2.2474   -8.9123   16.6273 C   0  0  0  0  0  0  0  0  0  0  0  0
    4.4957   -9.2636   17.3041 C   0  0  0  0  0  0  0  0  0  0  0  0
   -1.8070   -5.6086   28.1920 O   0  0  0  0  0  0  0  0  0  0  0  0
   10.4296   -5.1799   28.3140 C   0  0  0  0  0  0  0  0  0  0  0  0
    6.6017   -5.9004   26.9187 C   0  0  0  0  0  0  0  0  0  0  0  0
    2.4761   -6.9940   26.4111 N   0  0  0  0  0  0  0  0  0  0  0  0
    9.1353   -5.4053   27.8239 C   0  0  0  0  0  0  0  0  0  0  0  0
    0.9922   -9.3232   16.5995 O   0  0  0  0  0  0  0  0  0  0  0  0
    1.5232   -7.6869   27.1182 C   0  0  0  0  0  0  0  0  0  0  0  0
    8.6878   -6.6715   27.7262 N   0  0  0  0  0  0  0  0  0  0  0  0
    6.9911   -8.2423   27.1808 C   0  0  0  0  0  0  0  0  0  0  0  0
    3.8436   -7.2758   16.0578 C   0  0  0  0  0  0  0  0  0  0  0  0
    3.1882   -9.7190   17.2566 C   0  0  0  0  0  0  0  0  0  0  0  0
    5.3488   -6.1737   26.5092 C   0  0  0  0  0  0  0  0  0  0  0  0
    7.4567   -6.9464   27.2858 C   0  0  0  0  0  0  0  0  0  0  0  0
    0.1921   -5.7592   27.1123 C   0  0  0  0  0  0  0  0  0  0  0  0
    3.5517   -7.7407   25.9711 C   0  0  0  0  0  0  0  0  0  0  0  0
  1  4  4  0
  1 22  4  0
  2 20  4  0
  2 27  4  0
  3 12  4  0
  3 23  4  0
  4 25  4  0
  4 28  1  0
  5  8  4  0
  5 17  4  0
  6  7  4  0
  6 16  4  0
  7 18  4  0
  8 27  4  0
  9 13  4  0
  9 23  4  0
 10 11  1  0
 11 14  2  0
 11 27  1  0
 12 19  1  0
 12 24  4  0
 13 24  4  0
 15 18  1  0
 16 25  4  0
 16 26  4  0
 17 20  4  0
 17 28  1  0
 18 21  4  0
 21 26  4  0
 22 26  4  0
M  END
$$$$

 Created by Python create_sdf_string function

 28 30  0  0  0  0  0  0  0  0999 V2000
    5.7174   -8.4529   26.7190 C   0  0  0  0  0  0  0  0  0  0  0  0
    0.3974   -7.0711   27.5149 C   0  0  0  0  0  0  0  0  0  0  0  0
    2.5338   -7.6891   16.0102 C   0  0  0  0  0  0  0  0  0  0  0  0
    4.8690   -7.4380   26.4151 C   0  0  0  0  0  0  0  0  0  0  0  0
    2.3021   -5.6726   26.0378 C   0  0  0  0  0  0  0  0  0  0  0  0
    7.0880   -4.6163   27.0010 C   0  0  0  0  0  0  0  0  0  0  0  0
    8.3117   -4.3698   27.4436 C   0  0  0  0  0  0  0  0  0  0  0  0
    1.1339   -5.0515   26.3541 C   0  0  0  0  0  0  0  0  0  0  0  0
    4.8080   -8.0362   16.7101 C   0  0  0  0  0  0  0  0  0  0  0  0
   -1.2173   -3.9294   26.9717 O   0  0  0  0  0  0  0  0  0  0  0  0
   -1.0025   -5.0942   27.4586 C   0  0  0  0  0  0  0  0  0  0  0  0
    2.2474   -8.9123   16.6273 C   0  0  0  0  0  0  0  0  0  0  0  0
    4.4957   -9.2636   17.3041 C   0  0  0  0  0  0  0  0  0  0  0  0
   -1.8070   -5.6086   28.1920 O   0  0  0  0  0  0  0  0  0  0  0  0
   10.4296   -5.1799   28.3140 C   0  0  0  0  0  0  0  0  0  0  0  0
    6.6017   -5.9004   26.9187 C   0  0  0  0  0  0  0  0  0  0  0  0
    2.4761   -6.9940   26.4111 N   0  0  0  0  0  0  0  0  0  0  0  0
    9.1353   -5.4053   27.8239 C   0  0  0  0  0  0  0  0  0  0  0  0
    0.9922   -9.3232   16.5995 O   0  0  0  0  0  0  0  0  0  0  0  0
    1.5232   -7.6869   27.1182 C   0  0  0  0  0  0  0  0  0  0  0  0
    8.6878   -6.6715   27.7262 N   0  0  0  0  0  0  0  0  0  0  0  0
    6.9911   -8.2423   27.1808 C   0  0  0  0  0  0  0  0  0  0  0  0
    3.8436   -7.2758   16.0578 C   0  0  0  0  0  0  0  0  0  0  0  0
    3.1882   -9.7190   17.2566 C   0  0  0  0  0  0  0  0  0  0  0  0
    5.3488   -6.1737   26.5092 C   0  0  0  0  0  0  0  0  0  0  0  0
    7.4567   -6.9464   27.2858 C   0  0  0  0  0  0  0  0  0  0  0  0
    0.1921   -5.7592   27.1123 C   0  0  0  0  0  0  0  0  0  0  0  0
    3.5517   -7.7407   25.9711 C   0  0  0  0  0  0  0  0  0  0  0  0
  1  4  4  0
  1 22  4  0
  2 20  4  0
  2 27  4  0
  3 12  4  0
  3 23  4  0
  4 25  4  0
  4 28  1  0
  5  8  4  0
  5 17  4  0
  6  7  4  0
  6 16  4  0
  7 18  4  0
  8 27  4  0
  9 13  4  0
  9 23  4  0
 10 11  1  0
 11 14  2  0
 11 27  1  0
 12 19  1  0
 12 24  4  0
 13 24  4  0
 15 18  1  0
 16 25  4  0
 16 26  4  0
 17 20  4  0
 17 28  1  0
 18 21  4  0
 21 26  4  0
 22 26  4  0
M  END
$$$$

 Created by Python create_sdf_string function

 28 30  0  0  0  0  0  0  0  0999 V2000
    5.7174   -8.4529   26.7190 C   0  0  0  0  0  0  0  0  0  0  0  0
    0.3974   -7.0711   27.5149 C   0  0  0  0  0  0  0  0  0  0  0  0
    2.5338   -7.6891   16.0102 C   0  0  0  0  0  0  0  0  0  0  0  0
    4.8690   -7.4380   26.4151 C   0  0  0  0  0  0  0  0  0  0  0  0
    2.3021   -5.6726   26.0378 C   0  0  0  0  0  0  0  0  0  0  0  0
    7.0880   -4.6163   27.0010 C   0  0  0  0  0  0  0  0  0  0  0  0
    8.3117   -4.3698   27.4436 C   0  0  0  0  0  0  0  0  0  0  0  0
    1.1339   -5.0515   26.3541 C   0  0  0  0  0  0  0  0  0  0  0  0
    4.8080   -8.0362   16.7101 C   0  0  0  0  0  0  0  0  0  0  0  0
   -1.2173   -3.9294   26.9717 O   0  0  0  0  0  0  0  0  0  0  0  0
   -1.0025   -5.0942   27.4586 C   0  0  0  0  0  0  0  0  0  0  0  0
    2.2474   -8.9123   16.6273 C   0  0  0  0  0  0  0  0  0  0  0  0
    4.4957   -9.2636   17.3041 C   0  0  0  0  0  0  0  0  0  0  0  0
   -1.8070   -5.6086   28.1920 O   0  0  0  0  0  0  0  0  0  0  0  0
   10.4296   -5.1799   28.3140 C   0  0  0  0  0  0  0  0  0  0  0  0
    6.6017   -5.9004   26.9187 C   0  0  0  0  0  0  0  0  0  0  0  0
    2.4761   -6.9940   26.4111 N   0  0  0  0  0  0  0  0  0  0  0  0
    9.1353   -5.4053   27.8239 C   0  0  0  0  0  0  0  0  0  0  0  0
    0.9922   -9.3232   16.5995 O   0  0  0  0  0  0  0  0  0  0  0  0
    1.5232   -7.6869   27.1182 C   0  0  0  0  0  0  0  0  0  0  0  0
    8.6878   -6.6715   27.7262 N   0  0  0  0  0  0  0  0  0  0  0  0
    6.9911   -8.2423   27.1808 C   0  0  0  0  0  0  0  0  0  0  0  0
    3.8436   -7.2758   16.0578 C   0  0  0  0  0  0  0  0  0  0  0  0
    3.1882   -9.7190   17.2566 C   0  0  0  0  0  0  0  0  0  0  0  0
    5.3488   -6.1737   26.5092 C   0  0  0  0  0  0  0  0  0  0  0  0
    7.4567   -6.9464   27.2858 C   0  0  0  0  0  0  0  0  0  0  0  0
    0.1921   -5.7592   27.1123 C   0  0  0  0  0  0  0  0  0  0  0  0
    3.5517   -7.7407   25.9711 C   0  0  0  0  0  0  0  0  0  0  0  0
  1  4  4  0
  1 22  4  0
  2 20  4  0
  2 27  4  0
  3 12  4  0
  3 23  4  0
  4 25  4  0
  4 28  1  0
  5  8  4  0
  5 17  4  0
  6  7  4  0
  6 16  4  0
  7 18  4  0
  8 27  4  0
  9 13  4  0
  9 23  4  0
 10 11  1  0
 11 14  2  0
 11 27  1  0
 12 19  1  0
 12 24  4  0
 13 24  4  0
 15 18  1  0
 16 25  4  0
 16 26  4  0
 17 20  4  0
 17 28  1  0
 18 21  4  0
 21 26  4  0
 22 26  4  0
M  END
$$$$

 Created by Python create_sdf_string function

 28 30  0  0  0  0  0  0  0  0999 V2000
    5.7174   -8.4529   26.7190 C   0  0  0  0  0  0  0  0  0  0  0  0
    0.3974   -7.0711   27.5149 C   0  0  0  0  0  0  0  0  0  0  0  0
    2.5338   -7.6891   16.0102 C   0  0  0  0  0  0  0  0  0  0  0  0
    4.8690   -7.4380   26.4151 C   0  0  0  0  0  0  0  0  0  0  0  0
    2.3021   -5.6726   26.0378 C   0  0  0  0  0  0  0  0  0  0  0  0
    7.0880   -4.6163   27.0010 C   0  0  0  0  0  0  0  0  0  0  0  0
    8.3117   -4.3698   27.4436 C   0  0  0  0  0  0  0  0  0  0  0  0
    1.1339   -5.0515   26.3541 C   0  0  0  0  0  0  0  0  0  0  0  0
    4.8080   -8.0362   16.7101 C   0  0  0  0  0  0  0  0  0  0  0  0
   -1.2173   -3.9294   26.9717 O   0  0  0  0  0  0  0  0  0  0  0  0
   -1.0025   -5.0942   27.4586 C   0  0  0  0  0  0  0  0  0  0  0  0
    2.2474   -8.9123   16.6273 C   0  0  0  0  0  0  0  0  0  0  0  0
    4.4957   -9.2636   17.3041 C   0  0  0  0  0  0  0  0  0  0  0  0
   -1.8070   -5.6086   28.1920 O   0  0  0  0  0  0  0  0  0  0  0  0
   10.4296   -5.1799   28.3140 C   0  0  0  0  0  0  0  0  0  0  0  0
    6.6017   -5.9004   26.9187 C   0  0  0  0  0  0  0  0  0  0  0  0
    2.4761   -6.9940   26.4111 N   0  0  0  0  0  0  0  0  0  0  0  0
    9.1353   -5.4053   27.8239 C   0  0  0  0  0  0  0  0  0  0  0  0
    0.9922   -9.3232   16.5995 O   0  0  0  0  0  0  0  0  0  0  0  0
    1.5232   -7.6869   27.1182 C   0  0  0  0  0  0  0  0  0  0  0  0
    8.6878   -6.6715   27.7262 N   0  0  0  0  0  0  0  0  0  0  0  0
    6.9911   -8.2423   27.1808 C   0  0  0  0  0  0  0  0  0  0  0  0
    3.8436   -7.2758   16.0578 C   0  0  0  0  0  0  0  0  0  0  0  0
    3.1882   -9.7190   17.2566 C   0  0  0  0  0  0  0  0  0  0  0  0
    5.3488   -6.1737   26.5092 C   0  0  0  0  0  0  0  0  0  0  0  0
    7.4567   -6.9464   27.2858 C   0  0  0  0  0  0  0  0  0  0  0  0
    0.1921   -5.7592   27.1123 C   0  0  0  0  0  0  0  0  0  0  0  0
    3.5517   -7.7407   25.9711 C   0  0  0  0  0  0  0  0  0  0  0  0
  1  4  4  0
  1 22  4  0
  2 20  4  0
  2 27  4  0
  3 12  4  0
  3 23  4  0
  4 25  4  0
  4 28  1  0
  5  8  4  0
  5 17  4  0
  6  7  4  0
  6 16  4  0
  7 18  4  0
  8 27  4  0
  9 13  4  0
  9 23  4  0
 10 11  1  0
 11 14  2  0
 11 27  1  0
 12 19  1  0
 12 24  4  0
 13 24  4  0
 15 18  1  0
 16 25  4  0
 16 26  4  0
 17 20  4  0
 17 28  1  0
 18 21  4  0
 21 26  4  0
 22 26  4  0
M  END
$$$$

 Created by Python create_sdf_string function

 28 30  0  0  0  0  0  0  0  0999 V2000
    5.7174   -8.4529   26.7190 C   0  0  0  0  0  0  0  0  0  0  0  0
    0.3974   -7.0711   27.5149 C   0  0  0  0  0  0  0  0  0  0  0  0
    2.5338   -7.6891   16.0102 C   0  0  0  0  0  0  0  0  0  0  0  0
    4.8690   -7.4380   26.4151 C   0  0  0  0  0  0  0  0  0  0  0  0
    2.3021   -5.6726   26.0378 C   0  0  0  0  0  0  0  0  0  0  0  0
    7.0880   -4.6163   27.0010 C   0  0  0  0  0  0  0  0  0  0  0  0
    8.3117   -4.3698   27.4436 C   0  0  0  0  0  0  0  0  0  0  0  0
    1.1339   -5.0515   26.3541 C   0  0  0  0  0  0  0  0  0  0  0  0
    4.8080   -8.0362   16.7101 C   0  0  0  0  0  0  0  0  0  0  0  0
   -1.2173   -3.9294   26.9717 O   0  0  0  0  0  0  0  0  0  0  0  0
   -1.0025   -5.0942   27.4586 C   0  0  0  0  0  0  0  0  0  0  0  0
    2.2474   -8.9123   16.6273 C   0  0  0  0  0  0  0  0  0  0  0  0
    4.4957   -9.2636   17.3041 C   0  0  0  0  0  0  0  0  0  0  0  0
   -1.8070   -5.6086   28.1920 O   0  0  0  0  0  0  0  0  0  0  0  0
   10.4296   -5.1799   28.3140 C   0  0  0  0  0  0  0  0  0  0  0  0
    6.6017   -5.9004   26.9187 C   0  0  0  0  0  0  0  0  0  0  0  0
    2.4761   -6.9940   26.4111 N   0  0  0  0  0  0  0  0  0  0  0  0
    9.1353   -5.4053   27.8239 C   0  0  0  0  0  0  0  0  0  0  0  0
    0.9922   -9.3232   16.5995 O   0  0  0  0  0  0  0  0  0  0  0  0
    1.5232   -7.6869   27.1182 C   0  0  0  0  0  0  0  0  0  0  0  0
    8.6878   -6.6715   27.7262 N   0  0  0  0  0  0  0  0  0  0  0  0
    6.9911   -8.2423   27.1808 C   0  0  0  0  0  0  0  0  0  0  0  0
    3.8436   -7.2758   16.0578 C   0  0  0  0  0  0  0  0  0  0  0  0
    3.1882   -9.7190   17.2566 C   0  0  0  0  0  0  0  0  0  0  0  0
    5.3488   -6.1737   26.5092 C   0  0  0  0  0  0  0  0  0  0  0  0
    7.4567   -6.9464   27.2858 C   0  0  0  0  0  0  0  0  0  0  0  0
    0.1921   -5.7592   27.1123 C   0  0  0  0  0  0  0  0  0  0  0  0
    3.5517   -7.7407   25.9711 C   0  0  0  0  0  0  0  0  0  0  0  0
  1  4  4  0
  1 22  4  0
  2 20  4  0
  2 27  4  0
  3 12  4  0
  3 23  4  0
  4 25  4  0
  4 28  1  0
  5  8  4  0
  5 17  4  0
  6  7  4  0
  6 16  4  0
  7 18  4  0
  8 27  4  0
  9 13  4  0
  9 23  4  0
 10 11  1  0
 11 14  2  0
 11 27  1  0
 12 19  1  0
 12 24  4  0
 13 24  4  0
 15 18  1  0
 16 25  4  0
 16 26  4  0
 17 20  4  0
 17 28  1  0
 18 21  4  0
 21 26  4  0
 22 26  4  0
M  END
$$$$

 Created by Python create_sdf_string function

 28 30  0  0  0  0  0  0  0  0999 V2000
    5.7174   -8.4529   26.7190 C   0  0  0  0  0  0  0  0  0  0  0  0
    0.3974   -7.0711   27.5149 C   0  0  0  0  0  0  0  0  0  0  0  0
    2.5338   -7.6891   16.0102 C   0  0  0  0  0  0  0  0  0  0  0  0
    4.8690   -7.4380   26.4151 C   0  0  0  0  0  0  0  0  0  0  0  0
    2.3021   -5.6726   26.0378 C   0  0  0  0  0  0  0  0  0  0  0  0
    7.0880   -4.6163   27.0010 C   0  0  0  0  0  0  0  0  0  0  0  0
    8.3117   -4.3698   27.4436 C   0  0  0  0  0  0  0  0  0  0  0  0
    1.1339   -5.0515   26.3541 C   0  0  0  0  0  0  0  0  0  0  0  0
    4.8080   -8.0362   16.7101 C   0  0  0  0  0  0  0  0  0  0  0  0
   -1.2173   -3.9294   26.9717 O   0  0  0  0  0  0  0  0  0  0  0  0
   -1.0025   -5.0942   27.4586 C   0  0  0  0  0  0  0  0  0  0  0  0
    2.2474   -8.9123   16.6273 C   0  0  0  0  0  0  0  0  0  0  0  0
    4.4957   -9.2636   17.3041 C   0  0  0  0  0  0  0  0  0  0  0  0
   -1.8070   -5.6086   28.1920 O   0  0  0  0  0  0  0  0  0  0  0  0
   10.4296   -5.1799   28.3140 C   0  0  0  0  0  0  0  0  0  0  0  0
    6.6017   -5.9004   26.9187 C   0  0  0  0  0  0  0  0  0  0  0  0
    2.4761   -6.9940   26.4111 N   0  0  0  0  0  0  0  0  0  0  0  0
    9.1353   -5.4053   27.8239 C   0  0  0  0  0  0  0  0  0  0  0  0
    0.9922   -9.3232   16.5995 O   0  0  0  0  0  0  0  0  0  0  0  0
    1.5232   -7.6869   27.1182 C   0  0  0  0  0  0  0  0  0  0  0  0
    8.6878   -6.6715   27.7262 N   0  0  0  0  0  0  0  0  0  0  0  0
    6.9911   -8.2423   27.1808 C   0  0  0  0  0  0  0  0  0  0  0  0
    3.8436   -7.2758   16.0578 C   0  0  0  0  0  0  0  0  0  0  0  0
    3.1882   -9.7190   17.2566 C   0  0  0  0  0  0  0  0  0  0  0  0
    5.3488   -6.1737   26.5092 C   0  0  0  0  0  0  0  0  0  0  0  0
    7.4567   -6.9464   27.2858 C   0  0  0  0  0  0  0  0  0  0  0  0
    0.1921   -5.7592   27.1123 C   0  0  0  0  0  0  0  0  0  0  0  0
    3.5517   -7.7407   25.9711 C   0  0  0  0  0  0  0  0  0  0  0  0
  1  4  4  0
  1 22  4  0
  2 20  4  0
  2 27  4  0
  3 12  4  0
  3 23  4  0
  4 25  4  0
  4 28  1  0
  5  8  4  0
  5 17  4  0
  6  7  4  0
  6 16  4  0
  7 18  4  0
  8 27  4  0
  9 13  4  0
  9 23  4  0
 10 11  1  0
 11 14  2  0
 11 27  1  0
 12 19  1  0
 12 24  4  0
 13 24  4  0
 15 18  1  0
 16 25  4  0
 16 26  4  0
 17 20  4  0
 17 28  1  0
 18 21  4  0
 21 26  4  0
 22 26  4  0
M  END
$$$$

 Created by Python create_sdf_string function

 28 30  0  0  0  0  0  0  0  0999 V2000
    5.7174   -8.4529   26.7190 C   0  0  0  0  0  0  0  0  0  0  0  0
    0.3974   -7.0711   27.5149 C   0  0  0  0  0  0  0  0  0  0  0  0
    2.5338   -7.6891   16.0102 C   0  0  0  0  0  0  0  0  0  0  0  0
    4.8690   -7.4380   26.4151 C   0  0  0  0  0  0  0  0  0  0  0  0
    2.3021   -5.6726   26.0378 C   0  0  0  0  0  0  0  0  0  0  0  0
    7.0880   -4.6163   27.0010 C   0  0  0  0  0  0  0  0  0  0  0  0
    8.3117   -4.3698   27.4436 C   0  0  0  0  0  0  0  0  0  0  0  0
    1.1339   -5.0515   26.3541 C   0  0  0  0  0  0  0  0  0  0  0  0
    4.8080   -8.0362   16.7101 C   0  0  0  0  0  0  0  0  0  0  0  0
   -1.2173   -3.9294   26.9717 O   0  0  0  0  0  0  0  0  0  0  0  0
   -1.0025   -5.0942   27.4586 C   0  0  0  0  0  0  0  0  0  0  0  0
    2.2474   -8.9123   16.6273 C   0  0  0  0  0  0  0  0  0  0  0  0
    4.4957   -9.2636   17.3041 C   0  0  0  0  0  0  0  0  0  0  0  0
   -1.8070   -5.6086   28.1920 O   0  0  0  0  0  0  0  0  0  0  0  0
   10.4296   -5.1799   28.3140 C   0  0  0  0  0  0  0  0  0  0  0  0
    6.6017   -5.9004   26.9187 C   0  0  0  0  0  0  0  0  0  0  0  0
    2.4761   -6.9940   26.4111 N   0  0  0  0  0  0  0  0  0  0  0  0
    9.1353   -5.4053   27.8239 C   0  0  0  0  0  0  0  0  0  0  0  0
    0.9922   -9.3232   16.5995 O   0  0  0  0  0  0  0  0  0  0  0  0
    1.5232   -7.6869   27.1182 C   0  0  0  0  0  0  0  0  0  0  0  0
    8.6878   -6.6715   27.7262 N   0  0  0  0  0  0  0  0  0  0  0  0
    6.9911   -8.2423   27.1808 C   0  0  0  0  0  0  0  0  0  0  0  0
    3.8436   -7.2758   16.0578 C   0  0  0  0  0  0  0  0  0  0  0  0
    3.1882   -9.7190   17.2566 C   0  0  0  0  0  0  0  0  0  0  0  0
    5.3488   -6.1737   26.5092 C   0  0  0  0  0  0  0  0  0  0  0  0
    7.4567   -6.9464   27.2858 C   0  0  0  0  0  0  0  0  0  0  0  0
    0.1921   -5.7592   27.1123 C   0  0  0  0  0  0  0  0  0  0  0  0
    3.5517   -7.7407   25.9711 C   0  0  0  0  0  0  0  0  0  0  0  0
  1  4  4  0
  1 22  4  0
  2 20  4  0
  2 27  4  0
  3 12  4  0
  3 23  4  0
  4 25  4  0
  4 28  1  0
  5  8  4  0
  5 17  4  0
  6  7  4  0
  6 16  4  0
  7 18  4  0
  8 27  4  0
  9 13  4  0
  9 23  4  0
 10 11  1  0
 11 14  2  0
 11 27  1  0
 12 19  1  0
 12 24  4  0
 13 24  4  0
 15 18  1  0
 16 25  4  0
 16 26  4  0
 17 20  4  0
 17 28  1  0
 18 21  4  0
 21 26  4  0
 22 26  4  0
M  END
$$$$

 Created by Python create_sdf_string function

 28 30  0  0  0  0  0  0  0  0999 V2000
    5.7174   -8.4529   26.7190 C   0  0  0  0  0  0  0  0  0  0  0  0
    0.3974   -7.0711   27.5149 C   0  0  0  0  0  0  0  0  0  0  0  0
    2.5338   -7.6891   16.0102 C   0  0  0  0  0  0  0  0  0  0  0  0
    4.8690   -7.4380   26.4151 C   0  0  0  0  0  0  0  0  0  0  0  0
    2.3021   -5.6726   26.0378 C   0  0  0  0  0  0  0  0  0  0  0  0
    7.0880   -4.6163   27.0010 C   0  0  0  0  0  0  0  0  0  0  0  0
    8.3117   -4.3698   27.4436 C   0  0  0  0  0  0  0  0  0  0  0  0
    1.1339   -5.0515   26.3541 C   0  0  0  0  0  0  0  0  0  0  0  0
    4.8080   -8.0362   16.7101 C   0  0  0  0  0  0  0  0  0  0  0  0
   -1.2173   -3.9294   26.9717 O   0  0  0  0  0  0  0  0  0  0  0  0
   -1.0025   -5.0942   27.4586 C   0  0  0  0  0  0  0  0  0  0  0  0
    2.2474   -8.9123   16.6273 C   0  0  0  0  0  0  0  0  0  0  0  0
    4.4957   -9.2636   17.3041 C   0  0  0  0  0  0  0  0  0  0  0  0
   -1.8070   -5.6086   28.1920 O   0  0  0  0  0  0  0  0  0  0  0  0
   10.4296   -5.1799   28.3140 C   0  0  0  0  0  0  0  0  0  0  0  0
    6.6017   -5.9004   26.9187 C   0  0  0  0  0  0  0  0  0  0  0  0
    2.4761   -6.9940   26.4111 N   0  0  0  0  0  0  0  0  0  0  0  0
    9.1353   -5.4053   27.8239 C   0  0  0  0  0  0  0  0  0  0  0  0
    0.9922   -9.3232   16.5995 O   0  0  0  0  0  0  0  0  0  0  0  0
    1.5232   -7.6869   27.1182 C   0  0  0  0  0  0  0  0  0  0  0  0
    8.6878   -6.6715   27.7262 N   0  0  0  0  0  0  0  0  0  0  0  0
    6.9911   -8.2423   27.1808 C   0  0  0  0  0  0  0  0  0  0  0  0
    3.8436   -7.2758   16.0578 C   0  0  0  0  0  0  0  0  0  0  0  0
    3.1882   -9.7190   17.2566 C   0  0  0  0  0  0  0  0  0  0  0  0
    5.3488   -6.1737   26.5092 C   0  0  0  0  0  0  0  0  0  0  0  0
    7.4567   -6.9464   27.2858 C   0  0  0  0  0  0  0  0  0  0  0  0
    0.1921   -5.7592   27.1123 C   0  0  0  0  0  0  0  0  0  0  0  0
    3.5517   -7.7407   25.9711 C   0  0  0  0  0  0  0  0  0  0  0  0
  1  4  4  0
  1 22  4  0
  2 20  4  0
  2 27  4  0
  3 12  4  0
  3 23  4  0
  4 25  4  0
  4 28  1  0
  5  8  4  0
  5 17  4  0
  6  7  4  0
  6 16  4  0
  7 18  4  0
  8 27  4  0
  9 13  4  0
  9 23  4  0
 10 11  1  0
 11 14  2  0
 11 27  1  0
 12 19  1  0
 12 24  4  0
 13 24  4  0
 15 18  1  0
 16 25  4  0
 16 26  4  0
 17 20  4  0
 17 28  1  0
 18 21  4  0
 21 26  4  0
 22 26  4  0
M  END
$$$$

 Created by Python create_sdf_string function

 28 30  0  0  0  0  0  0  0  0999 V2000
    5.7174   -8.4529   26.7190 C   0  0  0  0  0  0  0  0  0  0  0  0
    0.3974   -7.0711   27.5149 C   0  0  0  0  0  0  0  0  0  0  0  0
    2.5338   -7.6891   16.0102 C   0  0  0  0  0  0  0  0  0  0  0  0
    4.8690   -7.4380   26.4151 C   0  0  0  0  0  0  0  0  0  0  0  0
    2.3021   -5.6726   26.0378 C   0  0  0  0  0  0  0  0  0  0  0  0
    7.0880   -4.6163   27.0010 C   0  0  0  0  0  0  0  0  0  0  0  0
    8.3117   -4.3698   27.4436 C   0  0  0  0  0  0  0  0  0  0  0  0
    1.1339   -5.0515   26.3541 C   0  0  0  0  0  0  0  0  0  0  0  0
    4.8080   -8.0362   16.7101 C   0  0  0  0  0  0  0  0  0  0  0  0
   -1.2173   -3.9294   26.9717 O   0  0  0  0  0  0  0  0  0  0  0  0
   -1.0025   -5.0942   27.4586 C   0  0  0  0  0  0  0  0  0  0  0  0
    2.2474   -8.9123   16.6273 C   0  0  0  0  0  0  0  0  0  0  0  0
    4.4957   -9.2636   17.3041 C   0  0  0  0  0  0  0  0  0  0  0  0
   -1.8070   -5.6086   28.1920 O   0  0  0  0  0  0  0  0  0  0  0  0
   10.4296   -5.1799   28.3140 C   0  0  0  0  0  0  0  0  0  0  0  0
    6.6017   -5.9004   26.9187 C   0  0  0  0  0  0  0  0  0  0  0  0
    2.4761   -6.9940   26.4111 N   0  0  0  0  0  0  0  0  0  0  0  0
    9.1353   -5.4053   27.8239 C   0  0  0  0  0  0  0  0  0  0  0  0
    0.9922   -9.3232   16.5995 O   0  0  0  0  0  0  0  0  0  0  0  0
    1.5232   -7.6869   27.1182 C   0  0  0  0  0  0  0  0  0  0  0  0
    8.6878   -6.6715   27.7262 N   0  0  0  0  0  0  0  0  0  0  0  0
    6.9911   -8.2423   27.1808 C   0  0  0  0  0  0  0  0  0  0  0  0
    3.8436   -7.2758   16.0578 C   0  0  0  0  0  0  0  0  0  0  0  0
    3.1882   -9.7190   17.2566 C   0  0  0  0  0  0  0  0  0  0  0  0
    5.3488   -6.1737   26.5092 C   0  0  0  0  0  0  0  0  0  0  0  0
    7.4567   -6.9464   27.2858 C   0  0  0  0  0  0  0  0  0  0  0  0
    0.1921   -5.7592   27.1123 C   0  0  0  0  0  0  0  0  0  0  0  0
    3.5517   -7.7407   25.9711 C   0  0  0  0  0  0  0  0  0  0  0  0
  1  4  4  0
  1 22  4  0
  2 20  4  0
  2 27  4  0
  3 12  4  0
  3 23  4  0
  4 25  4  0
  4 28  1  0
  5  8  4  0
  5 17  4  0
  6  7  4  0
  6 16  4  0
  7 18  4  0
  8 27  4  0
  9 13  4  0
  9 23  4  0
 10 11  1  0
 11 14  2  0
 11 27  1  0
 12 19  1  0
 12 24  4  0
 13 24  4  0
 15 18  1  0
 16 25  4  0
 16 26  4  0
 17 20  4  0
 17 28  1  0
 18 21  4  0
 21 26  4  0
 22 26  4  0
M  END
$$$$

 Created by Python create_sdf_string function

 28 30  0  0  0  0  0  0  0  0999 V2000
    5.7174   -8.4529   26.7190 C   0  0  0  0  0  0  0  0  0  0  0  0
    0.3974   -7.0711   27.5149 C   0  0  0  0  0  0  0  0  0  0  0  0
    2.5338   -7.6891   16.0102 C   0  0  0  0  0  0  0  0  0  0  0  0
    4.8690   -7.4380   26.4151 C   0  0  0  0  0  0  0  0  0  0  0  0
    2.3021   -5.6726   26.0378 C   0  0  0  0  0  0  0  0  0  0  0  0
    7.0880   -4.6163   27.0010 C   0  0  0  0  0  0  0  0  0  0  0  0
    8.3117   -4.3698   27.4436 C   0  0  0  0  0  0  0  0  0  0  0  0
    1.1339   -5.0515   26.3541 C   0  0  0  0  0  0  0  0  0  0  0  0
    4.8080   -8.0362   16.7101 C   0  0  0  0  0  0  0  0  0  0  0  0
   -1.2173   -3.9294   26.9717 O   0  0  0  0  0  0  0  0  0  0  0  0
   -1.0025   -5.0942   27.4586 C   0  0  0  0  0  0  0  0  0  0  0  0
    2.2474   -8.9123   16.6273 C   0  0  0  0  0  0  0  0  0  0  0  0
    4.4957   -9.2636   17.3041 C   0  0  0  0  0  0  0  0  0  0  0  0
   -1.8070   -5.6086   28.1920 O   0  0  0  0  0  0  0  0  0  0  0  0
   10.4296   -5.1799   28.3140 C   0  0  0  0  0  0  0  0  0  0  0  0
    6.6017   -5.9004   26.9187 C   0  0  0  0  0  0  0  0  0  0  0  0
    2.4761   -6.9940   26.4111 N   0  0  0  0  0  0  0  0  0  0  0  0
    9.1353   -5.4053   27.8239 C   0  0  0  0  0  0  0  0  0  0  0  0
    0.9922   -9.3232   16.5995 O   0  0  0  0  0  0  0  0  0  0  0  0
    1.5232   -7.6869   27.1182 C   0  0  0  0  0  0  0  0  0  0  0  0
    8.6878   -6.6715   27.7262 N   0  0  0  0  0  0  0  0  0  0  0  0
    6.9911   -8.2423   27.1808 C   0  0  0  0  0  0  0  0  0  0  0  0
    3.8436   -7.2758   16.0578 C   0  0  0  0  0  0  0  0  0  0  0  0
    3.1882   -9.7190   17.2566 C   0  0  0  0  0  0  0  0  0  0  0  0
    5.3488   -6.1737   26.5092 C   0  0  0  0  0  0  0  0  0  0  0  0
    7.4567   -6.9464   27.2858 C   0  0  0  0  0  0  0  0  0  0  0  0
    0.1921   -5.7592   27.1123 C   0  0  0  0  0  0  0  0  0  0  0  0
    3.5517   -7.7407   25.9711 C   0  0  0  0  0  0  0  0  0  0  0  0
  1  4  4  0
  1 22  4  0
  2 20  4  0
  2 27  4  0
  3 12  4  0
  3 23  4  0
  4 25  4  0
  4 28  1  0
  5  8  4  0
  5 17  4  0
  6  7  4  0
  6 16  4  0
  7 18  4  0
  8 27  4  0
  9 13  4  0
  9 23  4  0
 10 11  1  0
 11 14  2  0
 11 27  1  0
 12 19  1  0
 12 24  4  0
 13 24  4  0
 15 18  1  0
 16 25  4  0
 16 26  4  0
 17 20  4  0
 17 28  1  0
 18 21  4  0
 21 26  4  0
 22 26  4  0
M  END
$$$$

 Created by Python create_sdf_string function

 28 30  0  0  0  0  0  0  0  0999 V2000
    5.7174   -8.4529   26.7190 C   0  0  0  0  0  0  0  0  0  0  0  0
    0.3974   -7.0711   27.5149 C   0  0  0  0  0  0  0  0  0  0  0  0
    2.5338   -7.6891   16.0102 C   0  0  0  0  0  0  0  0  0  0  0  0
    4.8690   -7.4380   26.4151 C   0  0  0  0  0  0  0  0  0  0  0  0
    2.3021   -5.6726   26.0378 C   0  0  0  0  0  0  0  0  0  0  0  0
    7.0880   -4.6163   27.0010 C   0  0  0  0  0  0  0  0  0  0  0  0
    8.3117   -4.3698   27.4436 C   0  0  0  0  0  0  0  0  0  0  0  0
    1.1339   -5.0515   26.3541 C   0  0  0  0  0  0  0  0  0  0  0  0
    4.8080   -8.0362   16.7101 C   0  0  0  0  0  0  0  0  0  0  0  0
   -1.2173   -3.9294   26.9717 O   0  0  0  0  0  0  0  0  0  0  0  0
   -1.0025   -5.0942   27.4586 C   0  0  0  0  0  0  0  0  0  0  0  0
    2.2474   -8.9123   16.6273 C   0  0  0  0  0  0  0  0  0  0  0  0
    4.4957   -9.2636   17.3041 C   0  0  0  0  0  0  0  0  0  0  0  0
   -1.8070   -5.6086   28.1920 O   0  0  0  0  0  0  0  0  0  0  0  0
   10.4296   -5.1799   28.3140 C   0  0  0  0  0  0  0  0  0  0  0  0
    6.6017   -5.9004   26.9187 C   0  0  0  0  0  0  0  0  0  0  0  0
    2.4761   -6.9940   26.4111 N   0  0  0  0  0  0  0  0  0  0  0  0
    9.1353   -5.4053   27.8239 C   0  0  0  0  0  0  0  0  0  0  0  0
    0.9922   -9.3232   16.5995 O   0  0  0  0  0  0  0  0  0  0  0  0
    1.5232   -7.6869   27.1182 C   0  0  0  0  0  0  0  0  0  0  0  0
    8.6878   -6.6715   27.7262 N   0  0  0  0  0  0  0  0  0  0  0  0
    6.9911   -8.2423   27.1808 C   0  0  0  0  0  0  0  0  0  0  0  0
    3.8436   -7.2758   16.0578 C   0  0  0  0  0  0  0  0  0  0  0  0
    3.1882   -9.7190   17.2566 C   0  0  0  0  0  0  0  0  0  0  0  0
    5.3488   -6.1737   26.5092 C   0  0  0  0  0  0  0  0  0  0  0  0
    7.4567   -6.9464   27.2858 C   0  0  0  0  0  0  0  0  0  0  0  0
    0.1921   -5.7592   27.1123 C   0  0  0  0  0  0  0  0  0  0  0  0
    3.5517   -7.7407   25.9711 C   0  0  0  0  0  0  0  0  0  0  0  0
  1  4  4  0
  1 22  4  0
  2 20  4  0
  2 27  4  0
  3 12  4  0
  3 23  4  0
  4 25  4  0
  4 28  1  0
  5  8  4  0
  5 17  4  0
  6  7  4  0
  6 16  4  0
  7 18  4  0
  8 27  4  0
  9 13  4  0
  9 23  4  0
 10 11  1  0
 11 14  2  0
 11 27  1  0
 12 19  1  0
 12 24  4  0
 13 24  4  0
 15 18  1  0
 16 25  4  0
 16 26  4  0
 17 20  4  0
 17 28  1  0
 18 21  4  0
 21 26  4  0
 22 26  4  0
M  END
$$$$

 Created by Python create_sdf_string function

 28 30  0  0  0  0  0  0  0  0999 V2000
    5.7174   -8.4529   26.7190 C   0  0  0  0  0  0  0  0  0  0  0  0
    0.3974   -7.0711   27.5149 C   0  0  0  0  0  0  0  0  0  0  0  0
    2.5338   -7.6891   16.0102 C   0  0  0  0  0  0  0  0  0  0  0  0
    4.8690   -7.4380   26.4151 C   0  0  0  0  0  0  0  0  0  0  0  0
    2.3021   -5.6726   26.0378 C   0  0  0  0  0  0  0  0  0  0  0  0
    7.0880   -4.6163   27.0010 C   0  0  0  0  0  0  0  0  0  0  0  0
    8.3117   -4.3698   27.4436 C   0  0  0  0  0  0  0  0  0  0  0  0
    1.1339   -5.0515   26.3541 C   0  0  0  0  0  0  0  0  0  0  0  0
    4.8080   -8.0362   16.7101 C   0  0  0  0  0  0  0  0  0  0  0  0
   -1.2173   -3.9294   26.9717 O   0  0  0  0  0  0  0  0  0  0  0  0
   -1.0025   -5.0942   27.4586 C   0  0  0  0  0  0  0  0  0  0  0  0
    2.2474   -8.9123   16.6273 C   0  0  0  0  0  0  0  0  0  0  0  0
    4.4957   -9.2636   17.3041 C   0  0  0  0  0  0  0  0  0  0  0  0
   -1.8070   -5.6086   28.1920 O   0  0  0  0  0  0  0  0  0  0  0  0
   10.4296   -5.1799   28.3140 C   0  0  0  0  0  0  0  0  0  0  0  0
    6.6017   -5.9004   26.9187 C   0  0  0  0  0  0  0  0  0  0  0  0
    2.4761   -6.9940   26.4111 N   0  0  0  0  0  0  0  0  0  0  0  0
    9.1353   -5.4053   27.8239 C   0  0  0  0  0  0  0  0  0  0  0  0
    0.9922   -9.3232   16.5995 O   0  0  0  0  0  0  0  0  0  0  0  0
    1.5232   -7.6869   27.1182 C   0  0  0  0  0  0  0  0  0  0  0  0
    8.6878   -6.6715   27.7262 N   0  0  0  0  0  0  0  0  0  0  0  0
    6.9911   -8.2423   27.1808 C   0  0  0  0  0  0  0  0  0  0  0  0
    3.8436   -7.2758   16.0578 C   0  0  0  0  0  0  0  0  0  0  0  0
    3.1882   -9.7190   17.2566 C   0  0  0  0  0  0  0  0  0  0  0  0
    5.3488   -6.1737   26.5092 C   0  0  0  0  0  0  0  0  0  0  0  0
    7.4567   -6.9464   27.2858 C   0  0  0  0  0  0  0  0  0  0  0  0
    0.1921   -5.7592   27.1123 C   0  0  0  0  0  0  0  0  0  0  0  0
    3.5517   -7.7407   25.9711 C   0  0  0  0  0  0  0  0  0  0  0  0
  1  4  4  0
  1 22  4  0
  2 20  4  0
  2 27  4  0
  3 12  4  0
  3 23  4  0
  4 25  4  0
  4 28  1  0
  5  8  4  0
  5 17  4  0
  6  7  4  0
  6 16  4  0
  7 18  4  0
  8 27  4  0
  9 13  4  0
  9 23  4  0
 10 11  1  0
 11 14  2  0
 11 27  1  0
 12 19  1  0
 12 24  4  0
 13 24  4  0
 15 18  1  0
 16 25  4  0
 16 26  4  0
 17 20  4  0
 17 28  1  0
 18 21  4  0
 21 26  4  0
 22 26  4  0
M  END
$$$$

 Created by Python create_sdf_string function

 28 30  0  0  0  0  0  0  0  0999 V2000
    5.7174   -8.4529   26.7190 C   0  0  0  0  0  0  0  0  0  0  0  0
    0.3974   -7.0711   27.5149 C   0  0  0  0  0  0  0  0  0  0  0  0
    2.5338   -7.6891   16.0102 C   0  0  0  0  0  0  0  0  0  0  0  0
    4.8690   -7.4380   26.4151 C   0  0  0  0  0  0  0  0  0  0  0  0
    2.3021   -5.6726   26.0378 C   0  0  0  0  0  0  0  0  0  0  0  0
    7.0880   -4.6163   27.0010 C   0  0  0  0  0  0  0  0  0  0  0  0
    8.3117   -4.3698   27.4436 C   0  0  0  0  0  0  0  0  0  0  0  0
    1.1339   -5.0515   26.3541 C   0  0  0  0  0  0  0  0  0  0  0  0
    4.8080   -8.0362   16.7101 C   0  0  0  0  0  0  0  0  0  0  0  0
   -1.2173   -3.9294   26.9717 O   0  0  0  0  0  0  0  0  0  0  0  0
   -1.0025   -5.0942   27.4586 C   0  0  0  0  0  0  0  0  0  0  0  0
    2.2474   -8.9123   16.6273 C   0  0  0  0  0  0  0  0  0  0  0  0
    4.4957   -9.2636   17.3041 C   0  0  0  0  0  0  0  0  0  0  0  0
   -1.8070   -5.6086   28.1920 O   0  0  0  0  0  0  0  0  0  0  0  0
   10.4296   -5.1799   28.3140 C   0  0  0  0  0  0  0  0  0  0  0  0
    6.6017   -5.9004   26.9187 C   0  0  0  0  0  0  0  0  0  0  0  0
    2.4761   -6.9940   26.4111 N   0  0  0  0  0  0  0  0  0  0  0  0
    9.1353   -5.4053   27.8239 C   0  0  0  0  0  0  0  0  0  0  0  0
    0.9922   -9.3232   16.5995 O   0  0  0  0  0  0  0  0  0  0  0  0
    1.5232   -7.6869   27.1182 C   0  0  0  0  0  0  0  0  0  0  0  0
    8.6878   -6.6715   27.7262 N   0  0  0  0  0  0  0  0  0  0  0  0
    6.9911   -8.2423   27.1808 C   0  0  0  0  0  0  0  0  0  0  0  0
    3.8436   -7.2758   16.0578 C   0  0  0  0  0  0  0  0  0  0  0  0
    3.1882   -9.7190   17.2566 C   0  0  0  0  0  0  0  0  0  0  0  0
    5.3488   -6.1737   26.5092 C   0  0  0  0  0  0  0  0  0  0  0  0
    7.4567   -6.9464   27.2858 C   0  0  0  0  0  0  0  0  0  0  0  0
    0.1921   -5.7592   27.1123 C   0  0  0  0  0  0  0  0  0  0  0  0
    3.5517   -7.7407   25.9711 C   0  0  0  0  0  0  0  0  0  0  0  0
  1  4  4  0
  1 22  4  0
  2 20  4  0
  2 27  4  0
  3 12  4  0
  3 23  4  0
  4 25  4  0
  4 28  1  0
  5  8  4  0
  5 17  4  0
  6  7  4  0
  6 16  4  0
  7 18  4  0
  8 27  4  0
  9 13  4  0
  9 23  4  0
 10 11  1  0
 11 14  2  0
 11 27  1  0
 12 19  1  0
 12 24  4  0
 13 24  4  0
 15 18  1  0
 16 25  4  0
 16 26  4  0
 17 20  4  0
 17 28  1  0
 18 21  4  0
 21 26  4  0
 22 26  4  0
M  END
$$$$

 Created by Python create_sdf_string function

 28 30  0  0  0  0  0  0  0  0999 V2000
    5.7174   -8.4529   26.7190 C   0  0  0  0  0  0  0  0  0  0  0  0
    0.3974   -7.0711   27.5149 C   0  0  0  0  0  0  0  0  0  0  0  0
    2.5338   -7.6891   16.0102 C   0  0  0  0  0  0  0  0  0  0  0  0
    4.8690   -7.4380   26.4151 C   0  0  0  0  0  0  0  0  0  0  0  0
    2.3021   -5.6726   26.0378 C   0  0  0  0  0  0  0  0  0  0  0  0
    7.0880   -4.6163   27.0010 C   0  0  0  0  0  0  0  0  0  0  0  0
    8.3117   -4.3698   27.4436 C   0  0  0  0  0  0  0  0  0  0  0  0
    1.1339   -5.0515   26.3541 C   0  0  0  0  0  0  0  0  0  0  0  0
    4.8080   -8.0362   16.7101 C   0  0  0  0  0  0  0  0  0  0  0  0
   -1.2173   -3.9294   26.9717 O   0  0  0  0  0  0  0  0  0  0  0  0
   -1.0025   -5.0942   27.4586 C   0  0  0  0  0  0  0  0  0  0  0  0
    2.2474   -8.9123   16.6273 C   0  0  0  0  0  0  0  0  0  0  0  0
    4.4957   -9.2636   17.3041 C   0  0  0  0  0  0  0  0  0  0  0  0
   -1.8070   -5.6086   28.1920 O   0  0  0  0  0  0  0  0  0  0  0  0
   10.4296   -5.1799   28.3140 C   0  0  0  0  0  0  0  0  0  0  0  0
    6.6017   -5.9004   26.9187 C   0  0  0  0  0  0  0  0  0  0  0  0
    2.4761   -6.9940   26.4111 N   0  0  0  0  0  0  0  0  0  0  0  0
    9.1353   -5.4053   27.8239 C   0  0  0  0  0  0  0  0  0  0  0  0
    0.9922   -9.3232   16.5995 O   0  0  0  0  0  0  0  0  0  0  0  0
    1.5232   -7.6869   27.1182 C   0  0  0  0  0  0  0  0  0  0  0  0
    8.6878   -6.6715   27.7262 N   0  0  0  0  0  0  0  0  0  0  0  0
    6.9911   -8.2423   27.1808 C   0  0  0  0  0  0  0  0  0  0  0  0
    3.8436   -7.2758   16.0578 C   0  0  0  0  0  0  0  0  0  0  0  0
    3.1882   -9.7190   17.2566 C   0  0  0  0  0  0  0  0  0  0  0  0
    5.3488   -6.1737   26.5092 C   0  0  0  0  0  0  0  0  0  0  0  0
    7.4567   -6.9464   27.2858 C   0  0  0  0  0  0  0  0  0  0  0  0
    0.1921   -5.7592   27.1123 C   0  0  0  0  0  0  0  0  0  0  0  0
    3.5517   -7.7407   25.9711 C   0  0  0  0  0  0  0  0  0  0  0  0
  1  4  4  0
  1 22  4  0
  2 20  4  0
  2 27  4  0
  3 12  4  0
  3 23  4  0
  4 25  4  0
  4 28  1  0
  5  8  4  0
  5 17  4  0
  6  7  4  0
  6 16  4  0
  7 18  4  0
  8 27  4  0
  9 13  4  0
  9 23  4  0
 10 11  1  0
 11 14  2  0
 11 27  1  0
 12 19  1  0
 12 24  4  0
 13 24  4  0
 15 18  1  0
 16 25  4  0
 16 26  4  0
 17 20  4  0
 17 28  1  0
 18 21  4  0
 21 26  4  0
 22 26  4  0
M  END
$$$$

 Created by Python create_sdf_string function

 28 30  0  0  0  0  0  0  0  0999 V2000
    5.7174   -8.4529   26.7190 C   0  0  0  0  0  0  0  0  0  0  0  0
    0.3974   -7.0711   27.5149 C   0  0  0  0  0  0  0  0  0  0  0  0
    2.5338   -7.6891   16.0102 C   0  0  0  0  0  0  0  0  0  0  0  0
    4.8690   -7.4380   26.4151 C   0  0  0  0  0  0  0  0  0  0  0  0
    2.3021   -5.6726   26.0378 C   0  0  0  0  0  0  0  0  0  0  0  0
    7.0880   -4.6163   27.0010 C   0  0  0  0  0  0  0  0  0  0  0  0
    8.3117   -4.3698   27.4436 C   0  0  0  0  0  0  0  0  0  0  0  0
    1.1339   -5.0515   26.3541 C   0  0  0  0  0  0  0  0  0  0  0  0
    4.8080   -8.0362   16.7101 C   0  0  0  0  0  0  0  0  0  0  0  0
   -1.2173   -3.9294   26.9717 O   0  0  0  0  0  0  0  0  0  0  0  0
   -1.0025   -5.0942   27.4586 C   0  0  0  0  0  0  0  0  0  0  0  0
    2.2474   -8.9123   16.6273 C   0  0  0  0  0  0  0  0  0  0  0  0
    4.4957   -9.2636   17.3041 C   0  0  0  0  0  0  0  0  0  0  0  0
   -1.8070   -5.6086   28.1920 O   0  0  0  0  0  0  0  0  0  0  0  0
   10.4296   -5.1799   28.3140 C   0  0  0  0  0  0  0  0  0  0  0  0
    6.6017   -5.9004   26.9187 C   0  0  0  0  0  0  0  0  0  0  0  0
    2.4761   -6.9940   26.4111 N   0  0  0  0  0  0  0  0  0  0  0  0
    9.1353   -5.4053   27.8239 C   0  0  0  0  0  0  0  0  0  0  0  0
    0.9922   -9.3232   16.5995 O   0  0  0  0  0  0  0  0  0  0  0  0
    1.5232   -7.6869   27.1182 C   0  0  0  0  0  0  0  0  0  0  0  0
    8.6878   -6.6715   27.7262 N   0  0  0  0  0  0  0  0  0  0  0  0
    6.9911   -8.2423   27.1808 C   0  0  0  0  0  0  0  0  0  0  0  0
    3.8436   -7.2758   16.0578 C   0  0  0  0  0  0  0  0  0  0  0  0
    3.1882   -9.7190   17.2566 C   0  0  0  0  0  0  0  0  0  0  0  0
    5.3488   -6.1737   26.5092 C   0  0  0  0  0  0  0  0  0  0  0  0
    7.4567   -6.9464   27.2858 C   0  0  0  0  0  0  0  0  0  0  0  0
    0.1921   -5.7592   27.1123 C   0  0  0  0  0  0  0  0  0  0  0  0
    3.5517   -7.7407   25.9711 C   0  0  0  0  0  0  0  0  0  0  0  0
  1  4  4  0
  1 22  4  0
  2 20  4  0
  2 27  4  0
  3 12  4  0
  3 23  4  0
  4 25  4  0
  4 28  1  0
  5  8  4  0
  5 17  4  0
  6  7  4  0
  6 16  4  0
  7 18  4  0
  8 27  4  0
  9 13  4  0
  9 23  4  0
 10 11  1  0
 11 14  2  0
 11 27  1  0
 12 19  1  0
 12 24  4  0
 13 24  4  0
 15 18  1  0
 16 25  4  0
 16 26  4  0
 17 20  4  0
 17 28  1  0
 18 21  4  0
 21 26  4  0
 22 26  4  0
M  END
$$$$

 Created by Python create_sdf_string function

 28 30  0  0  0  0  0  0  0  0999 V2000
    5.7174   -8.4529   26.7190 C   0  0  0  0  0  0  0  0  0  0  0  0
    0.3974   -7.0711   27.5149 C   0  0  0  0  0  0  0  0  0  0  0  0
    2.5338   -7.6891   16.0102 C   0  0  0  0  0  0  0  0  0  0  0  0
    4.8690   -7.4380   26.4151 C   0  0  0  0  0  0  0  0  0  0  0  0
    2.3021   -5.6726   26.0378 C   0  0  0  0  0  0  0  0  0  0  0  0
    7.0880   -4.6163   27.0010 C   0  0  0  0  0  0  0  0  0  0  0  0
    8.3117   -4.3698   27.4436 C   0  0  0  0  0  0  0  0  0  0  0  0
    1.1339   -5.0515   26.3541 C   0  0  0  0  0  0  0  0  0  0  0  0
    4.8080   -8.0362   16.7101 C   0  0  0  0  0  0  0  0  0  0  0  0
   -1.2173   -3.9294   26.9717 O   0  0  0  0  0  0  0  0  0  0  0  0
   -1.0025   -5.0942   27.4586 C   0  0  0  0  0  0  0  0  0  0  0  0
    2.2474   -8.9123   16.6273 C   0  0  0  0  0  0  0  0  0  0  0  0
    4.4957   -9.2636   17.3041 C   0  0  0  0  0  0  0  0  0  0  0  0
   -1.8070   -5.6086   28.1920 O   0  0  0  0  0  0  0  0  0  0  0  0
   10.4296   -5.1799   28.3140 C   0  0  0  0  0  0  0  0  0  0  0  0
    6.6017   -5.9004   26.9187 C   0  0  0  0  0  0  0  0  0  0  0  0
    2.4761   -6.9940   26.4111 N   0  0  0  0  0  0  0  0  0  0  0  0
    9.1353   -5.4053   27.8239 C   0  0  0  0  0  0  0  0  0  0  0  0
    0.9922   -9.3232   16.5995 O   0  0  0  0  0  0  0  0  0  0  0  0
    1.5232   -7.6869   27.1182 C   0  0  0  0  0  0  0  0  0  0  0  0
    8.6878   -6.6715   27.7262 N   0  0  0  0  0  0  0  0  0  0  0  0
    6.9911   -8.2423   27.1808 C   0  0  0  0  0  0  0  0  0  0  0  0
    3.8436   -7.2758   16.0578 C   0  0  0  0  0  0  0  0  0  0  0  0
    3.1882   -9.7190   17.2566 C   0  0  0  0  0  0  0  0  0  0  0  0
    5.3488   -6.1737   26.5092 C   0  0  0  0  0  0  0  0  0  0  0  0
    7.4567   -6.9464   27.2858 C   0  0  0  0  0  0  0  0  0  0  0  0
    0.1921   -5.7592   27.1123 C   0  0  0  0  0  0  0  0  0  0  0  0
    3.5517   -7.7407   25.9711 C   0  0  0  0  0  0  0  0  0  0  0  0
  1  4  4  0
  1 22  4  0
  2 20  4  0
  2 27  4  0
  3 12  4  0
  3 23  4  0
  4 25  4  0
  4 28  1  0
  5  8  4  0
  5 17  4  0
  6  7  4  0
  6 16  4  0
  7 18  4  0
  8 27  4  0
  9 13  4  0
  9 23  4  0
 10 11  1  0
 11 14  2  0
 11 27  1  0
 12 19  1  0
 12 24  4  0
 13 24  4  0
 15 18  1  0
 16 25  4  0
 16 26  4  0
 17 20  4  0
 17 28  1  0
 18 21  4  0
 21 26  4  0
 22 26  4  0
M  END
$$$$

 Created by Python create_sdf_string function

 28 30  0  0  0  0  0  0  0  0999 V2000
    5.7174   -8.4529   26.7190 C   0  0  0  0  0  0  0  0  0  0  0  0
    0.3974   -7.0711   27.5149 C   0  0  0  0  0  0  0  0  0  0  0  0
    2.5338   -7.6891   16.0102 C   0  0  0  0  0  0  0  0  0  0  0  0
    4.8690   -7.4380   26.4151 C   0  0  0  0  0  0  0  0  0  0  0  0
    2.3021   -5.6726   26.0378 C   0  0  0  0  0  0  0  0  0  0  0  0
    7.0880   -4.6163   27.0010 C   0  0  0  0  0  0  0  0  0  0  0  0
    8.3117   -4.3698   27.4436 C   0  0  0  0  0  0  0  0  0  0  0  0
    1.1339   -5.0515   26.3541 C   0  0  0  0  0  0  0  0  0  0  0  0
    4.8080   -8.0362   16.7101 C   0  0  0  0  0  0  0  0  0  0  0  0
   -1.2173   -3.9294   26.9717 O   0  0  0  0  0  0  0  0  0  0  0  0
   -1.0025   -5.0942   27.4586 C   0  0  0  0  0  0  0  0  0  0  0  0
    2.2474   -8.9123   16.6273 C   0  0  0  0  0  0  0  0  0  0  0  0
    4.4957   -9.2636   17.3041 C   0  0  0  0  0  0  0  0  0  0  0  0
   -1.8070   -5.6086   28.1920 O   0  0  0  0  0  0  0  0  0  0  0  0
   10.4296   -5.1799   28.3140 C   0  0  0  0  0  0  0  0  0  0  0  0
    6.6017   -5.9004   26.9187 C   0  0  0  0  0  0  0  0  0  0  0  0
    2.4761   -6.9940   26.4111 N   0  0  0  0  0  0  0  0  0  0  0  0
    9.1353   -5.4053   27.8239 C   0  0  0  0  0  0  0  0  0  0  0  0
    0.9922   -9.3232   16.5995 O   0  0  0  0  0  0  0  0  0  0  0  0
    1.5232   -7.6869   27.1182 C   0  0  0  0  0  0  0  0  0  0  0  0
    8.6878   -6.6715   27.7262 N   0  0  0  0  0  0  0  0  0  0  0  0
    6.9911   -8.2423   27.1808 C   0  0  0  0  0  0  0  0  0  0  0  0
    3.8436   -7.2758   16.0578 C   0  0  0  0  0  0  0  0  0  0  0  0
    3.1882   -9.7190   17.2566 C   0  0  0  0  0  0  0  0  0  0  0  0
    5.3488   -6.1737   26.5092 C   0  0  0  0  0  0  0  0  0  0  0  0
    7.4567   -6.9464   27.2858 C   0  0  0  0  0  0  0  0  0  0  0  0
    0.1921   -5.7592   27.1123 C   0  0  0  0  0  0  0  0  0  0  0  0
    3.5517   -7.7407   25.9711 C   0  0  0  0  0  0  0  0  0  0  0  0
  1  4  4  0
  1 22  4  0
  2 20  4  0
  2 27  4  0
  3 12  4  0
  3 23  4  0
  4 25  4  0
  4 28  1  0
  5  8  4  0
  5 17  4  0
  6  7  4  0
  6 16  4  0
  7 18  4  0
  8 27  4  0
  9 13  4  0
  9 23  4  0
 10 11  1  0
 11 14  2  0
 11 27  1  0
 12 19  1  0
 12 24  4  0
 13 24  4  0
 15 18  1  0
 16 25  4  0
 16 26  4  0
 17 20  4  0
 17 28  1  0
 18 21  4  0
 21 26  4  0
 22 26  4  0
M  END
$$$$

 Created by Python create_sdf_string function

 28 30  0  0  0  0  0  0  0  0999 V2000
    5.7174   -8.4529   26.7190 C   0  0  0  0  0  0  0  0  0  0  0  0
    0.3974   -7.0711   27.5149 C   0  0  0  0  0  0  0  0  0  0  0  0
    2.5338   -7.6891   16.0102 C   0  0  0  0  0  0  0  0  0  0  0  0
    4.8690   -7.4380   26.4151 C   0  0  0  0  0  0  0  0  0  0  0  0
    2.3021   -5.6726   26.0378 C   0  0  0  0  0  0  0  0  0  0  0  0
    7.0880   -4.6163   27.0010 C   0  0  0  0  0  0  0  0  0  0  0  0
    8.3117   -4.3698   27.4436 C   0  0  0  0  0  0  0  0  0  0  0  0
    1.1339   -5.0515   26.3541 C   0  0  0  0  0  0  0  0  0  0  0  0
    4.8080   -8.0362   16.7101 C   0  0  0  0  0  0  0  0  0  0  0  0
   -1.2173   -3.9294   26.9717 O   0  0  0  0  0  0  0  0  0  0  0  0
   -1.0025   -5.0942   27.4586 C   0  0  0  0  0  0  0  0  0  0  0  0
    2.2474   -8.9123   16.6273 C   0  0  0  0  0  0  0  0  0  0  0  0
    4.4957   -9.2636   17.3041 C   0  0  0  0  0  0  0  0  0  0  0  0
   -1.8070   -5.6086   28.1920 O   0  0  0  0  0  0  0  0  0  0  0  0
   10.4296   -5.1799   28.3140 C   0  0  0  0  0  0  0  0  0  0  0  0
    6.6017   -5.9004   26.9187 C   0  0  0  0  0  0  0  0  0  0  0  0
    2.4761   -6.9940   26.4111 N   0  0  0  0  0  0  0  0  0  0  0  0
    9.1353   -5.4053   27.8239 C   0  0  0  0  0  0  0  0  0  0  0  0
    0.9922   -9.3232   16.5995 O   0  0  0  0  0  0  0  0  0  0  0  0
    1.5232   -7.6869   27.1182 C   0  0  0  0  0  0  0  0  0  0  0  0
    8.6878   -6.6715   27.7262 N   0  0  0  0  0  0  0  0  0  0  0  0
    6.9911   -8.2423   27.1808 C   0  0  0  0  0  0  0  0  0  0  0  0
    3.8436   -7.2758   16.0578 C   0  0  0  0  0  0  0  0  0  0  0  0
    3.1882   -9.7190   17.2566 C   0  0  0  0  0  0  0  0  0  0  0  0
    5.3488   -6.1737   26.5092 C   0  0  0  0  0  0  0  0  0  0  0  0
    7.4567   -6.9464   27.2858 C   0  0  0  0  0  0  0  0  0  0  0  0
    0.1921   -5.7592   27.1123 C   0  0  0  0  0  0  0  0  0  0  0  0
    3.5517   -7.7407   25.9711 C   0  0  0  0  0  0  0  0  0  0  0  0
  1  4  4  0
  1 22  4  0
  2 20  4  0
  2 27  4  0
  3 12  4  0
  3 23  4  0
  4 25  4  0
  4 28  1  0
  5  8  4  0
  5 17  4  0
  6  7  4  0
  6 16  4  0
  7 18  4  0
  8 27  4  0
  9 13  4  0
  9 23  4  0
 10 11  1  0
 11 14  2  0
 11 27  1  0
 12 19  1  0
 12 24  4  0
 13 24  4  0
 15 18  1  0
 16 25  4  0
 16 26  4  0
 17 20  4  0
 17 28  1  0
 18 21  4  0
 21 26  4  0
 22 26  4  0
M  END
$$$$

 Created by Python create_sdf_string function

 28 30  0  0  0  0  0  0  0  0999 V2000
    5.7174   -8.4529   26.7190 C   0  0  0  0  0  0  0  0  0  0  0  0
    0.3974   -7.0711   27.5149 C   0  0  0  0  0  0  0  0  0  0  0  0
    2.5338   -7.6891   16.0102 C   0  0  0  0  0  0  0  0  0  0  0  0
    4.8690   -7.4380   26.4151 C   0  0  0  0  0  0  0  0  0  0  0  0
    2.3021   -5.6726   26.0378 C   0  0  0  0  0  0  0  0  0  0  0  0
    7.0880   -4.6163   27.0010 C   0  0  0  0  0  0  0  0  0  0  0  0
    8.3117   -4.3698   27.4436 C   0  0  0  0  0  0  0  0  0  0  0  0
    1.1339   -5.0515   26.3541 C   0  0  0  0  0  0  0  0  0  0  0  0
    4.8080   -8.0362   16.7101 C   0  0  0  0  0  0  0  0  0  0  0  0
   -1.2173   -3.9294   26.9717 O   0  0  0  0  0  0  0  0  0  0  0  0
   -1.0025   -5.0942   27.4586 C   0  0  0  0  0  0  0  0  0  0  0  0
    2.2474   -8.9123   16.6273 C   0  0  0  0  0  0  0  0  0  0  0  0
    4.4957   -9.2636   17.3041 C   0  0  0  0  0  0  0  0  0  0  0  0
   -1.8070   -5.6086   28.1920 O   0  0  0  0  0  0  0  0  0  0  0  0
   10.4296   -5.1799   28.3140 C   0  0  0  0  0  0  0  0  0  0  0  0
    6.6017   -5.9004   26.9187 C   0  0  0  0  0  0  0  0  0  0  0  0
    2.4761   -6.9940   26.4111 N   0  0  0  0  0  0  0  0  0  0  0  0
    9.1353   -5.4053   27.8239 C   0  0  0  0  0  0  0  0  0  0  0  0
    0.9922   -9.3232   16.5995 O   0  0  0  0  0  0  0  0  0  0  0  0
    1.5232   -7.6869   27.1182 C   0  0  0  0  0  0  0  0  0  0  0  0
    8.6878   -6.6715   27.7262 N   0  0  0  0  0  0  0  0  0  0  0  0
    6.9911   -8.2423   27.1808 C   0  0  0  0  0  0  0  0  0  0  0  0
    3.8436   -7.2758   16.0578 C   0  0  0  0  0  0  0  0  0  0  0  0
    3.1882   -9.7190   17.2566 C   0  0  0  0  0  0  0  0  0  0  0  0
    5.3488   -6.1737   26.5092 C   0  0  0  0  0  0  0  0  0  0  0  0
    7.4567   -6.9464   27.2858 C   0  0  0  0  0  0  0  0  0  0  0  0
    0.1921   -5.7592   27.1123 C   0  0  0  0  0  0  0  0  0  0  0  0
    3.5517   -7.7407   25.9711 C   0  0  0  0  0  0  0  0  0  0  0  0
  1  4  4  0
  1 22  4  0
  2 20  4  0
  2 27  4  0
  3 12  4  0
  3 23  4  0
  4 25  4  0
  4 28  1  0
  5  8  4  0
  5 17  4  0
  6  7  4  0
  6 16  4  0
  7 18  4  0
  8 27  4  0
  9 13  4  0
  9 23  4  0
 10 11  1  0
 11 14  2  0
 11 27  1  0
 12 19  1  0
 12 24  4  0
 13 24  4  0
 15 18  1  0
 16 25  4  0
 16 26  4  0
 17 20  4  0
 17 28  1  0
 18 21  4  0
 21 26  4  0
 22 26  4  0
M  END
$$$$

 Created by Python create_sdf_string function

 28 30  0  0  0  0  0  0  0  0999 V2000
    5.7174   -8.4529   26.7190 C   0  0  0  0  0  0  0  0  0  0  0  0
    0.3974   -7.0711   27.5149 C   0  0  0  0  0  0  0  0  0  0  0  0
    2.5338   -7.6891   16.0102 C   0  0  0  0  0  0  0  0  0  0  0  0
    4.8690   -7.4380   26.4151 C   0  0  0  0  0  0  0  0  0  0  0  0
    2.3021   -5.6726   26.0378 C   0  0  0  0  0  0  0  0  0  0  0  0
    7.0880   -4.6163   27.0010 C   0  0  0  0  0  0  0  0  0  0  0  0
    8.3117   -4.3698   27.4436 C   0  0  0  0  0  0  0  0  0  0  0  0
    1.1339   -5.0515   26.3541 C   0  0  0  0  0  0  0  0  0  0  0  0
    4.8080   -8.0362   16.7101 C   0  0  0  0  0  0  0  0  0  0  0  0
   -1.2173   -3.9294   26.9717 O   0  0  0  0  0  0  0  0  0  0  0  0
   -1.0025   -5.0942   27.4586 C   0  0  0  0  0  0  0  0  0  0  0  0
    2.2474   -8.9123   16.6273 C   0  0  0  0  0  0  0  0  0  0  0  0
    4.4957   -9.2636   17.3041 C   0  0  0  0  0  0  0  0  0  0  0  0
   -1.8070   -5.6086   28.1920 O   0  0  0  0  0  0  0  0  0  0  0  0
   10.4296   -5.1799   28.3140 C   0  0  0  0  0  0  0  0  0  0  0  0
    6.6017   -5.9004   26.9187 C   0  0  0  0  0  0  0  0  0  0  0  0
    2.4761   -6.9940   26.4111 N   0  0  0  0  0  0  0  0  0  0  0  0
    9.1353   -5.4053   27.8239 C   0  0  0  0  0  0  0  0  0  0  0  0
    0.9922   -9.3232   16.5995 O   0  0  0  0  0  0  0  0  0  0  0  0
    1.5232   -7.6869   27.1182 C   0  0  0  0  0  0  0  0  0  0  0  0
    8.6878   -6.6715   27.7262 N   0  0  0  0  0  0  0  0  0  0  0  0
    6.9911   -8.2423   27.1808 C   0  0  0  0  0  0  0  0  0  0  0  0
    3.8436   -7.2758   16.0578 C   0  0  0  0  0  0  0  0  0  0  0  0
    3.1882   -9.7190   17.2566 C   0  0  0  0  0  0  0  0  0  0  0  0
    5.3488   -6.1737   26.5092 C   0  0  0  0  0  0  0  0  0  0  0  0
    7.4567   -6.9464   27.2858 C   0  0  0  0  0  0  0  0  0  0  0  0
    0.1921   -5.7592   27.1123 C   0  0  0  0  0  0  0  0  0  0  0  0
    3.5517   -7.7407   25.9711 C   0  0  0  0  0  0  0  0  0  0  0  0
  1  4  4  0
  1 22  4  0
  2 20  4  0
  2 27  4  0
  3 12  4  0
  3 23  4  0
  4 25  4  0
  4 28  1  0
  5  8  4  0
  5 17  4  0
  6  7  4  0
  6 16  4  0
  7 18  4  0
  8 27  4  0
  9 13  4  0
  9 23  4  0
 10 11  1  0
 11 14  2  0
 11 27  1  0
 12 19  1  0
 12 24  4  0
 13 24  4  0
 15 18  1  0
 16 25  4  0
 16 26  4  0
 17 20  4  0
 17 28  1  0
 18 21  4  0
 21 26  4  0
 22 26  4  0
M  END
$$$$

 Created by Python create_sdf_string function

 28 30  0  0  0  0  0  0  0  0999 V2000
    5.7174   -8.4529   26.7190 C   0  0  0  0  0  0  0  0  0  0  0  0
    0.3974   -7.0711   27.5149 C   0  0  0  0  0  0  0  0  0  0  0  0
    2.5338   -7.6891   16.0102 C   0  0  0  0  0  0  0  0  0  0  0  0
    4.8690   -7.4380   26.4151 C   0  0  0  0  0  0  0  0  0  0  0  0
    2.3021   -5.6726   26.0378 C   0  0  0  0  0  0  0  0  0  0  0  0
    7.0880   -4.6163   27.0010 C   0  0  0  0  0  0  0  0  0  0  0  0
    8.3117   -4.3698   27.4436 C   0  0  0  0  0  0  0  0  0  0  0  0
    1.1339   -5.0515   26.3541 C   0  0  0  0  0  0  0  0  0  0  0  0
    4.8080   -8.0362   16.7101 C   0  0  0  0  0  0  0  0  0  0  0  0
   -1.2173   -3.9294   26.9717 O   0  0  0  0  0  0  0  0  0  0  0  0
   -1.0025   -5.0942   27.4586 C   0  0  0  0  0  0  0  0  0  0  0  0
    2.2474   -8.9123   16.6273 C   0  0  0  0  0  0  0  0  0  0  0  0
    4.4957   -9.2636   17.3041 C   0  0  0  0  0  0  0  0  0  0  0  0
   -1.8070   -5.6086   28.1920 O   0  0  0  0  0  0  0  0  0  0  0  0
   10.4296   -5.1799   28.3140 C   0  0  0  0  0  0  0  0  0  0  0  0
    6.6017   -5.9004   26.9187 C   0  0  0  0  0  0  0  0  0  0  0  0
    2.4761   -6.9940   26.4111 N   0  0  0  0  0  0  0  0  0  0  0  0
    9.1353   -5.4053   27.8239 C   0  0  0  0  0  0  0  0  0  0  0  0
    0.9922   -9.3232   16.5995 O   0  0  0  0  0  0  0  0  0  0  0  0
    1.5232   -7.6869   27.1182 C   0  0  0  0  0  0  0  0  0  0  0  0
    8.6878   -6.6715   27.7262 N   0  0  0  0  0  0  0  0  0  0  0  0
    6.9911   -8.2423   27.1808 C   0  0  0  0  0  0  0  0  0  0  0  0
    3.8436   -7.2758   16.0578 C   0  0  0  0  0  0  0  0  0  0  0  0
    3.1882   -9.7190   17.2566 C   0  0  0  0  0  0  0  0  0  0  0  0
    5.3488   -6.1737   26.5092 C   0  0  0  0  0  0  0  0  0  0  0  0
    7.4567   -6.9464   27.2858 C   0  0  0  0  0  0  0  0  0  0  0  0
    0.1921   -5.7592   27.1123 C   0  0  0  0  0  0  0  0  0  0  0  0
    3.5517   -7.7407   25.9711 C   0  0  0  0  0  0  0  0  0  0  0  0
  1  4  4  0
  1 22  4  0
  2 20  4  0
  2 27  4  0
  3 12  4  0
  3 23  4  0
  4 25  4  0
  4 28  1  0
  5  8  4  0
  5 17  4  0
  6  7  4  0
  6 16  4  0
  7 18  4  0
  8 27  4  0
  9 13  4  0
  9 23  4  0
 10 11  1  0
 11 14  2  0
 11 27  1  0
 12 19  1  0
 12 24  4  0
 13 24  4  0
 15 18  1  0
 16 25  4  0
 16 26  4  0
 17 20  4  0
 17 28  1  0
 18 21  4  0
 21 26  4  0
 22 26  4  0
M  END
$$$$

 Created by Python create_sdf_string function

 28 30  0  0  0  0  0  0  0  0999 V2000
    5.7174   -8.4529   26.7190 C   0  0  0  0  0  0  0  0  0  0  0  0
    0.3974   -7.0711   27.5149 C   0  0  0  0  0  0  0  0  0  0  0  0
    2.5338   -7.6891   16.0102 C   0  0  0  0  0  0  0  0  0  0  0  0
    4.8690   -7.4380   26.4151 C   0  0  0  0  0  0  0  0  0  0  0  0
    2.3021   -5.6726   26.0378 C   0  0  0  0  0  0  0  0  0  0  0  0
    7.0880   -4.6163   27.0010 C   0  0  0  0  0  0  0  0  0  0  0  0
    8.3117   -4.3698   27.4436 C   0  0  0  0  0  0  0  0  0  0  0  0
    1.1339   -5.0515   26.3541 C   0  0  0  0  0  0  0  0  0  0  0  0
    4.8080   -8.0362   16.7101 C   0  0  0  0  0  0  0  0  0  0  0  0
   -1.2173   -3.9294   26.9717 O   0  0  0  0  0  0  0  0  0  0  0  0
   -1.0025   -5.0942   27.4586 C   0  0  0  0  0  0  0  0  0  0  0  0
    2.2474   -8.9123   16.6273 C   0  0  0  0  0  0  0  0  0  0  0  0
    4.4957   -9.2636   17.3041 C   0  0  0  0  0  0  0  0  0  0  0  0
   -1.8070   -5.6086   28.1920 O   0  0  0  0  0  0  0  0  0  0  0  0
   10.4296   -5.1799   28.3140 C   0  0  0  0  0  0  0  0  0  0  0  0
    6.6017   -5.9004   26.9187 C   0  0  0  0  0  0  0  0  0  0  0  0
    2.4761   -6.9940   26.4111 N   0  0  0  0  0  0  0  0  0  0  0  0
    9.1353   -5.4053   27.8239 C   0  0  0  0  0  0  0  0  0  0  0  0
    0.9922   -9.3232   16.5995 O   0  0  0  0  0  0  0  0  0  0  0  0
    1.5232   -7.6869   27.1182 C   0  0  0  0  0  0  0  0  0  0  0  0
    8.6878   -6.6715   27.7262 N   0  0  0  0  0  0  0  0  0  0  0  0
    6.9911   -8.2423   27.1808 C   0  0  0  0  0  0  0  0  0  0  0  0
    3.8436   -7.2758   16.0578 C   0  0  0  0  0  0  0  0  0  0  0  0
    3.1882   -9.7190   17.2566 C   0  0  0  0  0  0  0  0  0  0  0  0
    5.3488   -6.1737   26.5092 C   0  0  0  0  0  0  0  0  0  0  0  0
    7.4567   -6.9464   27.2858 C   0  0  0  0  0  0  0  0  0  0  0  0
    0.1921   -5.7592   27.1123 C   0  0  0  0  0  0  0  0  0  0  0  0
    3.5517   -7.7407   25.9711 C   0  0  0  0  0  0  0  0  0  0  0  0
  1  4  4  0
  1 22  4  0
  2 20  4  0
  2 27  4  0
  3 12  4  0
  3 23  4  0
  4 25  4  0
  4 28  1  0
  5  8  4  0
  5 17  4  0
  6  7  4  0
  6 16  4  0
  7 18  4  0
  8 27  4  0
  9 13  4  0
  9 23  4  0
 10 11  1  0
 11 14  2  0
 11 27  1  0
 12 19  1  0
 12 24  4  0
 13 24  4  0
 15 18  1  0
 16 25  4  0
 16 26  4  0
 17 20  4  0
 17 28  1  0
 18 21  4  0
 21 26  4  0
 22 26  4  0
M  END
$$$$

 Created by Python create_sdf_string function

 28 30  0  0  0  0  0  0  0  0999 V2000
    5.7174   -8.4529   26.7190 C   0  0  0  0  0  0  0  0  0  0  0  0
    0.3974   -7.0711   27.5149 C   0  0  0  0  0  0  0  0  0  0  0  0
    2.5338   -7.6891   16.0102 C   0  0  0  0  0  0  0  0  0  0  0  0
    4.8690   -7.4380   26.4151 C   0  0  0  0  0  0  0  0  0  0  0  0
    2.3021   -5.6726   26.0378 C   0  0  0  0  0  0  0  0  0  0  0  0
    7.0880   -4.6163   27.0010 C   0  0  0  0  0  0  0  0  0  0  0  0
    8.3117   -4.3698   27.4436 C   0  0  0  0  0  0  0  0  0  0  0  0
    1.1339   -5.0515   26.3541 C   0  0  0  0  0  0  0  0  0  0  0  0
    4.8080   -8.0362   16.7101 C   0  0  0  0  0  0  0  0  0  0  0  0
   -1.2173   -3.9294   26.9717 O   0  0  0  0  0  0  0  0  0  0  0  0
   -1.0025   -5.0942   27.4586 C   0  0  0  0  0  0  0  0  0  0  0  0
    2.2474   -8.9123   16.6273 C   0  0  0  0  0  0  0  0  0  0  0  0
    4.4957   -9.2636   17.3041 C   0  0  0  0  0  0  0  0  0  0  0  0
   -1.8070   -5.6086   28.1920 O   0  0  0  0  0  0  0  0  0  0  0  0
   10.4296   -5.1799   28.3140 C   0  0  0  0  0  0  0  0  0  0  0  0
    6.6017   -5.9004   26.9187 C   0  0  0  0  0  0  0  0  0  0  0  0
    2.4761   -6.9940   26.4111 N   0  0  0  0  0  0  0  0  0  0  0  0
    9.1353   -5.4053   27.8239 C   0  0  0  0  0  0  0  0  0  0  0  0
    0.9922   -9.3232   16.5995 O   0  0  0  0  0  0  0  0  0  0  0  0
    1.5232   -7.6869   27.1182 C   0  0  0  0  0  0  0  0  0  0  0  0
    8.6878   -6.6715   27.7262 N   0  0  0  0  0  0  0  0  0  0  0  0
    6.9911   -8.2423   27.1808 C   0  0  0  0  0  0  0  0  0  0  0  0
    3.8436   -7.2758   16.0578 C   0  0  0  0  0  0  0  0  0  0  0  0
    3.1882   -9.7190   17.2566 C   0  0  0  0  0  0  0  0  0  0  0  0
    5.3488   -6.1737   26.5092 C   0  0  0  0  0  0  0  0  0  0  0  0
    7.4567   -6.9464   27.2858 C   0  0  0  0  0  0  0  0  0  0  0  0
    0.1921   -5.7592   27.1123 C   0  0  0  0  0  0  0  0  0  0  0  0
    3.5517   -7.7407   25.9711 C   0  0  0  0  0  0  0  0  0  0  0  0
  1  4  4  0
  1 22  4  0
  2 20  4  0
  2 27  4  0
  3 12  4  0
  3 23  4  0
  4 25  4  0
  4 28  1  0
  5  8  4  0
  5 17  4  0
  6  7  4  0
  6 16  4  0
  7 18  4  0
  8 27  4  0
  9 13  4  0
  9 23  4  0
 10 11  1  0
 11 14  2  0
 11 27  1  0
 12 19  1  0
 12 24  4  0
 13 24  4  0
 15 18  1  0
 16 25  4  0
 16 26  4  0
 17 20  4  0
 17 28  1  0
 18 21  4  0
 21 26  4  0
 22 26  4  0
M  END
$$$$

 Created by Python create_sdf_string function

 28 30  0  0  0  0  0  0  0  0999 V2000
    5.7174   -8.4529   26.7190 C   0  0  0  0  0  0  0  0  0  0  0  0
    0.3974   -7.0711   27.5149 C   0  0  0  0  0  0  0  0  0  0  0  0
    2.5338   -7.6891   16.0102 C   0  0  0  0  0  0  0  0  0  0  0  0
    4.8690   -7.4380   26.4151 C   0  0  0  0  0  0  0  0  0  0  0  0
    2.3021   -5.6726   26.0378 C   0  0  0  0  0  0  0  0  0  0  0  0
    7.0880   -4.6163   27.0010 C   0  0  0  0  0  0  0  0  0  0  0  0
    8.3117   -4.3698   27.4436 C   0  0  0  0  0  0  0  0  0  0  0  0
    1.1339   -5.0515   26.3541 C   0  0  0  0  0  0  0  0  0  0  0  0
    4.8080   -8.0362   16.7101 C   0  0  0  0  0  0  0  0  0  0  0  0
   -1.2173   -3.9294   26.9717 O   0  0  0  0  0  0  0  0  0  0  0  0
   -1.0025   -5.0942   27.4586 C   0  0  0  0  0  0  0  0  0  0  0  0
    2.2474   -8.9123   16.6273 C   0  0  0  0  0  0  0  0  0  0  0  0
    4.4957   -9.2636   17.3041 C   0  0  0  0  0  0  0  0  0  0  0  0
   -1.8070   -5.6086   28.1920 O   0  0  0  0  0  0  0  0  0  0  0  0
   10.4296   -5.1799   28.3140 C   0  0  0  0  0  0  0  0  0  0  0  0
    6.6017   -5.9004   26.9187 C   0  0  0  0  0  0  0  0  0  0  0  0
    2.4761   -6.9940   26.4111 N   0  0  0  0  0  0  0  0  0  0  0  0
    9.1353   -5.4053   27.8239 C   0  0  0  0  0  0  0  0  0  0  0  0
    0.9922   -9.3232   16.5995 O   0  0  0  0  0  0  0  0  0  0  0  0
    1.5232   -7.6869   27.1182 C   0  0  0  0  0  0  0  0  0  0  0  0
    8.6878   -6.6715   27.7262 N   0  0  0  0  0  0  0  0  0  0  0  0
    6.9911   -8.2423   27.1808 C   0  0  0  0  0  0  0  0  0  0  0  0
    3.8436   -7.2758   16.0578 C   0  0  0  0  0  0  0  0  0  0  0  0
    3.1882   -9.7190   17.2566 C   0  0  0  0  0  0  0  0  0  0  0  0
    5.3488   -6.1737   26.5092 C   0  0  0  0  0  0  0  0  0  0  0  0
    7.4567   -6.9464   27.2858 C   0  0  0  0  0  0  0  0  0  0  0  0
    0.1921   -5.7592   27.1123 C   0  0  0  0  0  0  0  0  0  0  0  0
    3.5517   -7.7407   25.9711 C   0  0  0  0  0  0  0  0  0  0  0  0
  1  4  4  0
  1 22  4  0
  2 20  4  0
  2 27  4  0
  3 12  4  0
  3 23  4  0
  4 25  4  0
  4 28  1  0
  5  8  4  0
  5 17  4  0
  6  7  4  0
  6 16  4  0
  7 18  4  0
  8 27  4  0
  9 13  4  0
  9 23  4  0
 10 11  1  0
 11 14  2  0
 11 27  1  0
 12 19  1  0
 12 24  4  0
 13 24  4  0
 15 18  1  0
 16 25  4  0
 16 26  4  0
 17 20  4  0
 17 28  1  0
 18 21  4  0
 21 26  4  0
 22 26  4  0
M  END
$$$$

 Created by Python create_sdf_string function

 28 30  0  0  0  0  0  0  0  0999 V2000
    5.7174   -8.4529   26.7190 C   0  0  0  0  0  0  0  0  0  0  0  0
    0.3974   -7.0711   27.5149 C   0  0  0  0  0  0  0  0  0  0  0  0
    2.5338   -7.6891   16.0102 C   0  0  0  0  0  0  0  0  0  0  0  0
    4.8690   -7.4380   26.4151 C   0  0  0  0  0  0  0  0  0  0  0  0
    2.3021   -5.6726   26.0378 C   0  0  0  0  0  0  0  0  0  0  0  0
    7.0880   -4.6163   27.0010 C   0  0  0  0  0  0  0  0  0  0  0  0
    8.3117   -4.3698   27.4436 C   0  0  0  0  0  0  0  0  0  0  0  0
    1.1339   -5.0515   26.3541 C   0  0  0  0  0  0  0  0  0  0  0  0
    4.8080   -8.0362   16.7101 C   0  0  0  0  0  0  0  0  0  0  0  0
   -1.2173   -3.9294   26.9717 O   0  0  0  0  0  0  0  0  0  0  0  0
   -1.0025   -5.0942   27.4586 C   0  0  0  0  0  0  0  0  0  0  0  0
    2.2474   -8.9123   16.6273 C   0  0  0  0  0  0  0  0  0  0  0  0
    4.4957   -9.2636   17.3041 C   0  0  0  0  0  0  0  0  0  0  0  0
   -1.8070   -5.6086   28.1920 O   0  0  0  0  0  0  0  0  0  0  0  0
   10.4296   -5.1799   28.3140 C   0  0  0  0  0  0  0  0  0  0  0  0
    6.6017   -5.9004   26.9187 C   0  0  0  0  0  0  0  0  0  0  0  0
    2.4761   -6.9940   26.4111 N   0  0  0  0  0  0  0  0  0  0  0  0
    9.1353   -5.4053   27.8239 C   0  0  0  0  0  0  0  0  0  0  0  0
    0.9922   -9.3232   16.5995 O   0  0  0  0  0  0  0  0  0  0  0  0
    1.5232   -7.6869   27.1182 C   0  0  0  0  0  0  0  0  0  0  0  0
    8.6878   -6.6715   27.7262 N   0  0  0  0  0  0  0  0  0  0  0  0
    6.9911   -8.2423   27.1808 C   0  0  0  0  0  0  0  0  0  0  0  0
    3.8436   -7.2758   16.0578 C   0  0  0  0  0  0  0  0  0  0  0  0
    3.1882   -9.7190   17.2566 C   0  0  0  0  0  0  0  0  0  0  0  0
    5.3488   -6.1737   26.5092 C   0  0  0  0  0  0  0  0  0  0  0  0
    7.4567   -6.9464   27.2858 C   0  0  0  0  0  0  0  0  0  0  0  0
    0.1921   -5.7592   27.1123 C   0  0  0  0  0  0  0  0  0  0  0  0
    3.5517   -7.7407   25.9711 C   0  0  0  0  0  0  0  0  0  0  0  0
  1  4  4  0
  1 22  4  0
  2 20  4  0
  2 27  4  0
  3 12  4  0
  3 23  4  0
  4 25  4  0
  4 28  1  0
  5  8  4  0
  5 17  4  0
  6  7  4  0
  6 16  4  0
  7 18  4  0
  8 27  4  0
  9 13  4  0
  9 23  4  0
 10 11  1  0
 11 14  2  0
 11 27  1  0
 12 19  1  0
 12 24  4  0
 13 24  4  0
 15 18  1  0
 16 25  4  0
 16 26  4  0
 17 20  4  0
 17 28  1  0
 18 21  4  0
 21 26  4  0
 22 26  4  0
M  END
$$$$

 Created by Python create_sdf_string function

 28 30  0  0  0  0  0  0  0  0999 V2000
    5.7174   -8.4529   26.7190 C   0  0  0  0  0  0  0  0  0  0  0  0
    0.3974   -7.0711   27.5149 C   0  0  0  0  0  0  0  0  0  0  0  0
    2.5338   -7.6891   16.0102 C   0  0  0  0  0  0  0  0  0  0  0  0
    4.8690   -7.4380   26.4151 C   0  0  0  0  0  0  0  0  0  0  0  0
    2.3021   -5.6726   26.0378 C   0  0  0  0  0  0  0  0  0  0  0  0
    7.0880   -4.6163   27.0010 C   0  0  0  0  0  0  0  0  0  0  0  0
    8.3117   -4.3698   27.4436 C   0  0  0  0  0  0  0  0  0  0  0  0
    1.1339   -5.0515   26.3541 C   0  0  0  0  0  0  0  0  0  0  0  0
    4.8080   -8.0362   16.7101 C   0  0  0  0  0  0  0  0  0  0  0  0
   -1.2173   -3.9294   26.9717 O   0  0  0  0  0  0  0  0  0  0  0  0
   -1.0025   -5.0942   27.4586 C   0  0  0  0  0  0  0  0  0  0  0  0
    2.2474   -8.9123   16.6273 C   0  0  0  0  0  0  0  0  0  0  0  0
    4.4957   -9.2636   17.3041 C   0  0  0  0  0  0  0  0  0  0  0  0
   -1.8070   -5.6086   28.1920 O   0  0  0  0  0  0  0  0  0  0  0  0
   10.4296   -5.1799   28.3140 C   0  0  0  0  0  0  0  0  0  0  0  0
    6.6017   -5.9004   26.9187 C   0  0  0  0  0  0  0  0  0  0  0  0
    2.4761   -6.9940   26.4111 N   0  0  0  0  0  0  0  0  0  0  0  0
    9.1353   -5.4053   27.8239 C   0  0  0  0  0  0  0  0  0  0  0  0
    0.9922   -9.3232   16.5995 O   0  0  0  0  0  0  0  0  0  0  0  0
    1.5232   -7.6869   27.1182 C   0  0  0  0  0  0  0  0  0  0  0  0
    8.6878   -6.6715   27.7262 N   0  0  0  0  0  0  0  0  0  0  0  0
    6.9911   -8.2423   27.1808 C   0  0  0  0  0  0  0  0  0  0  0  0
    3.8436   -7.2758   16.0578 C   0  0  0  0  0  0  0  0  0  0  0  0
    3.1882   -9.7190   17.2566 C   0  0  0  0  0  0  0  0  0  0  0  0
    5.3488   -6.1737   26.5092 C   0  0  0  0  0  0  0  0  0  0  0  0
    7.4567   -6.9464   27.2858 C   0  0  0  0  0  0  0  0  0  0  0  0
    0.1921   -5.7592   27.1123 C   0  0  0  0  0  0  0  0  0  0  0  0
    3.5517   -7.7407   25.9711 C   0  0  0  0  0  0  0  0  0  0  0  0
  1  4  4  0
  1 22  4  0
  2 20  4  0
  2 27  4  0
  3 12  4  0
  3 23  4  0
  4 25  4  0
  4 28  1  0
  5  8  4  0
  5 17  4  0
  6  7  4  0
  6 16  4  0
  7 18  4  0
  8 27  4  0
  9 13  4  0
  9 23  4  0
 10 11  1  0
 11 14  2  0
 11 27  1  0
 12 19  1  0
 12 24  4  0
 13 24  4  0
 15 18  1  0
 16 25  4  0
 16 26  4  0
 17 20  4  0
 17 28  1  0
 18 21  4  0
 21 26  4  0
 22 26  4  0
M  END
$$$$

 Created by Python create_sdf_string function

 28 30  0  0  0  0  0  0  0  0999 V2000
    5.7174   -8.4529   26.7190 C   0  0  0  0  0  0  0  0  0  0  0  0
    0.3974   -7.0711   27.5149 C   0  0  0  0  0  0  0  0  0  0  0  0
    2.5338   -7.6891   16.0102 C   0  0  0  0  0  0  0  0  0  0  0  0
    4.8690   -7.4380   26.4151 C   0  0  0  0  0  0  0  0  0  0  0  0
    2.3021   -5.6726   26.0378 C   0  0  0  0  0  0  0  0  0  0  0  0
    7.0880   -4.6163   27.0010 C   0  0  0  0  0  0  0  0  0  0  0  0
    8.3117   -4.3698   27.4436 C   0  0  0  0  0  0  0  0  0  0  0  0
    1.1339   -5.0515   26.3541 C   0  0  0  0  0  0  0  0  0  0  0  0
    4.8080   -8.0362   16.7101 C   0  0  0  0  0  0  0  0  0  0  0  0
   -1.2173   -3.9294   26.9717 O   0  0  0  0  0  0  0  0  0  0  0  0
   -1.0025   -5.0942   27.4586 C   0  0  0  0  0  0  0  0  0  0  0  0
    2.2474   -8.9123   16.6273 C   0  0  0  0  0  0  0  0  0  0  0  0
    4.4957   -9.2636   17.3041 C   0  0  0  0  0  0  0  0  0  0  0  0
   -1.8070   -5.6086   28.1920 O   0  0  0  0  0  0  0  0  0  0  0  0
   10.4296   -5.1799   28.3140 C   0  0  0  0  0  0  0  0  0  0  0  0
    6.6017   -5.9004   26.9187 C   0  0  0  0  0  0  0  0  0  0  0  0
    2.4761   -6.9940   26.4111 N   0  0  0  0  0  0  0  0  0  0  0  0
    9.1353   -5.4053   27.8239 C   0  0  0  0  0  0  0  0  0  0  0  0
    0.9922   -9.3232   16.5995 O   0  0  0  0  0  0  0  0  0  0  0  0
    1.5232   -7.6869   27.1182 C   0  0  0  0  0  0  0  0  0  0  0  0
    8.6878   -6.6715   27.7262 N   0  0  0  0  0  0  0  0  0  0  0  0
    6.9911   -8.2423   27.1808 C   0  0  0  0  0  0  0  0  0  0  0  0
    3.8436   -7.2758   16.0578 C   0  0  0  0  0  0  0  0  0  0  0  0
    3.1882   -9.7190   17.2566 C   0  0  0  0  0  0  0  0  0  0  0  0
    5.3488   -6.1737   26.5092 C   0  0  0  0  0  0  0  0  0  0  0  0
    7.4567   -6.9464   27.2858 C   0  0  0  0  0  0  0  0  0  0  0  0
    0.1921   -5.7592   27.1123 C   0  0  0  0  0  0  0  0  0  0  0  0
    3.5517   -7.7407   25.9711 C   0  0  0  0  0  0  0  0  0  0  0  0
  1  4  4  0
  1 22  4  0
  2 20  4  0
  2 27  4  0
  3 12  4  0
  3 23  4  0
  4 25  4  0
  4 28  1  0
  5  8  4  0
  5 17  4  0
  6  7  4  0
  6 16  4  0
  7 18  4  0
  8 27  4  0
  9 13  4  0
  9 23  4  0
 10 11  1  0
 11 14  2  0
 11 27  1  0
 12 19  1  0
 12 24  4  0
 13 24  4  0
 15 18  1  0
 16 25  4  0
 16 26  4  0
 17 20  4  0
 17 28  1  0
 18 21  4  0
 21 26  4  0
 22 26  4  0
M  END
$$$$

 Created by Python create_sdf_string function

 28 30  0  0  0  0  0  0  0  0999 V2000
    5.7174   -8.4529   26.7190 C   0  0  0  0  0  0  0  0  0  0  0  0
    0.3974   -7.0711   27.5149 C   0  0  0  0  0  0  0  0  0  0  0  0
    2.5338   -7.6891   16.0102 C   0  0  0  0  0  0  0  0  0  0  0  0
    4.8690   -7.4380   26.4151 C   0  0  0  0  0  0  0  0  0  0  0  0
    2.3021   -5.6726   26.0378 C   0  0  0  0  0  0  0  0  0  0  0  0
    7.0880   -4.6163   27.0010 C   0  0  0  0  0  0  0  0  0  0  0  0
    8.3117   -4.3698   27.4436 C   0  0  0  0  0  0  0  0  0  0  0  0
    1.1339   -5.0515   26.3541 C   0  0  0  0  0  0  0  0  0  0  0  0
    4.8080   -8.0362   16.7101 C   0  0  0  0  0  0  0  0  0  0  0  0
   -1.2173   -3.9294   26.9717 O   0  0  0  0  0  0  0  0  0  0  0  0
   -1.0025   -5.0942   27.4586 C   0  0  0  0  0  0  0  0  0  0  0  0
    2.2474   -8.9123   16.6273 C   0  0  0  0  0  0  0  0  0  0  0  0
    4.4957   -9.2636   17.3041 C   0  0  0  0  0  0  0  0  0  0  0  0
   -1.8070   -5.6086   28.1920 O   0  0  0  0  0  0  0  0  0  0  0  0
   10.4296   -5.1799   28.3140 C   0  0  0  0  0  0  0  0  0  0  0  0
    6.6017   -5.9004   26.9187 C   0  0  0  0  0  0  0  0  0  0  0  0
    2.4761   -6.9940   26.4111 N   0  0  0  0  0  0  0  0  0  0  0  0
    9.1353   -5.4053   27.8239 C   0  0  0  0  0  0  0  0  0  0  0  0
    0.9922   -9.3232   16.5995 O   0  0  0  0  0  0  0  0  0  0  0  0
    1.5232   -7.6869   27.1182 C   0  0  0  0  0  0  0  0  0  0  0  0
    8.6878   -6.6715   27.7262 N   0  0  0  0  0  0  0  0  0  0  0  0
    6.9911   -8.2423   27.1808 C   0  0  0  0  0  0  0  0  0  0  0  0
    3.8436   -7.2758   16.0578 C   0  0  0  0  0  0  0  0  0  0  0  0
    3.1882   -9.7190   17.2566 C   0  0  0  0  0  0  0  0  0  0  0  0
    5.3488   -6.1737   26.5092 C   0  0  0  0  0  0  0  0  0  0  0  0
    7.4567   -6.9464   27.2858 C   0  0  0  0  0  0  0  0  0  0  0  0
    0.1921   -5.7592   27.1123 C   0  0  0  0  0  0  0  0  0  0  0  0
    3.5517   -7.7407   25.9711 C   0  0  0  0  0  0  0  0  0  0  0  0
  1  4  4  0
  1 22  4  0
  2 20  4  0
  2 27  4  0
  3 12  4  0
  3 23  4  0
  4 25  4  0
  4 28  1  0
  5  8  4  0
  5 17  4  0
  6  7  4  0
  6 16  4  0
  7 18  4  0
  8 27  4  0
  9 13  4  0
  9 23  4  0
 10 11  1  0
 11 14  2  0
 11 27  1  0
 12 19  1  0
 12 24  4  0
 13 24  4  0
 15 18  1  0
 16 25  4  0
 16 26  4  0
 17 20  4  0
 17 28  1  0
 18 21  4  0
 21 26  4  0
 22 26  4  0
M  END
$$$$

 Created by Python create_sdf_string function

 28 30  0  0  0  0  0  0  0  0999 V2000
    5.7174   -8.4529   26.7190 C   0  0  0  0  0  0  0  0  0  0  0  0
    0.3974   -7.0711   27.5149 C   0  0  0  0  0  0  0  0  0  0  0  0
    2.5338   -7.6891   16.0102 C   0  0  0  0  0  0  0  0  0  0  0  0
    4.8690   -7.4380   26.4151 C   0  0  0  0  0  0  0  0  0  0  0  0
    2.3021   -5.6726   26.0378 C   0  0  0  0  0  0  0  0  0  0  0  0
    7.0880   -4.6163   27.0010 C   0  0  0  0  0  0  0  0  0  0  0  0
    8.3117   -4.3698   27.4436 C   0  0  0  0  0  0  0  0  0  0  0  0
    1.1339   -5.0515   26.3541 C   0  0  0  0  0  0  0  0  0  0  0  0
    4.8080   -8.0362   16.7101 C   0  0  0  0  0  0  0  0  0  0  0  0
   -1.2173   -3.9294   26.9717 O   0  0  0  0  0  0  0  0  0  0  0  0
   -1.0025   -5.0942   27.4586 C   0  0  0  0  0  0  0  0  0  0  0  0
    2.2474   -8.9123   16.6273 C   0  0  0  0  0  0  0  0  0  0  0  0
    4.4957   -9.2636   17.3041 C   0  0  0  0  0  0  0  0  0  0  0  0
   -1.8070   -5.6086   28.1920 O   0  0  0  0  0  0  0  0  0  0  0  0
   10.4296   -5.1799   28.3140 C   0  0  0  0  0  0  0  0  0  0  0  0
    6.6017   -5.9004   26.9187 C   0  0  0  0  0  0  0  0  0  0  0  0
    2.4761   -6.9940   26.4111 N   0  0  0  0  0  0  0  0  0  0  0  0
    9.1353   -5.4053   27.8239 C   0  0  0  0  0  0  0  0  0  0  0  0
    0.9922   -9.3232   16.5995 O   0  0  0  0  0  0  0  0  0  0  0  0
    1.5232   -7.6869   27.1182 C   0  0  0  0  0  0  0  0  0  0  0  0
    8.6878   -6.6715   27.7262 N   0  0  0  0  0  0  0  0  0  0  0  0
    6.9911   -8.2423   27.1808 C   0  0  0  0  0  0  0  0  0  0  0  0
    3.8436   -7.2758   16.0578 C   0  0  0  0  0  0  0  0  0  0  0  0
    3.1882   -9.7190   17.2566 C   0  0  0  0  0  0  0  0  0  0  0  0
    5.3488   -6.1737   26.5092 C   0  0  0  0  0  0  0  0  0  0  0  0
    7.4567   -6.9464   27.2858 C   0  0  0  0  0  0  0  0  0  0  0  0
    0.1921   -5.7592   27.1123 C   0  0  0  0  0  0  0  0  0  0  0  0
    3.5517   -7.7407   25.9711 C   0  0  0  0  0  0  0  0  0  0  0  0
  1  4  4  0
  1 22  4  0
  2 20  4  0
  2 27  4  0
  3 12  4  0
  3 23  4  0
  4 25  4  0
  4 28  1  0
  5  8  4  0
  5 17  4  0
  6  7  4  0
  6 16  4  0
  7 18  4  0
  8 27  4  0
  9 13  4  0
  9 23  4  0
 10 11  1  0
 11 14  2  0
 11 27  1  0
 12 19  1  0
 12 24  4  0
 13 24  4  0
 15 18  1  0
 16 25  4  0
 16 26  4  0
 17 20  4  0
 17 28  1  0
 18 21  4  0
 21 26  4  0
 22 26  4  0
M  END
$$$$

 Created by Python create_sdf_string function

 28 30  0  0  0  0  0  0  0  0999 V2000
    5.7174   -8.4529   26.7190 C   0  0  0  0  0  0  0  0  0  0  0  0
    0.3974   -7.0711   27.5149 C   0  0  0  0  0  0  0  0  0  0  0  0
    2.5338   -7.6891   16.0102 C   0  0  0  0  0  0  0  0  0  0  0  0
    4.8690   -7.4380   26.4151 C   0  0  0  0  0  0  0  0  0  0  0  0
    2.3021   -5.6726   26.0378 C   0  0  0  0  0  0  0  0  0  0  0  0
    7.0880   -4.6163   27.0010 C   0  0  0  0  0  0  0  0  0  0  0  0
    8.3117   -4.3698   27.4436 C   0  0  0  0  0  0  0  0  0  0  0  0
    1.1339   -5.0515   26.3541 C   0  0  0  0  0  0  0  0  0  0  0  0
    4.8080   -8.0362   16.7101 C   0  0  0  0  0  0  0  0  0  0  0  0
   -1.2173   -3.9294   26.9717 O   0  0  0  0  0  0  0  0  0  0  0  0
   -1.0025   -5.0942   27.4586 C   0  0  0  0  0  0  0  0  0  0  0  0
    2.2474   -8.9123   16.6273 C   0  0  0  0  0  0  0  0  0  0  0  0
    4.4957   -9.2636   17.3041 C   0  0  0  0  0  0  0  0  0  0  0  0
   -1.8070   -5.6086   28.1920 O   0  0  0  0  0  0  0  0  0  0  0  0
   10.4296   -5.1799   28.3140 C   0  0  0  0  0  0  0  0  0  0  0  0
    6.6017   -5.9004   26.9187 C   0  0  0  0  0  0  0  0  0  0  0  0
    2.4761   -6.9940   26.4111 N   0  0  0  0  0  0  0  0  0  0  0  0
    9.1353   -5.4053   27.8239 C   0  0  0  0  0  0  0  0  0  0  0  0
    0.9922   -9.3232   16.5995 O   0  0  0  0  0  0  0  0  0  0  0  0
    1.5232   -7.6869   27.1182 C   0  0  0  0  0  0  0  0  0  0  0  0
    8.6878   -6.6715   27.7262 N   0  0  0  0  0  0  0  0  0  0  0  0
    6.9911   -8.2423   27.1808 C   0  0  0  0  0  0  0  0  0  0  0  0
    3.8436   -7.2758   16.0578 C   0  0  0  0  0  0  0  0  0  0  0  0
    3.1882   -9.7190   17.2566 C   0  0  0  0  0  0  0  0  0  0  0  0
    5.3488   -6.1737   26.5092 C   0  0  0  0  0  0  0  0  0  0  0  0
    7.4567   -6.9464   27.2858 C   0  0  0  0  0  0  0  0  0  0  0  0
    0.1921   -5.7592   27.1123 C   0  0  0  0  0  0  0  0  0  0  0  0
    3.5517   -7.7407   25.9711 C   0  0  0  0  0  0  0  0  0  0  0  0
  1  4  4  0
  1 22  4  0
  2 20  4  0
  2 27  4  0
  3 12  4  0
  3 23  4  0
  4 25  4  0
  4 28  1  0
  5  8  4  0
  5 17  4  0
  6  7  4  0
  6 16  4  0
  7 18  4  0
  8 27  4  0
  9 13  4  0
  9 23  4  0
 10 11  1  0
 11 14  2  0
 11 27  1  0
 12 19  1  0
 12 24  4  0
 13 24  4  0
 15 18  1  0
 16 25  4  0
 16 26  4  0
 17 20  4  0
 17 28  1  0
 18 21  4  0
 21 26  4  0
 22 26  4  0
M  END
$$$$

 Created by Python create_sdf_string function

 28 30  0  0  0  0  0  0  0  0999 V2000
    5.7174   -8.4529   26.7190 C   0  0  0  0  0  0  0  0  0  0  0  0
    0.3974   -7.0711   27.5149 C   0  0  0  0  0  0  0  0  0  0  0  0
    2.5338   -7.6891   16.0102 C   0  0  0  0  0  0  0  0  0  0  0  0
    4.8690   -7.4380   26.4151 C   0  0  0  0  0  0  0  0  0  0  0  0
    2.3021   -5.6726   26.0378 C   0  0  0  0  0  0  0  0  0  0  0  0
    7.0880   -4.6163   27.0010 C   0  0  0  0  0  0  0  0  0  0  0  0
    8.3117   -4.3698   27.4436 C   0  0  0  0  0  0  0  0  0  0  0  0
    1.1339   -5.0515   26.3541 C   0  0  0  0  0  0  0  0  0  0  0  0
    4.8080   -8.0362   16.7101 C   0  0  0  0  0  0  0  0  0  0  0  0
   -1.2173   -3.9294   26.9717 O   0  0  0  0  0  0  0  0  0  0  0  0
   -1.0025   -5.0942   27.4586 C   0  0  0  0  0  0  0  0  0  0  0  0
    2.2474   -8.9123   16.6273 C   0  0  0  0  0  0  0  0  0  0  0  0
    4.4957   -9.2636   17.3041 C   0  0  0  0  0  0  0  0  0  0  0  0
   -1.8070   -5.6086   28.1920 O   0  0  0  0  0  0  0  0  0  0  0  0
   10.4296   -5.1799   28.3140 C   0  0  0  0  0  0  0  0  0  0  0  0
    6.6017   -5.9004   26.9187 C   0  0  0  0  0  0  0  0  0  0  0  0
    2.4761   -6.9940   26.4111 N   0  0  0  0  0  0  0  0  0  0  0  0
    9.1353   -5.4053   27.8239 C   0  0  0  0  0  0  0  0  0  0  0  0
    0.9922   -9.3232   16.5995 O   0  0  0  0  0  0  0  0  0  0  0  0
    1.5232   -7.6869   27.1182 C   0  0  0  0  0  0  0  0  0  0  0  0
    8.6878   -6.6715   27.7262 N   0  0  0  0  0  0  0  0  0  0  0  0
    6.9911   -8.2423   27.1808 C   0  0  0  0  0  0  0  0  0  0  0  0
    3.8436   -7.2758   16.0578 C   0  0  0  0  0  0  0  0  0  0  0  0
    3.1882   -9.7190   17.2566 C   0  0  0  0  0  0  0  0  0  0  0  0
    5.3488   -6.1737   26.5092 C   0  0  0  0  0  0  0  0  0  0  0  0
    7.4567   -6.9464   27.2858 C   0  0  0  0  0  0  0  0  0  0  0  0
    0.1921   -5.7592   27.1123 C   0  0  0  0  0  0  0  0  0  0  0  0
    3.5517   -7.7407   25.9711 C   0  0  0  0  0  0  0  0  0  0  0  0
  1  4  4  0
  1 22  4  0
  2 20  4  0
  2 27  4  0
  3 12  4  0
  3 23  4  0
  4 25  4  0
  4 28  1  0
  5  8  4  0
  5 17  4  0
  6  7  4  0
  6 16  4  0
  7 18  4  0
  8 27  4  0
  9 13  4  0
  9 23  4  0
 10 11  1  0
 11 14  2  0
 11 27  1  0
 12 19  1  0
 12 24  4  0
 13 24  4  0
 15 18  1  0
 16 25  4  0
 16 26  4  0
 17 20  4  0
 17 28  1  0
 18 21  4  0
 21 26  4  0
 22 26  4  0
M  END
$$$$

 Created by Python create_sdf_string function

 28 30  0  0  0  0  0  0  0  0999 V2000
    5.7174   -8.4529   26.7190 C   0  0  0  0  0  0  0  0  0  0  0  0
    0.3974   -7.0711   27.5149 C   0  0  0  0  0  0  0  0  0  0  0  0
    2.5338   -7.6891   16.0102 C   0  0  0  0  0  0  0  0  0  0  0  0
    4.8690   -7.4380   26.4151 C   0  0  0  0  0  0  0  0  0  0  0  0
    2.3021   -5.6726   26.0378 C   0  0  0  0  0  0  0  0  0  0  0  0
    7.0880   -4.6163   27.0010 C   0  0  0  0  0  0  0  0  0  0  0  0
    8.3117   -4.3698   27.4436 C   0  0  0  0  0  0  0  0  0  0  0  0
    1.1339   -5.0515   26.3541 C   0  0  0  0  0  0  0  0  0  0  0  0
    4.8080   -8.0362   16.7101 C   0  0  0  0  0  0  0  0  0  0  0  0
   -1.2173   -3.9294   26.9717 O   0  0  0  0  0  0  0  0  0  0  0  0
   -1.0025   -5.0942   27.4586 C   0  0  0  0  0  0  0  0  0  0  0  0
    2.2474   -8.9123   16.6273 C   0  0  0  0  0  0  0  0  0  0  0  0
    4.4957   -9.2636   17.3041 C   0  0  0  0  0  0  0  0  0  0  0  0
   -1.8070   -5.6086   28.1920 O   0  0  0  0  0  0  0  0  0  0  0  0
   10.4296   -5.1799   28.3140 C   0  0  0  0  0  0  0  0  0  0  0  0
    6.6017   -5.9004   26.9187 C   0  0  0  0  0  0  0  0  0  0  0  0
    2.4761   -6.9940   26.4111 N   0  0  0  0  0  0  0  0  0  0  0  0
    9.1353   -5.4053   27.8239 C   0  0  0  0  0  0  0  0  0  0  0  0
    0.9922   -9.3232   16.5995 O   0  0  0  0  0  0  0  0  0  0  0  0
    1.5232   -7.6869   27.1182 C   0  0  0  0  0  0  0  0  0  0  0  0
    8.6878   -6.6715   27.7262 N   0  0  0  0  0  0  0  0  0  0  0  0
    6.9911   -8.2423   27.1808 C   0  0  0  0  0  0  0  0  0  0  0  0
    3.8436   -7.2758   16.0578 C   0  0  0  0  0  0  0  0  0  0  0  0
    3.1882   -9.7190   17.2566 C   0  0  0  0  0  0  0  0  0  0  0  0
    5.3488   -6.1737   26.5092 C   0  0  0  0  0  0  0  0  0  0  0  0
    7.4567   -6.9464   27.2858 C   0  0  0  0  0  0  0  0  0  0  0  0
    0.1921   -5.7592   27.1123 C   0  0  0  0  0  0  0  0  0  0  0  0
    3.5517   -7.7407   25.9711 C   0  0  0  0  0  0  0  0  0  0  0  0
  1  4  4  0
  1 22  4  0
  2 20  4  0
  2 27  4  0
  3 12  4  0
  3 23  4  0
  4 25  4  0
  4 28  1  0
  5  8  4  0
  5 17  4  0
  6  7  4  0
  6 16  4  0
  7 18  4  0
  8 27  4  0
  9 13  4  0
  9 23  4  0
 10 11  1  0
 11 14  2  0
 11 27  1  0
 12 19  1  0
 12 24  4  0
 13 24  4  0
 15 18  1  0
 16 25  4  0
 16 26  4  0
 17 20  4  0
 17 28  1  0
 18 21  4  0
 21 26  4  0
 22 26  4  0
M  END
$$$$

 Created by Python create_sdf_string function

 28 30  0  0  0  0  0  0  0  0999 V2000
    5.7174   -8.4529   26.7190 C   0  0  0  0  0  0  0  0  0  0  0  0
    0.3974   -7.0711   27.5149 C   0  0  0  0  0  0  0  0  0  0  0  0
    2.5338   -7.6891   16.0102 C   0  0  0  0  0  0  0  0  0  0  0  0
    4.8690   -7.4380   26.4151 C   0  0  0  0  0  0  0  0  0  0  0  0
    2.3021   -5.6726   26.0378 C   0  0  0  0  0  0  0  0  0  0  0  0
    7.0880   -4.6163   27.0010 C   0  0  0  0  0  0  0  0  0  0  0  0
    8.3117   -4.3698   27.4436 C   0  0  0  0  0  0  0  0  0  0  0  0
    1.1339   -5.0515   26.3541 C   0  0  0  0  0  0  0  0  0  0  0  0
    4.8080   -8.0362   16.7101 C   0  0  0  0  0  0  0  0  0  0  0  0
   -1.2173   -3.9294   26.9717 O   0  0  0  0  0  0  0  0  0  0  0  0
   -1.0025   -5.0942   27.4586 C   0  0  0  0  0  0  0  0  0  0  0  0
    2.2474   -8.9123   16.6273 C   0  0  0  0  0  0  0  0  0  0  0  0
    4.4957   -9.2636   17.3041 C   0  0  0  0  0  0  0  0  0  0  0  0
   -1.8070   -5.6086   28.1920 O   0  0  0  0  0  0  0  0  0  0  0  0
   10.4296   -5.1799   28.3140 C   0  0  0  0  0  0  0  0  0  0  0  0
    6.6017   -5.9004   26.9187 C   0  0  0  0  0  0  0  0  0  0  0  0
    2.4761   -6.9940   26.4111 N   0  0  0  0  0  0  0  0  0  0  0  0
    9.1353   -5.4053   27.8239 C   0  0  0  0  0  0  0  0  0  0  0  0
    0.9922   -9.3232   16.5995 O   0  0  0  0  0  0  0  0  0  0  0  0
    1.5232   -7.6869   27.1182 C   0  0  0  0  0  0  0  0  0  0  0  0
    8.6878   -6.6715   27.7262 N   0  0  0  0  0  0  0  0  0  0  0  0
    6.9911   -8.2423   27.1808 C   0  0  0  0  0  0  0  0  0  0  0  0
    3.8436   -7.2758   16.0578 C   0  0  0  0  0  0  0  0  0  0  0  0
    3.1882   -9.7190   17.2566 C   0  0  0  0  0  0  0  0  0  0  0  0
    5.3488   -6.1737   26.5092 C   0  0  0  0  0  0  0  0  0  0  0  0
    7.4567   -6.9464   27.2858 C   0  0  0  0  0  0  0  0  0  0  0  0
    0.1921   -5.7592   27.1123 C   0  0  0  0  0  0  0  0  0  0  0  0
    3.5517   -7.7407   25.9711 C   0  0  0  0  0  0  0  0  0  0  0  0
  1  4  4  0
  1 22  4  0
  2 20  4  0
  2 27  4  0
  3 12  4  0
  3 23  4  0
  4 25  4  0
  4 28  1  0
  5  8  4  0
  5 17  4  0
  6  7  4  0
  6 16  4  0
  7 18  4  0
  8 27  4  0
  9 13  4  0
  9 23  4  0
 10 11  1  0
 11 14  2  0
 11 27  1  0
 12 19  1  0
 12 24  4  0
 13 24  4  0
 15 18  1  0
 16 25  4  0
 16 26  4  0
 17 20  4  0
 17 28  1  0
 18 21  4  0
 21 26  4  0
 22 26  4  0
M  END
$$$$

 Created by Python create_sdf_string function

 28 30  0  0  0  0  0  0  0  0999 V2000
    5.7174   -8.4529   26.7190 C   0  0  0  0  0  0  0  0  0  0  0  0
    0.3974   -7.0711   27.5149 C   0  0  0  0  0  0  0  0  0  0  0  0
    2.5338   -7.6891   16.0102 C   0  0  0  0  0  0  0  0  0  0  0  0
    4.8690   -7.4380   26.4151 C   0  0  0  0  0  0  0  0  0  0  0  0
    2.3021   -5.6726   26.0378 C   0  0  0  0  0  0  0  0  0  0  0  0
    7.0880   -4.6163   27.0010 C   0  0  0  0  0  0  0  0  0  0  0  0
    8.3117   -4.3698   27.4436 C   0  0  0  0  0  0  0  0  0  0  0  0
    1.1339   -5.0515   26.3541 C   0  0  0  0  0  0  0  0  0  0  0  0
    4.8080   -8.0362   16.7101 C   0  0  0  0  0  0  0  0  0  0  0  0
   -1.2173   -3.9294   26.9717 O   0  0  0  0  0  0  0  0  0  0  0  0
   -1.0025   -5.0942   27.4586 C   0  0  0  0  0  0  0  0  0  0  0  0
    2.2474   -8.9123   16.6273 C   0  0  0  0  0  0  0  0  0  0  0  0
    4.4957   -9.2636   17.3041 C   0  0  0  0  0  0  0  0  0  0  0  0
   -1.8070   -5.6086   28.1920 O   0  0  0  0  0  0  0  0  0  0  0  0
   10.4296   -5.1799   28.3140 C   0  0  0  0  0  0  0  0  0  0  0  0
    6.6017   -5.9004   26.9187 C   0  0  0  0  0  0  0  0  0  0  0  0
    2.4761   -6.9940   26.4111 N   0  0  0  0  0  0  0  0  0  0  0  0
    9.1353   -5.4053   27.8239 C   0  0  0  0  0  0  0  0  0  0  0  0
    0.9922   -9.3232   16.5995 O   0  0  0  0  0  0  0  0  0  0  0  0
    1.5232   -7.6869   27.1182 C   0  0  0  0  0  0  0  0  0  0  0  0
    8.6878   -6.6715   27.7262 N   0  0  0  0  0  0  0  0  0  0  0  0
    6.9911   -8.2423   27.1808 C   0  0  0  0  0  0  0  0  0  0  0  0
    3.8436   -7.2758   16.0578 C   0  0  0  0  0  0  0  0  0  0  0  0
    3.1882   -9.7190   17.2566 C   0  0  0  0  0  0  0  0  0  0  0  0
    5.3488   -6.1737   26.5092 C   0  0  0  0  0  0  0  0  0  0  0  0
    7.4567   -6.9464   27.2858 C   0  0  0  0  0  0  0  0  0  0  0  0
    0.1921   -5.7592   27.1123 C   0  0  0  0  0  0  0  0  0  0  0  0
    3.5517   -7.7407   25.9711 C   0  0  0  0  0  0  0  0  0  0  0  0
  1  4  4  0
  1 22  4  0
  2 20  4  0
  2 27  4  0
  3 12  4  0
  3 23  4  0
  4 25  4  0
  4 28  1  0
  5  8  4  0
  5 17  4  0
  6  7  4  0
  6 16  4  0
  7 18  4  0
  8 27  4  0
  9 13  4  0
  9 23  4  0
 10 11  1  0
 11 14  2  0
 11 27  1  0
 12 19  1  0
 12 24  4  0
 13 24  4  0
 15 18  1  0
 16 25  4  0
 16 26  4  0
 17 20  4  0
 17 28  1  0
 18 21  4  0
 21 26  4  0
 22 26  4  0
M  END
$$$$

 Created by Python create_sdf_string function

 28 30  0  0  0  0  0  0  0  0999 V2000
    5.7174   -8.4529   26.7190 C   0  0  0  0  0  0  0  0  0  0  0  0
    0.3974   -7.0711   27.5149 C   0  0  0  0  0  0  0  0  0  0  0  0
    2.5338   -7.6891   16.0102 C   0  0  0  0  0  0  0  0  0  0  0  0
    4.8690   -7.4380   26.4151 C   0  0  0  0  0  0  0  0  0  0  0  0
    2.3021   -5.6726   26.0378 C   0  0  0  0  0  0  0  0  0  0  0  0
    7.0880   -4.6163   27.0010 C   0  0  0  0  0  0  0  0  0  0  0  0
    8.3117   -4.3698   27.4436 C   0  0  0  0  0  0  0  0  0  0  0  0
    1.1339   -5.0515   26.3541 C   0  0  0  0  0  0  0  0  0  0  0  0
    4.8080   -8.0362   16.7101 C   0  0  0  0  0  0  0  0  0  0  0  0
   -1.2173   -3.9294   26.9717 O   0  0  0  0  0  0  0  0  0  0  0  0
   -1.0025   -5.0942   27.4586 C   0  0  0  0  0  0  0  0  0  0  0  0
    2.2474   -8.9123   16.6273 C   0  0  0  0  0  0  0  0  0  0  0  0
    4.4957   -9.2636   17.3041 C   0  0  0  0  0  0  0  0  0  0  0  0
   -1.8070   -5.6086   28.1920 O   0  0  0  0  0  0  0  0  0  0  0  0
   10.4296   -5.1799   28.3140 C   0  0  0  0  0  0  0  0  0  0  0  0
    6.6017   -5.9004   26.9187 C   0  0  0  0  0  0  0  0  0  0  0  0
    2.4761   -6.9940   26.4111 N   0  0  0  0  0  0  0  0  0  0  0  0
    9.1353   -5.4053   27.8239 C   0  0  0  0  0  0  0  0  0  0  0  0
    0.9922   -9.3232   16.5995 O   0  0  0  0  0  0  0  0  0  0  0  0
    1.5232   -7.6869   27.1182 C   0  0  0  0  0  0  0  0  0  0  0  0
    8.6878   -6.6715   27.7262 N   0  0  0  0  0  0  0  0  0  0  0  0
    6.9911   -8.2423   27.1808 C   0  0  0  0  0  0  0  0  0  0  0  0
    3.8436   -7.2758   16.0578 C   0  0  0  0  0  0  0  0  0  0  0  0
    3.1882   -9.7190   17.2566 C   0  0  0  0  0  0  0  0  0  0  0  0
    5.3488   -6.1737   26.5092 C   0  0  0  0  0  0  0  0  0  0  0  0
    7.4567   -6.9464   27.2858 C   0  0  0  0  0  0  0  0  0  0  0  0
    0.1921   -5.7592   27.1123 C   0  0  0  0  0  0  0  0  0  0  0  0
    3.5517   -7.7407   25.9711 C   0  0  0  0  0  0  0  0  0  0  0  0
  1  4  4  0
  1 22  4  0
  2 20  4  0
  2 27  4  0
  3 12  4  0
  3 23  4  0
  4 25  4  0
  4 28  1  0
  5  8  4  0
  5 17  4  0
  6  7  4  0
  6 16  4  0
  7 18  4  0
  8 27  4  0
  9 13  4  0
  9 23  4  0
 10 11  1  0
 11 14  2  0
 11 27  1  0
 12 19  1  0
 12 24  4  0
 13 24  4  0
 15 18  1  0
 16 25  4  0
 16 26  4  0
 17 20  4  0
 17 28  1  0
 18 21  4  0
 21 26  4  0
 22 26  4  0
M  END
$$$$

 Created by Python create_sdf_string function

 28 30  0  0  0  0  0  0  0  0999 V2000
    5.7174   -8.4529   26.7190 C   0  0  0  0  0  0  0  0  0  0  0  0
    0.3974   -7.0711   27.5149 C   0  0  0  0  0  0  0  0  0  0  0  0
    2.5338   -7.6891   16.0102 C   0  0  0  0  0  0  0  0  0  0  0  0
    4.8690   -7.4380   26.4151 C   0  0  0  0  0  0  0  0  0  0  0  0
    2.3021   -5.6726   26.0378 C   0  0  0  0  0  0  0  0  0  0  0  0
    7.0880   -4.6163   27.0010 C   0  0  0  0  0  0  0  0  0  0  0  0
    8.3117   -4.3698   27.4436 C   0  0  0  0  0  0  0  0  0  0  0  0
    1.1339   -5.0515   26.3541 C   0  0  0  0  0  0  0  0  0  0  0  0
    4.8080   -8.0362   16.7101 C   0  0  0  0  0  0  0  0  0  0  0  0
   -1.2173   -3.9294   26.9717 O   0  0  0  0  0  0  0  0  0  0  0  0
   -1.0025   -5.0942   27.4586 C   0  0  0  0  0  0  0  0  0  0  0  0
    2.2474   -8.9123   16.6273 C   0  0  0  0  0  0  0  0  0  0  0  0
    4.4957   -9.2636   17.3041 C   0  0  0  0  0  0  0  0  0  0  0  0
   -1.8070   -5.6086   28.1920 O   0  0  0  0  0  0  0  0  0  0  0  0
   10.4296   -5.1799   28.3140 C   0  0  0  0  0  0  0  0  0  0  0  0
    6.6017   -5.9004   26.9187 C   0  0  0  0  0  0  0  0  0  0  0  0
    2.4761   -6.9940   26.4111 N   0  0  0  0  0  0  0  0  0  0  0  0
    9.1353   -5.4053   27.8239 C   0  0  0  0  0  0  0  0  0  0  0  0
    0.9922   -9.3232   16.5995 O   0  0  0  0  0  0  0  0  0  0  0  0
    1.5232   -7.6869   27.1182 C   0  0  0  0  0  0  0  0  0  0  0  0
    8.6878   -6.6715   27.7262 N   0  0  0  0  0  0  0  0  0  0  0  0
    6.9911   -8.2423   27.1808 C   0  0  0  0  0  0  0  0  0  0  0  0
    3.8436   -7.2758   16.0578 C   0  0  0  0  0  0  0  0  0  0  0  0
    3.1882   -9.7190   17.2566 C   0  0  0  0  0  0  0  0  0  0  0  0
    5.3488   -6.1737   26.5092 C   0  0  0  0  0  0  0  0  0  0  0  0
    7.4567   -6.9464   27.2858 C   0  0  0  0  0  0  0  0  0  0  0  0
    0.1921   -5.7592   27.1123 C   0  0  0  0  0  0  0  0  0  0  0  0
    3.5517   -7.7407   25.9711 C   0  0  0  0  0  0  0  0  0  0  0  0
  1  4  4  0
  1 22  4  0
  2 20  4  0
  2 27  4  0
  3 12  4  0
  3 23  4  0
  4 25  4  0
  4 28  1  0
  5  8  4  0
  5 17  4  0
  6  7  4  0
  6 16  4  0
  7 18  4  0
  8 27  4  0
  9 13  4  0
  9 23  4  0
 10 11  1  0
 11 14  2  0
 11 27  1  0
 12 19  1  0
 12 24  4  0
 13 24  4  0
 15 18  1  0
 16 25  4  0
 16 26  4  0
 17 20  4  0
 17 28  1  0
 18 21  4  0
 21 26  4  0
 22 26  4  0
M  END
$$$$

 Created by Python create_sdf_string function

 28 30  0  0  0  0  0  0  0  0999 V2000
    5.7174   -8.4529   26.7190 C   0  0  0  0  0  0  0  0  0  0  0  0
    0.3974   -7.0711   27.5149 C   0  0  0  0  0  0  0  0  0  0  0  0
    2.5338   -7.6891   16.0102 C   0  0  0  0  0  0  0  0  0  0  0  0
    4.8690   -7.4380   26.4151 C   0  0  0  0  0  0  0  0  0  0  0  0
    2.3021   -5.6726   26.0378 C   0  0  0  0  0  0  0  0  0  0  0  0
    7.0880   -4.6163   27.0010 C   0  0  0  0  0  0  0  0  0  0  0  0
    8.3117   -4.3698   27.4436 C   0  0  0  0  0  0  0  0  0  0  0  0
    1.1339   -5.0515   26.3541 C   0  0  0  0  0  0  0  0  0  0  0  0
    4.8080   -8.0362   16.7101 C   0  0  0  0  0  0  0  0  0  0  0  0
   -1.2173   -3.9294   26.9717 O   0  0  0  0  0  0  0  0  0  0  0  0
   -1.0025   -5.0942   27.4586 C   0  0  0  0  0  0  0  0  0  0  0  0
    2.2474   -8.9123   16.6273 C   0  0  0  0  0  0  0  0  0  0  0  0
    4.4957   -9.2636   17.3041 C   0  0  0  0  0  0  0  0  0  0  0  0
   -1.8070   -5.6086   28.1920 O   0  0  0  0  0  0  0  0  0  0  0  0
   10.4296   -5.1799   28.3140 C   0  0  0  0  0  0  0  0  0  0  0  0
    6.6017   -5.9004   26.9187 C   0  0  0  0  0  0  0  0  0  0  0  0
    2.4761   -6.9940   26.4111 N   0  0  0  0  0  0  0  0  0  0  0  0
    9.1353   -5.4053   27.8239 C   0  0  0  0  0  0  0  0  0  0  0  0
    0.9922   -9.3232   16.5995 O   0  0  0  0  0  0  0  0  0  0  0  0
    1.5232   -7.6869   27.1182 C   0  0  0  0  0  0  0  0  0  0  0  0
    8.6878   -6.6715   27.7262 N   0  0  0  0  0  0  0  0  0  0  0  0
    6.9911   -8.2423   27.1808 C   0  0  0  0  0  0  0  0  0  0  0  0
    3.8436   -7.2758   16.0578 C   0  0  0  0  0  0  0  0  0  0  0  0
    3.1882   -9.7190   17.2566 C   0  0  0  0  0  0  0  0  0  0  0  0
    5.3488   -6.1737   26.5092 C   0  0  0  0  0  0  0  0  0  0  0  0
    7.4567   -6.9464   27.2858 C   0  0  0  0  0  0  0  0  0  0  0  0
    0.1921   -5.7592   27.1123 C   0  0  0  0  0  0  0  0  0  0  0  0
    3.5517   -7.7407   25.9711 C   0  0  0  0  0  0  0  0  0  0  0  0
  1  4  4  0
  1 22  4  0
  2 20  4  0
  2 27  4  0
  3 12  4  0
  3 23  4  0
  4 25  4  0
  4 28  1  0
  5  8  4  0
  5 17  4  0
  6  7  4  0
  6 16  4  0
  7 18  4  0
  8 27  4  0
  9 13  4  0
  9 23  4  0
 10 11  1  0
 11 14  2  0
 11 27  1  0
 12 19  1  0
 12 24  4  0
 13 24  4  0
 15 18  1  0
 16 25  4  0
 16 26  4  0
 17 20  4  0
 17 28  1  0
 18 21  4  0
 21 26  4  0
 22 26  4  0
M  END
$$$$

 Created by Python create_sdf_string function

 28 30  0  0  0  0  0  0  0  0999 V2000
    5.7174   -8.4529   26.7190 C   0  0  0  0  0  0  0  0  0  0  0  0
    0.3974   -7.0711   27.5149 C   0  0  0  0  0  0  0  0  0  0  0  0
    2.5338   -7.6891   16.0102 C   0  0  0  0  0  0  0  0  0  0  0  0
    4.8690   -7.4380   26.4151 C   0  0  0  0  0  0  0  0  0  0  0  0
    2.3021   -5.6726   26.0378 C   0  0  0  0  0  0  0  0  0  0  0  0
    7.0880   -4.6163   27.0010 C   0  0  0  0  0  0  0  0  0  0  0  0
    8.3117   -4.3698   27.4436 C   0  0  0  0  0  0  0  0  0  0  0  0
    1.1339   -5.0515   26.3541 C   0  0  0  0  0  0  0  0  0  0  0  0
    4.8080   -8.0362   16.7101 C   0  0  0  0  0  0  0  0  0  0  0  0
   -1.2173   -3.9294   26.9717 O   0  0  0  0  0  0  0  0  0  0  0  0
   -1.0025   -5.0942   27.4586 C   0  0  0  0  0  0  0  0  0  0  0  0
    2.2474   -8.9123   16.6273 C   0  0  0  0  0  0  0  0  0  0  0  0
    4.4957   -9.2636   17.3041 C   0  0  0  0  0  0  0  0  0  0  0  0
   -1.8070   -5.6086   28.1920 O   0  0  0  0  0  0  0  0  0  0  0  0
   10.4296   -5.1799   28.3140 C   0  0  0  0  0  0  0  0  0  0  0  0
    6.6017   -5.9004   26.9187 C   0  0  0  0  0  0  0  0  0  0  0  0
    2.4761   -6.9940   26.4111 N   0  0  0  0  0  0  0  0  0  0  0  0
    9.1353   -5.4053   27.8239 C   0  0  0  0  0  0  0  0  0  0  0  0
    0.9922   -9.3232   16.5995 O   0  0  0  0  0  0  0  0  0  0  0  0
    1.5232   -7.6869   27.1182 C   0  0  0  0  0  0  0  0  0  0  0  0
    8.6878   -6.6715   27.7262 N   0  0  0  0  0  0  0  0  0  0  0  0
    6.9911   -8.2423   27.1808 C   0  0  0  0  0  0  0  0  0  0  0  0
    3.8436   -7.2758   16.0578 C   0  0  0  0  0  0  0  0  0  0  0  0
    3.1882   -9.7190   17.2566 C   0  0  0  0  0  0  0  0  0  0  0  0
    5.3488   -6.1737   26.5092 C   0  0  0  0  0  0  0  0  0  0  0  0
    7.4567   -6.9464   27.2858 C   0  0  0  0  0  0  0  0  0  0  0  0
    0.1921   -5.7592   27.1123 C   0  0  0  0  0  0  0  0  0  0  0  0
    3.5517   -7.7407   25.9711 C   0  0  0  0  0  0  0  0  0  0  0  0
  1  4  4  0
  1 22  4  0
  2 20  4  0
  2 27  4  0
  3 12  4  0
  3 23  4  0
  4 25  4  0
  4 28  1  0
  5  8  4  0
  5 17  4  0
  6  7  4  0
  6 16  4  0
  7 18  4  0
  8 27  4  0
  9 13  4  0
  9 23  4  0
 10 11  1  0
 11 14  2  0
 11 27  1  0
 12 19  1  0
 12 24  4  0
 13 24  4  0
 15 18  1  0
 16 25  4  0
 16 26  4  0
 17 20  4  0
 17 28  1  0
 18 21  4  0
 21 26  4  0
 22 26  4  0
M  END
$$$$

 Created by Python create_sdf_string function

 28 30  0  0  0  0  0  0  0  0999 V2000
    5.7174   -8.4529   26.7190 C   0  0  0  0  0  0  0  0  0  0  0  0
    0.3974   -7.0711   27.5149 C   0  0  0  0  0  0  0  0  0  0  0  0
    2.5338   -7.6891   16.0102 C   0  0  0  0  0  0  0  0  0  0  0  0
    4.8690   -7.4380   26.4151 C   0  0  0  0  0  0  0  0  0  0  0  0
    2.3021   -5.6726   26.0378 C   0  0  0  0  0  0  0  0  0  0  0  0
    7.0880   -4.6163   27.0010 C   0  0  0  0  0  0  0  0  0  0  0  0
    8.3117   -4.3698   27.4436 C   0  0  0  0  0  0  0  0  0  0  0  0
    1.1339   -5.0515   26.3541 C   0  0  0  0  0  0  0  0  0  0  0  0
    4.8080   -8.0362   16.7101 C   0  0  0  0  0  0  0  0  0  0  0  0
   -1.2173   -3.9294   26.9717 O   0  0  0  0  0  0  0  0  0  0  0  0
   -1.0025   -5.0942   27.4586 C   0  0  0  0  0  0  0  0  0  0  0  0
    2.2474   -8.9123   16.6273 C   0  0  0  0  0  0  0  0  0  0  0  0
    4.4957   -9.2636   17.3041 C   0  0  0  0  0  0  0  0  0  0  0  0
   -1.8070   -5.6086   28.1920 O   0  0  0  0  0  0  0  0  0  0  0  0
   10.4296   -5.1799   28.3140 C   0  0  0  0  0  0  0  0  0  0  0  0
    6.6017   -5.9004   26.9187 C   0  0  0  0  0  0  0  0  0  0  0  0
    2.4761   -6.9940   26.4111 N   0  0  0  0  0  0  0  0  0  0  0  0
    9.1353   -5.4053   27.8239 C   0  0  0  0  0  0  0  0  0  0  0  0
    0.9922   -9.3232   16.5995 O   0  0  0  0  0  0  0  0  0  0  0  0
    1.5232   -7.6869   27.1182 C   0  0  0  0  0  0  0  0  0  0  0  0
    8.6878   -6.6715   27.7262 N   0  0  0  0  0  0  0  0  0  0  0  0
    6.9911   -8.2423   27.1808 C   0  0  0  0  0  0  0  0  0  0  0  0
    3.8436   -7.2758   16.0578 C   0  0  0  0  0  0  0  0  0  0  0  0
    3.1882   -9.7190   17.2566 C   0  0  0  0  0  0  0  0  0  0  0  0
    5.3488   -6.1737   26.5092 C   0  0  0  0  0  0  0  0  0  0  0  0
    7.4567   -6.9464   27.2858 C   0  0  0  0  0  0  0  0  0  0  0  0
    0.1921   -5.7592   27.1123 C   0  0  0  0  0  0  0  0  0  0  0  0
    3.5517   -7.7407   25.9711 C   0  0  0  0  0  0  0  0  0  0  0  0
  1  4  4  0
  1 22  4  0
  2 20  4  0
  2 27  4  0
  3 12  4  0
  3 23  4  0
  4 25  4  0
  4 28  1  0
  5  8  4  0
  5 17  4  0
  6  7  4  0
  6 16  4  0
  7 18  4  0
  8 27  4  0
  9 13  4  0
  9 23  4  0
 10 11  1  0
 11 14  2  0
 11 27  1  0
 12 19  1  0
 12 24  4  0
 13 24  4  0
 15 18  1  0
 16 25  4  0
 16 26  4  0
 17 20  4  0
 17 28  1  0
 18 21  4  0
 21 26  4  0
 22 26  4  0
M  END
$$$$

 Created by Python create_sdf_string function

 28 30  0  0  0  0  0  0  0  0999 V2000
    5.7174   -8.4529   26.7190 C   0  0  0  0  0  0  0  0  0  0  0  0
    0.3974   -7.0711   27.5149 C   0  0  0  0  0  0  0  0  0  0  0  0
    2.5338   -7.6891   16.0102 C   0  0  0  0  0  0  0  0  0  0  0  0
    4.8690   -7.4380   26.4151 C   0  0  0  0  0  0  0  0  0  0  0  0
    2.3021   -5.6726   26.0378 C   0  0  0  0  0  0  0  0  0  0  0  0
    7.0880   -4.6163   27.0010 C   0  0  0  0  0  0  0  0  0  0  0  0
    8.3117   -4.3698   27.4436 C   0  0  0  0  0  0  0  0  0  0  0  0
    1.1339   -5.0515   26.3541 C   0  0  0  0  0  0  0  0  0  0  0  0
    4.8080   -8.0362   16.7101 C   0  0  0  0  0  0  0  0  0  0  0  0
   -1.2173   -3.9294   26.9717 O   0  0  0  0  0  0  0  0  0  0  0  0
   -1.0025   -5.0942   27.4586 C   0  0  0  0  0  0  0  0  0  0  0  0
    2.2474   -8.9123   16.6273 C   0  0  0  0  0  0  0  0  0  0  0  0
    4.4957   -9.2636   17.3041 C   0  0  0  0  0  0  0  0  0  0  0  0
   -1.8070   -5.6086   28.1920 O   0  0  0  0  0  0  0  0  0  0  0  0
   10.4296   -5.1799   28.3140 C   0  0  0  0  0  0  0  0  0  0  0  0
    6.6017   -5.9004   26.9187 C   0  0  0  0  0  0  0  0  0  0  0  0
    2.4761   -6.9940   26.4111 N   0  0  0  0  0  0  0  0  0  0  0  0
    9.1353   -5.4053   27.8239 C   0  0  0  0  0  0  0  0  0  0  0  0
    0.9922   -9.3232   16.5995 O   0  0  0  0  0  0  0  0  0  0  0  0
    1.5232   -7.6869   27.1182 C   0  0  0  0  0  0  0  0  0  0  0  0
    8.6878   -6.6715   27.7262 N   0  0  0  0  0  0  0  0  0  0  0  0
    6.9911   -8.2423   27.1808 C   0  0  0  0  0  0  0  0  0  0  0  0
    3.8436   -7.2758   16.0578 C   0  0  0  0  0  0  0  0  0  0  0  0
    3.1882   -9.7190   17.2566 C   0  0  0  0  0  0  0  0  0  0  0  0
    5.3488   -6.1737   26.5092 C   0  0  0  0  0  0  0  0  0  0  0  0
    7.4567   -6.9464   27.2858 C   0  0  0  0  0  0  0  0  0  0  0  0
    0.1921   -5.7592   27.1123 C   0  0  0  0  0  0  0  0  0  0  0  0
    3.5517   -7.7407   25.9711 C   0  0  0  0  0  0  0  0  0  0  0  0
  1  4  4  0
  1 22  4  0
  2 20  4  0
  2 27  4  0
  3 12  4  0
  3 23  4  0
  4 25  4  0
  4 28  1  0
  5  8  4  0
  5 17  4  0
  6  7  4  0
  6 16  4  0
  7 18  4  0
  8 27  4  0
  9 13  4  0
  9 23  4  0
 10 11  1  0
 11 14  2  0
 11 27  1  0
 12 19  1  0
 12 24  4  0
 13 24  4  0
 15 18  1  0
 16 25  4  0
 16 26  4  0
 17 20  4  0
 17 28  1  0
 18 21  4  0
 21 26  4  0
 22 26  4  0
M  END
$$$$

 Created by Python create_sdf_string function

 28 30  0  0  0  0  0  0  0  0999 V2000
    5.7174   -8.4529   26.7190 C   0  0  0  0  0  0  0  0  0  0  0  0
    0.3974   -7.0711   27.5149 C   0  0  0  0  0  0  0  0  0  0  0  0
    2.5338   -7.6891   16.0102 C   0  0  0  0  0  0  0  0  0  0  0  0
    4.8690   -7.4380   26.4151 C   0  0  0  0  0  0  0  0  0  0  0  0
    2.3021   -5.6726   26.0378 C   0  0  0  0  0  0  0  0  0  0  0  0
    7.0880   -4.6163   27.0010 C   0  0  0  0  0  0  0  0  0  0  0  0
    8.3117   -4.3698   27.4436 C   0  0  0  0  0  0  0  0  0  0  0  0
    1.1339   -5.0515   26.3541 C   0  0  0  0  0  0  0  0  0  0  0  0
    4.8080   -8.0362   16.7101 C   0  0  0  0  0  0  0  0  0  0  0  0
   -1.2173   -3.9294   26.9717 O   0  0  0  0  0  0  0  0  0  0  0  0
   -1.0025   -5.0942   27.4586 C   0  0  0  0  0  0  0  0  0  0  0  0
    2.2474   -8.9123   16.6273 C   0  0  0  0  0  0  0  0  0  0  0  0
    4.4957   -9.2636   17.3041 C   0  0  0  0  0  0  0  0  0  0  0  0
   -1.8070   -5.6086   28.1920 O   0  0  0  0  0  0  0  0  0  0  0  0
   10.4296   -5.1799   28.3140 C   0  0  0  0  0  0  0  0  0  0  0  0
    6.6017   -5.9004   26.9187 C   0  0  0  0  0  0  0  0  0  0  0  0
    2.4761   -6.9940   26.4111 N   0  0  0  0  0  0  0  0  0  0  0  0
    9.1353   -5.4053   27.8239 C   0  0  0  0  0  0  0  0  0  0  0  0
    0.9922   -9.3232   16.5995 O   0  0  0  0  0  0  0  0  0  0  0  0
    1.5232   -7.6869   27.1182 C   0  0  0  0  0  0  0  0  0  0  0  0
    8.6878   -6.6715   27.7262 N   0  0  0  0  0  0  0  0  0  0  0  0
    6.9911   -8.2423   27.1808 C   0  0  0  0  0  0  0  0  0  0  0  0
    3.8436   -7.2758   16.0578 C   0  0  0  0  0  0  0  0  0  0  0  0
    3.1882   -9.7190   17.2566 C   0  0  0  0  0  0  0  0  0  0  0  0
    5.3488   -6.1737   26.5092 C   0  0  0  0  0  0  0  0  0  0  0  0
    7.4567   -6.9464   27.2858 C   0  0  0  0  0  0  0  0  0  0  0  0
    0.1921   -5.7592   27.1123 C   0  0  0  0  0  0  0  0  0  0  0  0
    3.5517   -7.7407   25.9711 C   0  0  0  0  0  0  0  0  0  0  0  0
  1  4  4  0
  1 22  4  0
  2 20  4  0
  2 27  4  0
  3 12  4  0
  3 23  4  0
  4 25  4  0
  4 28  1  0
  5  8  4  0
  5 17  4  0
  6  7  4  0
  6 16  4  0
  7 18  4  0
  8 27  4  0
  9 13  4  0
  9 23  4  0
 10 11  1  0
 11 14  2  0
 11 27  1  0
 12 19  1  0
 12 24  4  0
 13 24  4  0
 15 18  1  0
 16 25  4  0
 16 26  4  0
 17 20  4  0
 17 28  1  0
 18 21  4  0
 21 26  4  0
 22 26  4  0
M  END
$$$$

 Created by Python create_sdf_string function

 28 30  0  0  0  0  0  0  0  0999 V2000
    5.7174   -8.4529   26.7190 C   0  0  0  0  0  0  0  0  0  0  0  0
    0.3974   -7.0711   27.5149 C   0  0  0  0  0  0  0  0  0  0  0  0
    2.5338   -7.6891   16.0102 C   0  0  0  0  0  0  0  0  0  0  0  0
    4.8690   -7.4380   26.4151 C   0  0  0  0  0  0  0  0  0  0  0  0
    2.3021   -5.6726   26.0378 C   0  0  0  0  0  0  0  0  0  0  0  0
    7.0880   -4.6163   27.0010 C   0  0  0  0  0  0  0  0  0  0  0  0
    8.3117   -4.3698   27.4436 C   0  0  0  0  0  0  0  0  0  0  0  0
    1.1339   -5.0515   26.3541 C   0  0  0  0  0  0  0  0  0  0  0  0
    4.8080   -8.0362   16.7101 C   0  0  0  0  0  0  0  0  0  0  0  0
   -1.2173   -3.9294   26.9717 O   0  0  0  0  0  0  0  0  0  0  0  0
   -1.0025   -5.0942   27.4586 C   0  0  0  0  0  0  0  0  0  0  0  0
    2.2474   -8.9123   16.6273 C   0  0  0  0  0  0  0  0  0  0  0  0
    4.4957   -9.2636   17.3041 C   0  0  0  0  0  0  0  0  0  0  0  0
   -1.8070   -5.6086   28.1920 O   0  0  0  0  0  0  0  0  0  0  0  0
   10.4296   -5.1799   28.3140 C   0  0  0  0  0  0  0  0  0  0  0  0
    6.6017   -5.9004   26.9187 C   0  0  0  0  0  0  0  0  0  0  0  0
    2.4761   -6.9940   26.4111 N   0  0  0  0  0  0  0  0  0  0  0  0
    9.1353   -5.4053   27.8239 C   0  0  0  0  0  0  0  0  0  0  0  0
    0.9922   -9.3232   16.5995 O   0  0  0  0  0  0  0  0  0  0  0  0
    1.5232   -7.6869   27.1182 C   0  0  0  0  0  0  0  0  0  0  0  0
    8.6878   -6.6715   27.7262 N   0  0  0  0  0  0  0  0  0  0  0  0
    6.9911   -8.2423   27.1808 C   0  0  0  0  0  0  0  0  0  0  0  0
    3.8436   -7.2758   16.0578 C   0  0  0  0  0  0  0  0  0  0  0  0
    3.1882   -9.7190   17.2566 C   0  0  0  0  0  0  0  0  0  0  0  0
    5.3488   -6.1737   26.5092 C   0  0  0  0  0  0  0  0  0  0  0  0
    7.4567   -6.9464   27.2858 C   0  0  0  0  0  0  0  0  0  0  0  0
    0.1921   -5.7592   27.1123 C   0  0  0  0  0  0  0  0  0  0  0  0
    3.5517   -7.7407   25.9711 C   0  0  0  0  0  0  0  0  0  0  0  0
  1  4  4  0
  1 22  4  0
  2 20  4  0
  2 27  4  0
  3 12  4  0
  3 23  4  0
  4 25  4  0
  4 28  1  0
  5  8  4  0
  5 17  4  0
  6  7  4  0
  6 16  4  0
  7 18  4  0
  8 27  4  0
  9 13  4  0
  9 23  4  0
 10 11  1  0
 11 14  2  0
 11 27  1  0
 12 19  1  0
 12 24  4  0
 13 24  4  0
 15 18  1  0
 16 25  4  0
 16 26  4  0
 17 20  4  0
 17 28  1  0
 18 21  4  0
 21 26  4  0
 22 26  4  0
M  END
$$$$

 Created by Python create_sdf_string function

 28 30  0  0  0  0  0  0  0  0999 V2000
    5.7174   -8.4529   26.7190 C   0  0  0  0  0  0  0  0  0  0  0  0
    0.3974   -7.0711   27.5149 C   0  0  0  0  0  0  0  0  0  0  0  0
    2.5338   -7.6891   16.0102 C   0  0  0  0  0  0  0  0  0  0  0  0
    4.8690   -7.4380   26.4151 C   0  0  0  0  0  0  0  0  0  0  0  0
    2.3021   -5.6726   26.0378 C   0  0  0  0  0  0  0  0  0  0  0  0
    7.0880   -4.6163   27.0010 C   0  0  0  0  0  0  0  0  0  0  0  0
    8.3117   -4.3698   27.4436 C   0  0  0  0  0  0  0  0  0  0  0  0
    1.1339   -5.0515   26.3541 C   0  0  0  0  0  0  0  0  0  0  0  0
    4.8080   -8.0362   16.7101 C   0  0  0  0  0  0  0  0  0  0  0  0
   -1.2173   -3.9294   26.9717 O   0  0  0  0  0  0  0  0  0  0  0  0
   -1.0025   -5.0942   27.4586 C   0  0  0  0  0  0  0  0  0  0  0  0
    2.2474   -8.9123   16.6273 C   0  0  0  0  0  0  0  0  0  0  0  0
    4.4957   -9.2636   17.3041 C   0  0  0  0  0  0  0  0  0  0  0  0
   -1.8070   -5.6086   28.1920 O   0  0  0  0  0  0  0  0  0  0  0  0
   10.4296   -5.1799   28.3140 C   0  0  0  0  0  0  0  0  0  0  0  0
    6.6017   -5.9004   26.9187 C   0  0  0  0  0  0  0  0  0  0  0  0
    2.4761   -6.9940   26.4111 N   0  0  0  0  0  0  0  0  0  0  0  0
    9.1353   -5.4053   27.8239 C   0  0  0  0  0  0  0  0  0  0  0  0
    0.9922   -9.3232   16.5995 O   0  0  0  0  0  0  0  0  0  0  0  0
    1.5232   -7.6869   27.1182 C   0  0  0  0  0  0  0  0  0  0  0  0
    8.6878   -6.6715   27.7262 N   0  0  0  0  0  0  0  0  0  0  0  0
    6.9911   -8.2423   27.1808 C   0  0  0  0  0  0  0  0  0  0  0  0
    3.8436   -7.2758   16.0578 C   0  0  0  0  0  0  0  0  0  0  0  0
    3.1882   -9.7190   17.2566 C   0  0  0  0  0  0  0  0  0  0  0  0
    5.3488   -6.1737   26.5092 C   0  0  0  0  0  0  0  0  0  0  0  0
    7.4567   -6.9464   27.2858 C   0  0  0  0  0  0  0  0  0  0  0  0
    0.1921   -5.7592   27.1123 C   0  0  0  0  0  0  0  0  0  0  0  0
    3.5517   -7.7407   25.9711 C   0  0  0  0  0  0  0  0  0  0  0  0
  1  4  4  0
  1 22  4  0
  2 20  4  0
  2 27  4  0
  3 12  4  0
  3 23  4  0
  4 25  4  0
  4 28  1  0
  5  8  4  0
  5 17  4  0
  6  7  4  0
  6 16  4  0
  7 18  4  0
  8 27  4  0
  9 13  4  0
  9 23  4  0
 10 11  1  0
 11 14  2  0
 11 27  1  0
 12 19  1  0
 12 24  4  0
 13 24  4  0
 15 18  1  0
 16 25  4  0
 16 26  4  0
 17 20  4  0
 17 28  1  0
 18 21  4  0
 21 26  4  0
 22 26  4  0
M  END
$$$$

 Created by Python create_sdf_string function

 28 30  0  0  0  0  0  0  0  0999 V2000
    5.7174   -8.4529   26.7190 C   0  0  0  0  0  0  0  0  0  0  0  0
    0.3974   -7.0711   27.5149 C   0  0  0  0  0  0  0  0  0  0  0  0
    2.5338   -7.6891   16.0102 C   0  0  0  0  0  0  0  0  0  0  0  0
    4.8690   -7.4380   26.4151 C   0  0  0  0  0  0  0  0  0  0  0  0
    2.3021   -5.6726   26.0378 C   0  0  0  0  0  0  0  0  0  0  0  0
    7.0880   -4.6163   27.0010 C   0  0  0  0  0  0  0  0  0  0  0  0
    8.3117   -4.3698   27.4436 C   0  0  0  0  0  0  0  0  0  0  0  0
    1.1339   -5.0515   26.3541 C   0  0  0  0  0  0  0  0  0  0  0  0
    4.8080   -8.0362   16.7101 C   0  0  0  0  0  0  0  0  0  0  0  0
   -1.2173   -3.9294   26.9717 O   0  0  0  0  0  0  0  0  0  0  0  0
   -1.0025   -5.0942   27.4586 C   0  0  0  0  0  0  0  0  0  0  0  0
    2.2474   -8.9123   16.6273 C   0  0  0  0  0  0  0  0  0  0  0  0
    4.4957   -9.2636   17.3041 C   0  0  0  0  0  0  0  0  0  0  0  0
   -1.8070   -5.6086   28.1920 O   0  0  0  0  0  0  0  0  0  0  0  0
   10.4296   -5.1799   28.3140 C   0  0  0  0  0  0  0  0  0  0  0  0
    6.6017   -5.9004   26.9187 C   0  0  0  0  0  0  0  0  0  0  0  0
    2.4761   -6.9940   26.4111 N   0  0  0  0  0  0  0  0  0  0  0  0
    9.1353   -5.4053   27.8239 C   0  0  0  0  0  0  0  0  0  0  0  0
    0.9922   -9.3232   16.5995 O   0  0  0  0  0  0  0  0  0  0  0  0
    1.5232   -7.6869   27.1182 C   0  0  0  0  0  0  0  0  0  0  0  0
    8.6878   -6.6715   27.7262 N   0  0  0  0  0  0  0  0  0  0  0  0
    6.9911   -8.2423   27.1808 C   0  0  0  0  0  0  0  0  0  0  0  0
    3.8436   -7.2758   16.0578 C   0  0  0  0  0  0  0  0  0  0  0  0
    3.1882   -9.7190   17.2566 C   0  0  0  0  0  0  0  0  0  0  0  0
    5.3488   -6.1737   26.5092 C   0  0  0  0  0  0  0  0  0  0  0  0
    7.4567   -6.9464   27.2858 C   0  0  0  0  0  0  0  0  0  0  0  0
    0.1921   -5.7592   27.1123 C   0  0  0  0  0  0  0  0  0  0  0  0
    3.5517   -7.7407   25.9711 C   0  0  0  0  0  0  0  0  0  0  0  0
  1  4  4  0
  1 22  4  0
  2 20  4  0
  2 27  4  0
  3 12  4  0
  3 23  4  0
  4 25  4  0
  4 28  1  0
  5  8  4  0
  5 17  4  0
  6  7  4  0
  6 16  4  0
  7 18  4  0
  8 27  4  0
  9 13  4  0
  9 23  4  0
 10 11  1  0
 11 14  2  0
 11 27  1  0
 12 19  1  0
 12 24  4  0
 13 24  4  0
 15 18  1  0
 16 25  4  0
 16 26  4  0
 17 20  4  0
 17 28  1  0
 18 21  4  0
 21 26  4  0
 22 26  4  0
M  END
$$$$

 Created by Python create_sdf_string function

 28 30  0  0  0  0  0  0  0  0999 V2000
    5.7174   -8.4529   26.7190 C   0  0  0  0  0  0  0  0  0  0  0  0
    0.3974   -7.0711   27.5149 C   0  0  0  0  0  0  0  0  0  0  0  0
    2.5338   -7.6891   16.0102 C   0  0  0  0  0  0  0  0  0  0  0  0
    4.8690   -7.4380   26.4151 C   0  0  0  0  0  0  0  0  0  0  0  0
    2.3021   -5.6726   26.0378 C   0  0  0  0  0  0  0  0  0  0  0  0
    7.0880   -4.6163   27.0010 C   0  0  0  0  0  0  0  0  0  0  0  0
    8.3117   -4.3698   27.4436 C   0  0  0  0  0  0  0  0  0  0  0  0
    1.1339   -5.0515   26.3541 C   0  0  0  0  0  0  0  0  0  0  0  0
    4.8080   -8.0362   16.7101 C   0  0  0  0  0  0  0  0  0  0  0  0
   -1.2173   -3.9294   26.9717 O   0  0  0  0  0  0  0  0  0  0  0  0
   -1.0025   -5.0942   27.4586 C   0  0  0  0  0  0  0  0  0  0  0  0
    2.2474   -8.9123   16.6273 C   0  0  0  0  0  0  0  0  0  0  0  0
    4.4957   -9.2636   17.3041 C   0  0  0  0  0  0  0  0  0  0  0  0
   -1.8070   -5.6086   28.1920 O   0  0  0  0  0  0  0  0  0  0  0  0
   10.4296   -5.1799   28.3140 C   0  0  0  0  0  0  0  0  0  0  0  0
    6.6017   -5.9004   26.9187 C   0  0  0  0  0  0  0  0  0  0  0  0
    2.4761   -6.9940   26.4111 N   0  0  0  0  0  0  0  0  0  0  0  0
    9.1353   -5.4053   27.8239 C   0  0  0  0  0  0  0  0  0  0  0  0
    0.9922   -9.3232   16.5995 O   0  0  0  0  0  0  0  0  0  0  0  0
    1.5232   -7.6869   27.1182 C   0  0  0  0  0  0  0  0  0  0  0  0
    8.6878   -6.6715   27.7262 N   0  0  0  0  0  0  0  0  0  0  0  0
    6.9911   -8.2423   27.1808 C   0  0  0  0  0  0  0  0  0  0  0  0
    3.8436   -7.2758   16.0578 C   0  0  0  0  0  0  0  0  0  0  0  0
    3.1882   -9.7190   17.2566 C   0  0  0  0  0  0  0  0  0  0  0  0
    5.3488   -6.1737   26.5092 C   0  0  0  0  0  0  0  0  0  0  0  0
    7.4567   -6.9464   27.2858 C   0  0  0  0  0  0  0  0  0  0  0  0
    0.1921   -5.7592   27.1123 C   0  0  0  0  0  0  0  0  0  0  0  0
    3.5517   -7.7407   25.9711 C   0  0  0  0  0  0  0  0  0  0  0  0
  1  4  4  0
  1 22  4  0
  2 20  4  0
  2 27  4  0
  3 12  4  0
  3 23  4  0
  4 25  4  0
  4 28  1  0
  5  8  4  0
  5 17  4  0
  6  7  4  0
  6 16  4  0
  7 18  4  0
  8 27  4  0
  9 13  4  0
  9 23  4  0
 10 11  1  0
 11 14  2  0
 11 27  1  0
 12 19  1  0
 12 24  4  0
 13 24  4  0
 15 18  1  0
 16 25  4  0
 16 26  4  0
 17 20  4  0
 17 28  1  0
 18 21  4  0
 21 26  4  0
 22 26  4  0
M  END
$$$$

 Created by Python create_sdf_string function

 28 30  0  0  0  0  0  0  0  0999 V2000
    5.7174   -8.4529   26.7190 C   0  0  0  0  0  0  0  0  0  0  0  0
    0.3974   -7.0711   27.5149 C   0  0  0  0  0  0  0  0  0  0  0  0
    2.5338   -7.6891   16.0102 C   0  0  0  0  0  0  0  0  0  0  0  0
    4.8690   -7.4380   26.4151 C   0  0  0  0  0  0  0  0  0  0  0  0
    2.3021   -5.6726   26.0378 C   0  0  0  0  0  0  0  0  0  0  0  0
    7.0880   -4.6163   27.0010 C   0  0  0  0  0  0  0  0  0  0  0  0
    8.3117   -4.3698   27.4436 C   0  0  0  0  0  0  0  0  0  0  0  0
    1.1339   -5.0515   26.3541 C   0  0  0  0  0  0  0  0  0  0  0  0
    4.8080   -8.0362   16.7101 C   0  0  0  0  0  0  0  0  0  0  0  0
   -1.2173   -3.9294   26.9717 O   0  0  0  0  0  0  0  0  0  0  0  0
   -1.0025   -5.0942   27.4586 C   0  0  0  0  0  0  0  0  0  0  0  0
    2.2474   -8.9123   16.6273 C   0  0  0  0  0  0  0  0  0  0  0  0
    4.4957   -9.2636   17.3041 C   0  0  0  0  0  0  0  0  0  0  0  0
   -1.8070   -5.6086   28.1920 O   0  0  0  0  0  0  0  0  0  0  0  0
   10.4296   -5.1799   28.3140 C   0  0  0  0  0  0  0  0  0  0  0  0
    6.6017   -5.9004   26.9187 C   0  0  0  0  0  0  0  0  0  0  0  0
    2.4761   -6.9940   26.4111 N   0  0  0  0  0  0  0  0  0  0  0  0
    9.1353   -5.4053   27.8239 C   0  0  0  0  0  0  0  0  0  0  0  0
    0.9922   -9.3232   16.5995 O   0  0  0  0  0  0  0  0  0  0  0  0
    1.5232   -7.6869   27.1182 C   0  0  0  0  0  0  0  0  0  0  0  0
    8.6878   -6.6715   27.7262 N   0  0  0  0  0  0  0  0  0  0  0  0
    6.9911   -8.2423   27.1808 C   0  0  0  0  0  0  0  0  0  0  0  0
    3.8436   -7.2758   16.0578 C   0  0  0  0  0  0  0  0  0  0  0  0
    3.1882   -9.7190   17.2566 C   0  0  0  0  0  0  0  0  0  0  0  0
    5.3488   -6.1737   26.5092 C   0  0  0  0  0  0  0  0  0  0  0  0
    7.4567   -6.9464   27.2858 C   0  0  0  0  0  0  0  0  0  0  0  0
    0.1921   -5.7592   27.1123 C   0  0  0  0  0  0  0  0  0  0  0  0
    3.5517   -7.7407   25.9711 C   0  0  0  0  0  0  0  0  0  0  0  0
  1  4  4  0
  1 22  4  0
  2 20  4  0
  2 27  4  0
  3 12  4  0
  3 23  4  0
  4 25  4  0
  4 28  1  0
  5  8  4  0
  5 17  4  0
  6  7  4  0
  6 16  4  0
  7 18  4  0
  8 27  4  0
  9 13  4  0
  9 23  4  0
 10 11  1  0
 11 14  2  0
 11 27  1  0
 12 19  1  0
 12 24  4  0
 13 24  4  0
 15 18  1  0
 16 25  4  0
 16 26  4  0
 17 20  4  0
 17 28  1  0
 18 21  4  0
 21 26  4  0
 22 26  4  0
M  END
$$$$

 Created by Python create_sdf_string function

 28 30  0  0  0  0  0  0  0  0999 V2000
    5.7174   -8.4529   26.7190 C   0  0  0  0  0  0  0  0  0  0  0  0
    0.3974   -7.0711   27.5149 C   0  0  0  0  0  0  0  0  0  0  0  0
    2.5338   -7.6891   16.0102 C   0  0  0  0  0  0  0  0  0  0  0  0
    4.8690   -7.4380   26.4151 C   0  0  0  0  0  0  0  0  0  0  0  0
    2.3021   -5.6726   26.0378 C   0  0  0  0  0  0  0  0  0  0  0  0
    7.0880   -4.6163   27.0010 C   0  0  0  0  0  0  0  0  0  0  0  0
    8.3117   -4.3698   27.4436 C   0  0  0  0  0  0  0  0  0  0  0  0
    1.1339   -5.0515   26.3541 C   0  0  0  0  0  0  0  0  0  0  0  0
    4.8080   -8.0362   16.7101 C   0  0  0  0  0  0  0  0  0  0  0  0
   -1.2173   -3.9294   26.9717 O   0  0  0  0  0  0  0  0  0  0  0  0
   -1.0025   -5.0942   27.4586 C   0  0  0  0  0  0  0  0  0  0  0  0
    2.2474   -8.9123   16.6273 C   0  0  0  0  0  0  0  0  0  0  0  0
    4.4957   -9.2636   17.3041 C   0  0  0  0  0  0  0  0  0  0  0  0
   -1.8070   -5.6086   28.1920 O   0  0  0  0  0  0  0  0  0  0  0  0
   10.4296   -5.1799   28.3140 C   0  0  0  0  0  0  0  0  0  0  0  0
    6.6017   -5.9004   26.9187 C   0  0  0  0  0  0  0  0  0  0  0  0
    2.4761   -6.9940   26.4111 N   0  0  0  0  0  0  0  0  0  0  0  0
    9.1353   -5.4053   27.8239 C   0  0  0  0  0  0  0  0  0  0  0  0
    0.9922   -9.3232   16.5995 O   0  0  0  0  0  0  0  0  0  0  0  0
    1.5232   -7.6869   27.1182 C   0  0  0  0  0  0  0  0  0  0  0  0
    8.6878   -6.6715   27.7262 N   0  0  0  0  0  0  0  0  0  0  0  0
    6.9911   -8.2423   27.1808 C   0  0  0  0  0  0  0  0  0  0  0  0
    3.8436   -7.2758   16.0578 C   0  0  0  0  0  0  0  0  0  0  0  0
    3.1882   -9.7190   17.2566 C   0  0  0  0  0  0  0  0  0  0  0  0
    5.3488   -6.1737   26.5092 C   0  0  0  0  0  0  0  0  0  0  0  0
    7.4567   -6.9464   27.2858 C   0  0  0  0  0  0  0  0  0  0  0  0
    0.1921   -5.7592   27.1123 C   0  0  0  0  0  0  0  0  0  0  0  0
    3.5517   -7.7407   25.9711 C   0  0  0  0  0  0  0  0  0  0  0  0
  1  4  4  0
  1 22  4  0
  2 20  4  0
  2 27  4  0
  3 12  4  0
  3 23  4  0
  4 25  4  0
  4 28  1  0
  5  8  4  0
  5 17  4  0
  6  7  4  0
  6 16  4  0
  7 18  4  0
  8 27  4  0
  9 13  4  0
  9 23  4  0
 10 11  1  0
 11 14  2  0
 11 27  1  0
 12 19  1  0
 12 24  4  0
 13 24  4  0
 15 18  1  0
 16 25  4  0
 16 26  4  0
 17 20  4  0
 17 28  1  0
 18 21  4  0
 21 26  4  0
 22 26  4  0
M  END
$$$$

 Created by Python create_sdf_string function

 28 30  0  0  0  0  0  0  0  0999 V2000
    5.7174   -8.4529   26.7190 C   0  0  0  0  0  0  0  0  0  0  0  0
    0.3974   -7.0711   27.5149 C   0  0  0  0  0  0  0  0  0  0  0  0
    2.5338   -7.6891   16.0102 C   0  0  0  0  0  0  0  0  0  0  0  0
    4.8690   -7.4380   26.4151 C   0  0  0  0  0  0  0  0  0  0  0  0
    2.3021   -5.6726   26.0378 C   0  0  0  0  0  0  0  0  0  0  0  0
    7.0880   -4.6163   27.0010 C   0  0  0  0  0  0  0  0  0  0  0  0
    8.3117   -4.3698   27.4436 C   0  0  0  0  0  0  0  0  0  0  0  0
    1.1339   -5.0515   26.3541 C   0  0  0  0  0  0  0  0  0  0  0  0
    4.8080   -8.0362   16.7101 C   0  0  0  0  0  0  0  0  0  0  0  0
   -1.2173   -3.9294   26.9717 O   0  0  0  0  0  0  0  0  0  0  0  0
   -1.0025   -5.0942   27.4586 C   0  0  0  0  0  0  0  0  0  0  0  0
    2.2474   -8.9123   16.6273 C   0  0  0  0  0  0  0  0  0  0  0  0
    4.4957   -9.2636   17.3041 C   0  0  0  0  0  0  0  0  0  0  0  0
   -1.8070   -5.6086   28.1920 O   0  0  0  0  0  0  0  0  0  0  0  0
   10.4296   -5.1799   28.3140 C   0  0  0  0  0  0  0  0  0  0  0  0
    6.6017   -5.9004   26.9187 C   0  0  0  0  0  0  0  0  0  0  0  0
    2.4761   -6.9940   26.4111 N   0  0  0  0  0  0  0  0  0  0  0  0
    9.1353   -5.4053   27.8239 C   0  0  0  0  0  0  0  0  0  0  0  0
    0.9922   -9.3232   16.5995 O   0  0  0  0  0  0  0  0  0  0  0  0
    1.5232   -7.6869   27.1182 C   0  0  0  0  0  0  0  0  0  0  0  0
    8.6878   -6.6715   27.7262 N   0  0  0  0  0  0  0  0  0  0  0  0
    6.9911   -8.2423   27.1808 C   0  0  0  0  0  0  0  0  0  0  0  0
    3.8436   -7.2758   16.0578 C   0  0  0  0  0  0  0  0  0  0  0  0
    3.1882   -9.7190   17.2566 C   0  0  0  0  0  0  0  0  0  0  0  0
    5.3488   -6.1737   26.5092 C   0  0  0  0  0  0  0  0  0  0  0  0
    7.4567   -6.9464   27.2858 C   0  0  0  0  0  0  0  0  0  0  0  0
    0.1921   -5.7592   27.1123 C   0  0  0  0  0  0  0  0  0  0  0  0
    3.5517   -7.7407   25.9711 C   0  0  0  0  0  0  0  0  0  0  0  0
  1  4  4  0
  1 22  4  0
  2 20  4  0
  2 27  4  0
  3 12  4  0
  3 23  4  0
  4 25  4  0
  4 28  1  0
  5  8  4  0
  5 17  4  0
  6  7  4  0
  6 16  4  0
  7 18  4  0
  8 27  4  0
  9 13  4  0
  9 23  4  0
 10 11  1  0
 11 14  2  0
 11 27  1  0
 12 19  1  0
 12 24  4  0
 13 24  4  0
 15 18  1  0
 16 25  4  0
 16 26  4  0
 17 20  4  0
 17 28  1  0
 18 21  4  0
 21 26  4  0
 22 26  4  0
M  END
$$$$

 Created by Python create_sdf_string function

 28 30  0  0  0  0  0  0  0  0999 V2000
    5.7174   -8.4529   26.7190 C   0  0  0  0  0  0  0  0  0  0  0  0
    0.3974   -7.0711   27.5149 C   0  0  0  0  0  0  0  0  0  0  0  0
    2.5338   -7.6891   16.0102 C   0  0  0  0  0  0  0  0  0  0  0  0
    4.8690   -7.4380   26.4151 C   0  0  0  0  0  0  0  0  0  0  0  0
    2.3021   -5.6726   26.0378 C   0  0  0  0  0  0  0  0  0  0  0  0
    7.0880   -4.6163   27.0010 C   0  0  0  0  0  0  0  0  0  0  0  0
    8.3117   -4.3698   27.4436 C   0  0  0  0  0  0  0  0  0  0  0  0
    1.1339   -5.0515   26.3541 C   0  0  0  0  0  0  0  0  0  0  0  0
    4.8080   -8.0362   16.7101 C   0  0  0  0  0  0  0  0  0  0  0  0
   -1.2173   -3.9294   26.9717 O   0  0  0  0  0  0  0  0  0  0  0  0
   -1.0025   -5.0942   27.4586 C   0  0  0  0  0  0  0  0  0  0  0  0
    2.2474   -8.9123   16.6273 C   0  0  0  0  0  0  0  0  0  0  0  0
    4.4957   -9.2636   17.3041 C   0  0  0  0  0  0  0  0  0  0  0  0
   -1.8070   -5.6086   28.1920 O   0  0  0  0  0  0  0  0  0  0  0  0
   10.4296   -5.1799   28.3140 C   0  0  0  0  0  0  0  0  0  0  0  0
    6.6017   -5.9004   26.9187 C   0  0  0  0  0  0  0  0  0  0  0  0
    2.4761   -6.9940   26.4111 N   0  0  0  0  0  0  0  0  0  0  0  0
    9.1353   -5.4053   27.8239 C   0  0  0  0  0  0  0  0  0  0  0  0
    0.9922   -9.3232   16.5995 O   0  0  0  0  0  0  0  0  0  0  0  0
    1.5232   -7.6869   27.1182 C   0  0  0  0  0  0  0  0  0  0  0  0
    8.6878   -6.6715   27.7262 N   0  0  0  0  0  0  0  0  0  0  0  0
    6.9911   -8.2423   27.1808 C   0  0  0  0  0  0  0  0  0  0  0  0
    3.8436   -7.2758   16.0578 C   0  0  0  0  0  0  0  0  0  0  0  0
    3.1882   -9.7190   17.2566 C   0  0  0  0  0  0  0  0  0  0  0  0
    5.3488   -6.1737   26.5092 C   0  0  0  0  0  0  0  0  0  0  0  0
    7.4567   -6.9464   27.2858 C   0  0  0  0  0  0  0  0  0  0  0  0
    0.1921   -5.7592   27.1123 C   0  0  0  0  0  0  0  0  0  0  0  0
    3.5517   -7.7407   25.9711 C   0  0  0  0  0  0  0  0  0  0  0  0
  1  4  4  0
  1 22  4  0
  2 20  4  0
  2 27  4  0
  3 12  4  0
  3 23  4  0
  4 25  4  0
  4 28  1  0
  5  8  4  0
  5 17  4  0
  6  7  4  0
  6 16  4  0
  7 18  4  0
  8 27  4  0
  9 13  4  0
  9 23  4  0
 10 11  1  0
 11 14  2  0
 11 27  1  0
 12 19  1  0
 12 24  4  0
 13 24  4  0
 15 18  1  0
 16 25  4  0
 16 26  4  0
 17 20  4  0
 17 28  1  0
 18 21  4  0
 21 26  4  0
 22 26  4  0
M  END
$$$$

 Created by Python create_sdf_string function

 28 30  0  0  0  0  0  0  0  0999 V2000
    5.7174   -8.4529   26.7190 C   0  0  0  0  0  0  0  0  0  0  0  0
    0.3974   -7.0711   27.5149 C   0  0  0  0  0  0  0  0  0  0  0  0
    2.5338   -7.6891   16.0102 C   0  0  0  0  0  0  0  0  0  0  0  0
    4.8690   -7.4380   26.4151 C   0  0  0  0  0  0  0  0  0  0  0  0
    2.3021   -5.6726   26.0378 C   0  0  0  0  0  0  0  0  0  0  0  0
    7.0880   -4.6163   27.0010 C   0  0  0  0  0  0  0  0  0  0  0  0
    8.3117   -4.3698   27.4436 C   0  0  0  0  0  0  0  0  0  0  0  0
    1.1339   -5.0515   26.3541 C   0  0  0  0  0  0  0  0  0  0  0  0
    4.8080   -8.0362   16.7101 C   0  0  0  0  0  0  0  0  0  0  0  0
   -1.2173   -3.9294   26.9717 O   0  0  0  0  0  0  0  0  0  0  0  0
   -1.0025   -5.0942   27.4586 C   0  0  0  0  0  0  0  0  0  0  0  0
    2.2474   -8.9123   16.6273 C   0  0  0  0  0  0  0  0  0  0  0  0
    4.4957   -9.2636   17.3041 C   0  0  0  0  0  0  0  0  0  0  0  0
   -1.8070   -5.6086   28.1920 O   0  0  0  0  0  0  0  0  0  0  0  0
   10.4296   -5.1799   28.3140 C   0  0  0  0  0  0  0  0  0  0  0  0
    6.6017   -5.9004   26.9187 C   0  0  0  0  0  0  0  0  0  0  0  0
    2.4761   -6.9940   26.4111 N   0  0  0  0  0  0  0  0  0  0  0  0
    9.1353   -5.4053   27.8239 C   0  0  0  0  0  0  0  0  0  0  0  0
    0.9922   -9.3232   16.5995 O   0  0  0  0  0  0  0  0  0  0  0  0
    1.5232   -7.6869   27.1182 C   0  0  0  0  0  0  0  0  0  0  0  0
    8.6878   -6.6715   27.7262 N   0  0  0  0  0  0  0  0  0  0  0  0
    6.9911   -8.2423   27.1808 C   0  0  0  0  0  0  0  0  0  0  0  0
    3.8436   -7.2758   16.0578 C   0  0  0  0  0  0  0  0  0  0  0  0
    3.1882   -9.7190   17.2566 C   0  0  0  0  0  0  0  0  0  0  0  0
    5.3488   -6.1737   26.5092 C   0  0  0  0  0  0  0  0  0  0  0  0
    7.4567   -6.9464   27.2858 C   0  0  0  0  0  0  0  0  0  0  0  0
    0.1921   -5.7592   27.1123 C   0  0  0  0  0  0  0  0  0  0  0  0
    3.5517   -7.7407   25.9711 C   0  0  0  0  0  0  0  0  0  0  0  0
  1  4  4  0
  1 22  4  0
  2 20  4  0
  2 27  4  0
  3 12  4  0
  3 23  4  0
  4 25  4  0
  4 28  1  0
  5  8  4  0
  5 17  4  0
  6  7  4  0
  6 16  4  0
  7 18  4  0
  8 27  4  0
  9 13  4  0
  9 23  4  0
 10 11  1  0
 11 14  2  0
 11 27  1  0
 12 19  1  0
 12 24  4  0
 13 24  4  0
 15 18  1  0
 16 25  4  0
 16 26  4  0
 17 20  4  0
 17 28  1  0
 18 21  4  0
 21 26  4  0
 22 26  4  0
M  END
$$$$

 Created by Python create_sdf_string function

 28 30  0  0  0  0  0  0  0  0999 V2000
    5.7174   -8.4529   26.7190 C   0  0  0  0  0  0  0  0  0  0  0  0
    0.3974   -7.0711   27.5149 C   0  0  0  0  0  0  0  0  0  0  0  0
    2.5338   -7.6891   16.0102 C   0  0  0  0  0  0  0  0  0  0  0  0
    4.8690   -7.4380   26.4151 C   0  0  0  0  0  0  0  0  0  0  0  0
    2.3021   -5.6726   26.0378 C   0  0  0  0  0  0  0  0  0  0  0  0
    7.0880   -4.6163   27.0010 C   0  0  0  0  0  0  0  0  0  0  0  0
    8.3117   -4.3698   27.4436 C   0  0  0  0  0  0  0  0  0  0  0  0
    1.1339   -5.0515   26.3541 C   0  0  0  0  0  0  0  0  0  0  0  0
    4.8080   -8.0362   16.7101 C   0  0  0  0  0  0  0  0  0  0  0  0
   -1.2173   -3.9294   26.9717 O   0  0  0  0  0  0  0  0  0  0  0  0
   -1.0025   -5.0942   27.4586 C   0  0  0  0  0  0  0  0  0  0  0  0
    2.2474   -8.9123   16.6273 C   0  0  0  0  0  0  0  0  0  0  0  0
    4.4957   -9.2636   17.3041 C   0  0  0  0  0  0  0  0  0  0  0  0
   -1.8070   -5.6086   28.1920 O   0  0  0  0  0  0  0  0  0  0  0  0
   10.4296   -5.1799   28.3140 C   0  0  0  0  0  0  0  0  0  0  0  0
    6.6017   -5.9004   26.9187 C   0  0  0  0  0  0  0  0  0  0  0  0
    2.4761   -6.9940   26.4111 N   0  0  0  0  0  0  0  0  0  0  0  0
    9.1353   -5.4053   27.8239 C   0  0  0  0  0  0  0  0  0  0  0  0
    0.9922   -9.3232   16.5995 O   0  0  0  0  0  0  0  0  0  0  0  0
    1.5232   -7.6869   27.1182 C   0  0  0  0  0  0  0  0  0  0  0  0
    8.6878   -6.6715   27.7262 N   0  0  0  0  0  0  0  0  0  0  0  0
    6.9911   -8.2423   27.1808 C   0  0  0  0  0  0  0  0  0  0  0  0
    3.8436   -7.2758   16.0578 C   0  0  0  0  0  0  0  0  0  0  0  0
    3.1882   -9.7190   17.2566 C   0  0  0  0  0  0  0  0  0  0  0  0
    5.3488   -6.1737   26.5092 C   0  0  0  0  0  0  0  0  0  0  0  0
    7.4567   -6.9464   27.2858 C   0  0  0  0  0  0  0  0  0  0  0  0
    0.1921   -5.7592   27.1123 C   0  0  0  0  0  0  0  0  0  0  0  0
    3.5517   -7.7407   25.9711 C   0  0  0  0  0  0  0  0  0  0  0  0
  1  4  4  0
  1 22  4  0
  2 20  4  0
  2 27  4  0
  3 12  4  0
  3 23  4  0
  4 25  4  0
  4 28  1  0
  5  8  4  0
  5 17  4  0
  6  7  4  0
  6 16  4  0
  7 18  4  0
  8 27  4  0
  9 13  4  0
  9 23  4  0
 10 11  1  0
 11 14  2  0
 11 27  1  0
 12 19  1  0
 12 24  4  0
 13 24  4  0
 15 18  1  0
 16 25  4  0
 16 26  4  0
 17 20  4  0
 17 28  1  0
 18 21  4  0
 21 26  4  0
 22 26  4  0
M  END
$$$$

 Created by Python create_sdf_string function

 28 30  0  0  0  0  0  0  0  0999 V2000
    5.7174   -8.4529   26.7190 C   0  0  0  0  0  0  0  0  0  0  0  0
    0.3974   -7.0711   27.5149 C   0  0  0  0  0  0  0  0  0  0  0  0
    2.5338   -7.6891   16.0102 C   0  0  0  0  0  0  0  0  0  0  0  0
    4.8690   -7.4380   26.4151 C   0  0  0  0  0  0  0  0  0  0  0  0
    2.3021   -5.6726   26.0378 C   0  0  0  0  0  0  0  0  0  0  0  0
    7.0880   -4.6163   27.0010 C   0  0  0  0  0  0  0  0  0  0  0  0
    8.3117   -4.3698   27.4436 C   0  0  0  0  0  0  0  0  0  0  0  0
    1.1339   -5.0515   26.3541 C   0  0  0  0  0  0  0  0  0  0  0  0
    4.8080   -8.0362   16.7101 C   0  0  0  0  0  0  0  0  0  0  0  0
   -1.2173   -3.9294   26.9717 O   0  0  0  0  0  0  0  0  0  0  0  0
   -1.0025   -5.0942   27.4586 C   0  0  0  0  0  0  0  0  0  0  0  0
    2.2474   -8.9123   16.6273 C   0  0  0  0  0  0  0  0  0  0  0  0
    4.4957   -9.2636   17.3041 C   0  0  0  0  0  0  0  0  0  0  0  0
   -1.8070   -5.6086   28.1920 O   0  0  0  0  0  0  0  0  0  0  0  0
   10.4296   -5.1799   28.3140 C   0  0  0  0  0  0  0  0  0  0  0  0
    6.6017   -5.9004   26.9187 C   0  0  0  0  0  0  0  0  0  0  0  0
    2.4761   -6.9940   26.4111 N   0  0  0  0  0  0  0  0  0  0  0  0
    9.1353   -5.4053   27.8239 C   0  0  0  0  0  0  0  0  0  0  0  0
    0.9922   -9.3232   16.5995 O   0  0  0  0  0  0  0  0  0  0  0  0
    1.5232   -7.6869   27.1182 C   0  0  0  0  0  0  0  0  0  0  0  0
    8.6878   -6.6715   27.7262 N   0  0  0  0  0  0  0  0  0  0  0  0
    6.9911   -8.2423   27.1808 C   0  0  0  0  0  0  0  0  0  0  0  0
    3.8436   -7.2758   16.0578 C   0  0  0  0  0  0  0  0  0  0  0  0
    3.1882   -9.7190   17.2566 C   0  0  0  0  0  0  0  0  0  0  0  0
    5.3488   -6.1737   26.5092 C   0  0  0  0  0  0  0  0  0  0  0  0
    7.4567   -6.9464   27.2858 C   0  0  0  0  0  0  0  0  0  0  0  0
    0.1921   -5.7592   27.1123 C   0  0  0  0  0  0  0  0  0  0  0  0
    3.5517   -7.7407   25.9711 C   0  0  0  0  0  0  0  0  0  0  0  0
  1  4  4  0
  1 22  4  0
  2 20  4  0
  2 27  4  0
  3 12  4  0
  3 23  4  0
  4 25  4  0
  4 28  1  0
  5  8  4  0
  5 17  4  0
  6  7  4  0
  6 16  4  0
  7 18  4  0
  8 27  4  0
  9 13  4  0
  9 23  4  0
 10 11  1  0
 11 14  2  0
 11 27  1  0
 12 19  1  0
 12 24  4  0
 13 24  4  0
 15 18  1  0
 16 25  4  0
 16 26  4  0
 17 20  4  0
 17 28  1  0
 18 21  4  0
 21 26  4  0
 22 26  4  0
M  END
$$$$

 Created by Python create_sdf_string function

 28 30  0  0  0  0  0  0  0  0999 V2000
    5.7174   -8.4529   26.7190 C   0  0  0  0  0  0  0  0  0  0  0  0
    0.3974   -7.0711   27.5149 C   0  0  0  0  0  0  0  0  0  0  0  0
    2.5338   -7.6891   16.0102 C   0  0  0  0  0  0  0  0  0  0  0  0
    4.8690   -7.4380   26.4151 C   0  0  0  0  0  0  0  0  0  0  0  0
    2.3021   -5.6726   26.0378 C   0  0  0  0  0  0  0  0  0  0  0  0
    7.0880   -4.6163   27.0010 C   0  0  0  0  0  0  0  0  0  0  0  0
    8.3117   -4.3698   27.4436 C   0  0  0  0  0  0  0  0  0  0  0  0
    1.1339   -5.0515   26.3541 C   0  0  0  0  0  0  0  0  0  0  0  0
    4.8080   -8.0362   16.7101 C   0  0  0  0  0  0  0  0  0  0  0  0
   -1.2173   -3.9294   26.9717 O   0  0  0  0  0  0  0  0  0  0  0  0
   -1.0025   -5.0942   27.4586 C   0  0  0  0  0  0  0  0  0  0  0  0
    2.2474   -8.9123   16.6273 C   0  0  0  0  0  0  0  0  0  0  0  0
    4.4957   -9.2636   17.3041 C   0  0  0  0  0  0  0  0  0  0  0  0
   -1.8070   -5.6086   28.1920 O   0  0  0  0  0  0  0  0  0  0  0  0
   10.4296   -5.1799   28.3140 C   0  0  0  0  0  0  0  0  0  0  0  0
    6.6017   -5.9004   26.9187 C   0  0  0  0  0  0  0  0  0  0  0  0
    2.4761   -6.9940   26.4111 N   0  0  0  0  0  0  0  0  0  0  0  0
    9.1353   -5.4053   27.8239 C   0  0  0  0  0  0  0  0  0  0  0  0
    0.9922   -9.3232   16.5995 O   0  0  0  0  0  0  0  0  0  0  0  0
    1.5232   -7.6869   27.1182 C   0  0  0  0  0  0  0  0  0  0  0  0
    8.6878   -6.6715   27.7262 N   0  0  0  0  0  0  0  0  0  0  0  0
    6.9911   -8.2423   27.1808 C   0  0  0  0  0  0  0  0  0  0  0  0
    3.8436   -7.2758   16.0578 C   0  0  0  0  0  0  0  0  0  0  0  0
    3.1882   -9.7190   17.2566 C   0  0  0  0  0  0  0  0  0  0  0  0
    5.3488   -6.1737   26.5092 C   0  0  0  0  0  0  0  0  0  0  0  0
    7.4567   -6.9464   27.2858 C   0  0  0  0  0  0  0  0  0  0  0  0
    0.1921   -5.7592   27.1123 C   0  0  0  0  0  0  0  0  0  0  0  0
    3.5517   -7.7407   25.9711 C   0  0  0  0  0  0  0  0  0  0  0  0
  1  4  4  0
  1 22  4  0
  2 20  4  0
  2 27  4  0
  3 12  4  0
  3 23  4  0
  4 25  4  0
  4 28  1  0
  5  8  4  0
  5 17  4  0
  6  7  4  0
  6 16  4  0
  7 18  4  0
  8 27  4  0
  9 13  4  0
  9 23  4  0
 10 11  1  0
 11 14  2  0
 11 27  1  0
 12 19  1  0
 12 24  4  0
 13 24  4  0
 15 18  1  0
 16 25  4  0
 16 26  4  0
 17 20  4  0
 17 28  1  0
 18 21  4  0
 21 26  4  0
 22 26  4  0
M  END
$$$$

 Created by Python create_sdf_string function

 28 30  0  0  0  0  0  0  0  0999 V2000
    5.7174   -8.4529   26.7190 C   0  0  0  0  0  0  0  0  0  0  0  0
    0.3974   -7.0711   27.5149 C   0  0  0  0  0  0  0  0  0  0  0  0
    2.5338   -7.6891   16.0102 C   0  0  0  0  0  0  0  0  0  0  0  0
    4.8690   -7.4380   26.4151 C   0  0  0  0  0  0  0  0  0  0  0  0
    2.3021   -5.6726   26.0378 C   0  0  0  0  0  0  0  0  0  0  0  0
    7.0880   -4.6163   27.0010 C   0  0  0  0  0  0  0  0  0  0  0  0
    8.3117   -4.3698   27.4436 C   0  0  0  0  0  0  0  0  0  0  0  0
    1.1339   -5.0515   26.3541 C   0  0  0  0  0  0  0  0  0  0  0  0
    4.8080   -8.0362   16.7101 C   0  0  0  0  0  0  0  0  0  0  0  0
   -1.2173   -3.9294   26.9717 O   0  0  0  0  0  0  0  0  0  0  0  0
   -1.0025   -5.0942   27.4586 C   0  0  0  0  0  0  0  0  0  0  0  0
    2.2474   -8.9123   16.6273 C   0  0  0  0  0  0  0  0  0  0  0  0
    4.4957   -9.2636   17.3041 C   0  0  0  0  0  0  0  0  0  0  0  0
   -1.8070   -5.6086   28.1920 O   0  0  0  0  0  0  0  0  0  0  0  0
   10.4296   -5.1799   28.3140 C   0  0  0  0  0  0  0  0  0  0  0  0
    6.6017   -5.9004   26.9187 C   0  0  0  0  0  0  0  0  0  0  0  0
    2.4761   -6.9940   26.4111 N   0  0  0  0  0  0  0  0  0  0  0  0
    9.1353   -5.4053   27.8239 C   0  0  0  0  0  0  0  0  0  0  0  0
    0.9922   -9.3232   16.5995 O   0  0  0  0  0  0  0  0  0  0  0  0
    1.5232   -7.6869   27.1182 C   0  0  0  0  0  0  0  0  0  0  0  0
    8.6878   -6.6715   27.7262 N   0  0  0  0  0  0  0  0  0  0  0  0
    6.9911   -8.2423   27.1808 C   0  0  0  0  0  0  0  0  0  0  0  0
    3.8436   -7.2758   16.0578 C   0  0  0  0  0  0  0  0  0  0  0  0
    3.1882   -9.7190   17.2566 C   0  0  0  0  0  0  0  0  0  0  0  0
    5.3488   -6.1737   26.5092 C   0  0  0  0  0  0  0  0  0  0  0  0
    7.4567   -6.9464   27.2858 C   0  0  0  0  0  0  0  0  0  0  0  0
    0.1921   -5.7592   27.1123 C   0  0  0  0  0  0  0  0  0  0  0  0
    3.5517   -7.7407   25.9711 C   0  0  0  0  0  0  0  0  0  0  0  0
  1  4  4  0
  1 22  4  0
  2 20  4  0
  2 27  4  0
  3 12  4  0
  3 23  4  0
  4 25  4  0
  4 28  1  0
  5  8  4  0
  5 17  4  0
  6  7  4  0
  6 16  4  0
  7 18  4  0
  8 27  4  0
  9 13  4  0
  9 23  4  0
 10 11  1  0
 11 14  2  0
 11 27  1  0
 12 19  1  0
 12 24  4  0
 13 24  4  0
 15 18  1  0
 16 25  4  0
 16 26  4  0
 17 20  4  0
 17 28  1  0
 18 21  4  0
 21 26  4  0
 22 26  4  0
M  END
$$$$

 Created by Python create_sdf_string function

 28 30  0  0  0  0  0  0  0  0999 V2000
    5.7174   -8.4529   26.7190 C   0  0  0  0  0  0  0  0  0  0  0  0
    0.3974   -7.0711   27.5149 C   0  0  0  0  0  0  0  0  0  0  0  0
    2.5338   -7.6891   16.0102 C   0  0  0  0  0  0  0  0  0  0  0  0
    4.8690   -7.4380   26.4151 C   0  0  0  0  0  0  0  0  0  0  0  0
    2.3021   -5.6726   26.0378 C   0  0  0  0  0  0  0  0  0  0  0  0
    7.0880   -4.6163   27.0010 C   0  0  0  0  0  0  0  0  0  0  0  0
    8.3117   -4.3698   27.4436 C   0  0  0  0  0  0  0  0  0  0  0  0
    1.1339   -5.0515   26.3541 C   0  0  0  0  0  0  0  0  0  0  0  0
    4.8080   -8.0362   16.7101 C   0  0  0  0  0  0  0  0  0  0  0  0
   -1.2173   -3.9294   26.9717 O   0  0  0  0  0  0  0  0  0  0  0  0
   -1.0025   -5.0942   27.4586 C   0  0  0  0  0  0  0  0  0  0  0  0
    2.2474   -8.9123   16.6273 C   0  0  0  0  0  0  0  0  0  0  0  0
    4.4957   -9.2636   17.3041 C   0  0  0  0  0  0  0  0  0  0  0  0
   -1.8070   -5.6086   28.1920 O   0  0  0  0  0  0  0  0  0  0  0  0
   10.4296   -5.1799   28.3140 C   0  0  0  0  0  0  0  0  0  0  0  0
    6.6017   -5.9004   26.9187 C   0  0  0  0  0  0  0  0  0  0  0  0
    2.4761   -6.9940   26.4111 N   0  0  0  0  0  0  0  0  0  0  0  0
    9.1353   -5.4053   27.8239 C   0  0  0  0  0  0  0  0  0  0  0  0
    0.9922   -9.3232   16.5995 O   0  0  0  0  0  0  0  0  0  0  0  0
    1.5232   -7.6869   27.1182 C   0  0  0  0  0  0  0  0  0  0  0  0
    8.6878   -6.6715   27.7262 N   0  0  0  0  0  0  0  0  0  0  0  0
    6.9911   -8.2423   27.1808 C   0  0  0  0  0  0  0  0  0  0  0  0
    3.8436   -7.2758   16.0578 C   0  0  0  0  0  0  0  0  0  0  0  0
    3.1882   -9.7190   17.2566 C   0  0  0  0  0  0  0  0  0  0  0  0
    5.3488   -6.1737   26.5092 C   0  0  0  0  0  0  0  0  0  0  0  0
    7.4567   -6.9464   27.2858 C   0  0  0  0  0  0  0  0  0  0  0  0
    0.1921   -5.7592   27.1123 C   0  0  0  0  0  0  0  0  0  0  0  0
    3.5517   -7.7407   25.9711 C   0  0  0  0  0  0  0  0  0  0  0  0
  1  4  4  0
  1 22  4  0
  2 20  4  0
  2 27  4  0
  3 12  4  0
  3 23  4  0
  4 25  4  0
  4 28  1  0
  5  8  4  0
  5 17  4  0
  6  7  4  0
  6 16  4  0
  7 18  4  0
  8 27  4  0
  9 13  4  0
  9 23  4  0
 10 11  1  0
 11 14  2  0
 11 27  1  0
 12 19  1  0
 12 24  4  0
 13 24  4  0
 15 18  1  0
 16 25  4  0
 16 26  4  0
 17 20  4  0
 17 28  1  0
 18 21  4  0
 21 26  4  0
 22 26  4  0
M  END
$$$$

 Created by Python create_sdf_string function

 28 30  0  0  0  0  0  0  0  0999 V2000
    5.7174   -8.4529   26.7190 C   0  0  0  0  0  0  0  0  0  0  0  0
    0.3974   -7.0711   27.5149 C   0  0  0  0  0  0  0  0  0  0  0  0
    2.5338   -7.6891   16.0102 C   0  0  0  0  0  0  0  0  0  0  0  0
    4.8690   -7.4380   26.4151 C   0  0  0  0  0  0  0  0  0  0  0  0
    2.3021   -5.6726   26.0378 C   0  0  0  0  0  0  0  0  0  0  0  0
    7.0880   -4.6163   27.0010 C   0  0  0  0  0  0  0  0  0  0  0  0
    8.3117   -4.3698   27.4436 C   0  0  0  0  0  0  0  0  0  0  0  0
    1.1339   -5.0515   26.3541 C   0  0  0  0  0  0  0  0  0  0  0  0
    4.8080   -8.0362   16.7101 C   0  0  0  0  0  0  0  0  0  0  0  0
   -1.2173   -3.9294   26.9717 O   0  0  0  0  0  0  0  0  0  0  0  0
   -1.0025   -5.0942   27.4586 C   0  0  0  0  0  0  0  0  0  0  0  0
    2.2474   -8.9123   16.6273 C   0  0  0  0  0  0  0  0  0  0  0  0
    4.4957   -9.2636   17.3041 C   0  0  0  0  0  0  0  0  0  0  0  0
   -1.8070   -5.6086   28.1920 O   0  0  0  0  0  0  0  0  0  0  0  0
   10.4296   -5.1799   28.3140 C   0  0  0  0  0  0  0  0  0  0  0  0
    6.6017   -5.9004   26.9187 C   0  0  0  0  0  0  0  0  0  0  0  0
    2.4761   -6.9940   26.4111 N   0  0  0  0  0  0  0  0  0  0  0  0
    9.1353   -5.4053   27.8239 C   0  0  0  0  0  0  0  0  0  0  0  0
    0.9922   -9.3232   16.5995 O   0  0  0  0  0  0  0  0  0  0  0  0
    1.5232   -7.6869   27.1182 C   0  0  0  0  0  0  0  0  0  0  0  0
    8.6878   -6.6715   27.7262 N   0  0  0  0  0  0  0  0  0  0  0  0
    6.9911   -8.2423   27.1808 C   0  0  0  0  0  0  0  0  0  0  0  0
    3.8436   -7.2758   16.0578 C   0  0  0  0  0  0  0  0  0  0  0  0
    3.1882   -9.7190   17.2566 C   0  0  0  0  0  0  0  0  0  0  0  0
    5.3488   -6.1737   26.5092 C   0  0  0  0  0  0  0  0  0  0  0  0
    7.4567   -6.9464   27.2858 C   0  0  0  0  0  0  0  0  0  0  0  0
    0.1921   -5.7592   27.1123 C   0  0  0  0  0  0  0  0  0  0  0  0
    3.5517   -7.7407   25.9711 C   0  0  0  0  0  0  0  0  0  0  0  0
  1  4  4  0
  1 22  4  0
  2 20  4  0
  2 27  4  0
  3 12  4  0
  3 23  4  0
  4 25  4  0
  4 28  1  0
  5  8  4  0
  5 17  4  0
  6  7  4  0
  6 16  4  0
  7 18  4  0
  8 27  4  0
  9 13  4  0
  9 23  4  0
 10 11  1  0
 11 14  2  0
 11 27  1  0
 12 19  1  0
 12 24  4  0
 13 24  4  0
 15 18  1  0
 16 25  4  0
 16 26  4  0
 17 20  4  0
 17 28  1  0
 18 21  4  0
 21 26  4  0
 22 26  4  0
M  END
$$$$

 Created by Python create_sdf_string function

 28 30  0  0  0  0  0  0  0  0999 V2000
    5.7174   -8.4529   26.7190 C   0  0  0  0  0  0  0  0  0  0  0  0
    0.3974   -7.0711   27.5149 C   0  0  0  0  0  0  0  0  0  0  0  0
    2.5338   -7.6891   16.0102 C   0  0  0  0  0  0  0  0  0  0  0  0
    4.8690   -7.4380   26.4151 C   0  0  0  0  0  0  0  0  0  0  0  0
    2.3021   -5.6726   26.0378 C   0  0  0  0  0  0  0  0  0  0  0  0
    7.0880   -4.6163   27.0010 C   0  0  0  0  0  0  0  0  0  0  0  0
    8.3117   -4.3698   27.4436 C   0  0  0  0  0  0  0  0  0  0  0  0
    1.1339   -5.0515   26.3541 C   0  0  0  0  0  0  0  0  0  0  0  0
    4.8080   -8.0362   16.7101 C   0  0  0  0  0  0  0  0  0  0  0  0
   -1.2173   -3.9294   26.9717 O   0  0  0  0  0  0  0  0  0  0  0  0
   -1.0025   -5.0942   27.4586 C   0  0  0  0  0  0  0  0  0  0  0  0
    2.2474   -8.9123   16.6273 C   0  0  0  0  0  0  0  0  0  0  0  0
    4.4957   -9.2636   17.3041 C   0  0  0  0  0  0  0  0  0  0  0  0
   -1.8070   -5.6086   28.1920 O   0  0  0  0  0  0  0  0  0  0  0  0
   10.4296   -5.1799   28.3140 C   0  0  0  0  0  0  0  0  0  0  0  0
    6.6017   -5.9004   26.9187 C   0  0  0  0  0  0  0  0  0  0  0  0
    2.4761   -6.9940   26.4111 N   0  0  0  0  0  0  0  0  0  0  0  0
    9.1353   -5.4053   27.8239 C   0  0  0  0  0  0  0  0  0  0  0  0
    0.9922   -9.3232   16.5995 O   0  0  0  0  0  0  0  0  0  0  0  0
    1.5232   -7.6869   27.1182 C   0  0  0  0  0  0  0  0  0  0  0  0
    8.6878   -6.6715   27.7262 N   0  0  0  0  0  0  0  0  0  0  0  0
    6.9911   -8.2423   27.1808 C   0  0  0  0  0  0  0  0  0  0  0  0
    3.8436   -7.2758   16.0578 C   0  0  0  0  0  0  0  0  0  0  0  0
    3.1882   -9.7190   17.2566 C   0  0  0  0  0  0  0  0  0  0  0  0
    5.3488   -6.1737   26.5092 C   0  0  0  0  0  0  0  0  0  0  0  0
    7.4567   -6.9464   27.2858 C   0  0  0  0  0  0  0  0  0  0  0  0
    0.1921   -5.7592   27.1123 C   0  0  0  0  0  0  0  0  0  0  0  0
    3.5517   -7.7407   25.9711 C   0  0  0  0  0  0  0  0  0  0  0  0
  1  4  4  0
  1 22  4  0
  2 20  4  0
  2 27  4  0
  3 12  4  0
  3 23  4  0
  4 25  4  0
  4 28  1  0
  5  8  4  0
  5 17  4  0
  6  7  4  0
  6 16  4  0
  7 18  4  0
  8 27  4  0
  9 13  4  0
  9 23  4  0
 10 11  1  0
 11 14  2  0
 11 27  1  0
 12 19  1  0
 12 24  4  0
 13 24  4  0
 15 18  1  0
 16 25  4  0
 16 26  4  0
 17 20  4  0
 17 28  1  0
 18 21  4  0
 21 26  4  0
 22 26  4  0
M  END
$$$$

 Created by Python create_sdf_string function

 28 30  0  0  0  0  0  0  0  0999 V2000
    5.7174   -8.4529   26.7190 C   0  0  0  0  0  0  0  0  0  0  0  0
    0.3974   -7.0711   27.5149 C   0  0  0  0  0  0  0  0  0  0  0  0
    2.5338   -7.6891   16.0102 C   0  0  0  0  0  0  0  0  0  0  0  0
    4.8690   -7.4380   26.4151 C   0  0  0  0  0  0  0  0  0  0  0  0
    2.3021   -5.6726   26.0378 C   0  0  0  0  0  0  0  0  0  0  0  0
    7.0880   -4.6163   27.0010 C   0  0  0  0  0  0  0  0  0  0  0  0
    8.3117   -4.3698   27.4436 C   0  0  0  0  0  0  0  0  0  0  0  0
    1.1339   -5.0515   26.3541 C   0  0  0  0  0  0  0  0  0  0  0  0
    4.8080   -8.0362   16.7101 C   0  0  0  0  0  0  0  0  0  0  0  0
   -1.2173   -3.9294   26.9717 O   0  0  0  0  0  0  0  0  0  0  0  0
   -1.0025   -5.0942   27.4586 C   0  0  0  0  0  0  0  0  0  0  0  0
    2.2474   -8.9123   16.6273 C   0  0  0  0  0  0  0  0  0  0  0  0
    4.4957   -9.2636   17.3041 C   0  0  0  0  0  0  0  0  0  0  0  0
   -1.8070   -5.6086   28.1920 O   0  0  0  0  0  0  0  0  0  0  0  0
   10.4296   -5.1799   28.3140 C   0  0  0  0  0  0  0  0  0  0  0  0
    6.6017   -5.9004   26.9187 C   0  0  0  0  0  0  0  0  0  0  0  0
    2.4761   -6.9940   26.4111 N   0  0  0  0  0  0  0  0  0  0  0  0
    9.1353   -5.4053   27.8239 C   0  0  0  0  0  0  0  0  0  0  0  0
    0.9922   -9.3232   16.5995 O   0  0  0  0  0  0  0  0  0  0  0  0
    1.5232   -7.6869   27.1182 C   0  0  0  0  0  0  0  0  0  0  0  0
    8.6878   -6.6715   27.7262 N   0  0  0  0  0  0  0  0  0  0  0  0
    6.9911   -8.2423   27.1808 C   0  0  0  0  0  0  0  0  0  0  0  0
    3.8436   -7.2758   16.0578 C   0  0  0  0  0  0  0  0  0  0  0  0
    3.1882   -9.7190   17.2566 C   0  0  0  0  0  0  0  0  0  0  0  0
    5.3488   -6.1737   26.5092 C   0  0  0  0  0  0  0  0  0  0  0  0
    7.4567   -6.9464   27.2858 C   0  0  0  0  0  0  0  0  0  0  0  0
    0.1921   -5.7592   27.1123 C   0  0  0  0  0  0  0  0  0  0  0  0
    3.5517   -7.7407   25.9711 C   0  0  0  0  0  0  0  0  0  0  0  0
  1  4  4  0
  1 22  4  0
  2 20  4  0
  2 27  4  0
  3 12  4  0
  3 23  4  0
  4 25  4  0
  4 28  1  0
  5  8  4  0
  5 17  4  0
  6  7  4  0
  6 16  4  0
  7 18  4  0
  8 27  4  0
  9 13  4  0
  9 23  4  0
 10 11  1  0
 11 14  2  0
 11 27  1  0
 12 19  1  0
 12 24  4  0
 13 24  4  0
 15 18  1  0
 16 25  4  0
 16 26  4  0
 17 20  4  0
 17 28  1  0
 18 21  4  0
 21 26  4  0
 22 26  4  0
M  END
$$$$

 Created by Python create_sdf_string function

 28 30  0  0  0  0  0  0  0  0999 V2000
    5.7174   -8.4529   26.7190 C   0  0  0  0  0  0  0  0  0  0  0  0
    0.3974   -7.0711   27.5149 C   0  0  0  0  0  0  0  0  0  0  0  0
    2.5338   -7.6891   16.0102 C   0  0  0  0  0  0  0  0  0  0  0  0
    4.8690   -7.4380   26.4151 C   0  0  0  0  0  0  0  0  0  0  0  0
    2.3021   -5.6726   26.0378 C   0  0  0  0  0  0  0  0  0  0  0  0
    7.0880   -4.6163   27.0010 C   0  0  0  0  0  0  0  0  0  0  0  0
    8.3117   -4.3698   27.4436 C   0  0  0  0  0  0  0  0  0  0  0  0
    1.1339   -5.0515   26.3541 C   0  0  0  0  0  0  0  0  0  0  0  0
    4.8080   -8.0362   16.7101 C   0  0  0  0  0  0  0  0  0  0  0  0
   -1.2173   -3.9294   26.9717 O   0  0  0  0  0  0  0  0  0  0  0  0
   -1.0025   -5.0942   27.4586 C   0  0  0  0  0  0  0  0  0  0  0  0
    2.2474   -8.9123   16.6273 C   0  0  0  0  0  0  0  0  0  0  0  0
    4.4957   -9.2636   17.3041 C   0  0  0  0  0  0  0  0  0  0  0  0
   -1.8070   -5.6086   28.1920 O   0  0  0  0  0  0  0  0  0  0  0  0
   10.4296   -5.1799   28.3140 C   0  0  0  0  0  0  0  0  0  0  0  0
    6.6017   -5.9004   26.9187 C   0  0  0  0  0  0  0  0  0  0  0  0
    2.4761   -6.9940   26.4111 N   0  0  0  0  0  0  0  0  0  0  0  0
    9.1353   -5.4053   27.8239 C   0  0  0  0  0  0  0  0  0  0  0  0
    0.9922   -9.3232   16.5995 O   0  0  0  0  0  0  0  0  0  0  0  0
    1.5232   -7.6869   27.1182 C   0  0  0  0  0  0  0  0  0  0  0  0
    8.6878   -6.6715   27.7262 N   0  0  0  0  0  0  0  0  0  0  0  0
    6.9911   -8.2423   27.1808 C   0  0  0  0  0  0  0  0  0  0  0  0
    3.8436   -7.2758   16.0578 C   0  0  0  0  0  0  0  0  0  0  0  0
    3.1882   -9.7190   17.2566 C   0  0  0  0  0  0  0  0  0  0  0  0
    5.3488   -6.1737   26.5092 C   0  0  0  0  0  0  0  0  0  0  0  0
    7.4567   -6.9464   27.2858 C   0  0  0  0  0  0  0  0  0  0  0  0
    0.1921   -5.7592   27.1123 C   0  0  0  0  0  0  0  0  0  0  0  0
    3.5517   -7.7407   25.9711 C   0  0  0  0  0  0  0  0  0  0  0  0
  1  4  4  0
  1 22  4  0
  2 20  4  0
  2 27  4  0
  3 12  4  0
  3 23  4  0
  4 25  4  0
  4 28  1  0
  5  8  4  0
  5 17  4  0
  6  7  4  0
  6 16  4  0
  7 18  4  0
  8 27  4  0
  9 13  4  0
  9 23  4  0
 10 11  1  0
 11 14  2  0
 11 27  1  0
 12 19  1  0
 12 24  4  0
 13 24  4  0
 15 18  1  0
 16 25  4  0
 16 26  4  0
 17 20  4  0
 17 28  1  0
 18 21  4  0
 21 26  4  0
 22 26  4  0
M  END
$$$$

 Created by Python create_sdf_string function

 28 30  0  0  0  0  0  0  0  0999 V2000
    5.7174   -8.4529   26.7190 C   0  0  0  0  0  0  0  0  0  0  0  0
    0.3974   -7.0711   27.5149 C   0  0  0  0  0  0  0  0  0  0  0  0
    2.5338   -7.6891   16.0102 C   0  0  0  0  0  0  0  0  0  0  0  0
    4.8690   -7.4380   26.4151 C   0  0  0  0  0  0  0  0  0  0  0  0
    2.3021   -5.6726   26.0378 C   0  0  0  0  0  0  0  0  0  0  0  0
    7.0880   -4.6163   27.0010 C   0  0  0  0  0  0  0  0  0  0  0  0
    8.3117   -4.3698   27.4436 C   0  0  0  0  0  0  0  0  0  0  0  0
    1.1339   -5.0515   26.3541 C   0  0  0  0  0  0  0  0  0  0  0  0
    4.8080   -8.0362   16.7101 C   0  0  0  0  0  0  0  0  0  0  0  0
   -1.2173   -3.9294   26.9717 O   0  0  0  0  0  0  0  0  0  0  0  0
   -1.0025   -5.0942   27.4586 C   0  0  0  0  0  0  0  0  0  0  0  0
    2.2474   -8.9123   16.6273 C   0  0  0  0  0  0  0  0  0  0  0  0
    4.4957   -9.2636   17.3041 C   0  0  0  0  0  0  0  0  0  0  0  0
   -1.8070   -5.6086   28.1920 O   0  0  0  0  0  0  0  0  0  0  0  0
   10.4296   -5.1799   28.3140 C   0  0  0  0  0  0  0  0  0  0  0  0
    6.6017   -5.9004   26.9187 C   0  0  0  0  0  0  0  0  0  0  0  0
    2.4761   -6.9940   26.4111 N   0  0  0  0  0  0  0  0  0  0  0  0
    9.1353   -5.4053   27.8239 C   0  0  0  0  0  0  0  0  0  0  0  0
    0.9922   -9.3232   16.5995 O   0  0  0  0  0  0  0  0  0  0  0  0
    1.5232   -7.6869   27.1182 C   0  0  0  0  0  0  0  0  0  0  0  0
    8.6878   -6.6715   27.7262 N   0  0  0  0  0  0  0  0  0  0  0  0
    6.9911   -8.2423   27.1808 C   0  0  0  0  0  0  0  0  0  0  0  0
    3.8436   -7.2758   16.0578 C   0  0  0  0  0  0  0  0  0  0  0  0
    3.1882   -9.7190   17.2566 C   0  0  0  0  0  0  0  0  0  0  0  0
    5.3488   -6.1737   26.5092 C   0  0  0  0  0  0  0  0  0  0  0  0
    7.4567   -6.9464   27.2858 C   0  0  0  0  0  0  0  0  0  0  0  0
    0.1921   -5.7592   27.1123 C   0  0  0  0  0  0  0  0  0  0  0  0
    3.5517   -7.7407   25.9711 C   0  0  0  0  0  0  0  0  0  0  0  0
  1  4  4  0
  1 22  4  0
  2 20  4  0
  2 27  4  0
  3 12  4  0
  3 23  4  0
  4 25  4  0
  4 28  1  0
  5  8  4  0
  5 17  4  0
  6  7  4  0
  6 16  4  0
  7 18  4  0
  8 27  4  0
  9 13  4  0
  9 23  4  0
 10 11  1  0
 11 14  2  0
 11 27  1  0
 12 19  1  0
 12 24  4  0
 13 24  4  0
 15 18  1  0
 16 25  4  0
 16 26  4  0
 17 20  4  0
 17 28  1  0
 18 21  4  0
 21 26  4  0
 22 26  4  0
M  END
$$$$

 Created by Python create_sdf_string function

 28 30  0  0  0  0  0  0  0  0999 V2000
    5.7174   -8.4529   26.7190 C   0  0  0  0  0  0  0  0  0  0  0  0
    0.3974   -7.0711   27.5149 C   0  0  0  0  0  0  0  0  0  0  0  0
    2.5338   -7.6891   16.0102 C   0  0  0  0  0  0  0  0  0  0  0  0
    4.8690   -7.4380   26.4151 C   0  0  0  0  0  0  0  0  0  0  0  0
    2.3021   -5.6726   26.0378 C   0  0  0  0  0  0  0  0  0  0  0  0
    7.0880   -4.6163   27.0010 C   0  0  0  0  0  0  0  0  0  0  0  0
    8.3117   -4.3698   27.4436 C   0  0  0  0  0  0  0  0  0  0  0  0
    1.1339   -5.0515   26.3541 C   0  0  0  0  0  0  0  0  0  0  0  0
    4.8080   -8.0362   16.7101 C   0  0  0  0  0  0  0  0  0  0  0  0
   -1.2173   -3.9294   26.9717 O   0  0  0  0  0  0  0  0  0  0  0  0
   -1.0025   -5.0942   27.4586 C   0  0  0  0  0  0  0  0  0  0  0  0
    2.2474   -8.9123   16.6273 C   0  0  0  0  0  0  0  0  0  0  0  0
    4.4957   -9.2636   17.3041 C   0  0  0  0  0  0  0  0  0  0  0  0
   -1.8070   -5.6086   28.1920 O   0  0  0  0  0  0  0  0  0  0  0  0
   10.4296   -5.1799   28.3140 C   0  0  0  0  0  0  0  0  0  0  0  0
    6.6017   -5.9004   26.9187 C   0  0  0  0  0  0  0  0  0  0  0  0
    2.4761   -6.9940   26.4111 N   0  0  0  0  0  0  0  0  0  0  0  0
    9.1353   -5.4053   27.8239 C   0  0  0  0  0  0  0  0  0  0  0  0
    0.9922   -9.3232   16.5995 O   0  0  0  0  0  0  0  0  0  0  0  0
    1.5232   -7.6869   27.1182 C   0  0  0  0  0  0  0  0  0  0  0  0
    8.6878   -6.6715   27.7262 N   0  0  0  0  0  0  0  0  0  0  0  0
    6.9911   -8.2423   27.1808 C   0  0  0  0  0  0  0  0  0  0  0  0
    3.8436   -7.2758   16.0578 C   0  0  0  0  0  0  0  0  0  0  0  0
    3.1882   -9.7190   17.2566 C   0  0  0  0  0  0  0  0  0  0  0  0
    5.3488   -6.1737   26.5092 C   0  0  0  0  0  0  0  0  0  0  0  0
    7.4567   -6.9464   27.2858 C   0  0  0  0  0  0  0  0  0  0  0  0
    0.1921   -5.7592   27.1123 C   0  0  0  0  0  0  0  0  0  0  0  0
    3.5517   -7.7407   25.9711 C   0  0  0  0  0  0  0  0  0  0  0  0
  1  4  4  0
  1 22  4  0
  2 20  4  0
  2 27  4  0
  3 12  4  0
  3 23  4  0
  4 25  4  0
  4 28  1  0
  5  8  4  0
  5 17  4  0
  6  7  4  0
  6 16  4  0
  7 18  4  0
  8 27  4  0
  9 13  4  0
  9 23  4  0
 10 11  1  0
 11 14  2  0
 11 27  1  0
 12 19  1  0
 12 24  4  0
 13 24  4  0
 15 18  1  0
 16 25  4  0
 16 26  4  0
 17 20  4  0
 17 28  1  0
 18 21  4  0
 21 26  4  0
 22 26  4  0
M  END
$$$$

 Created by Python create_sdf_string function

 28 30  0  0  0  0  0  0  0  0999 V2000
    5.7174   -8.4529   26.7190 C   0  0  0  0  0  0  0  0  0  0  0  0
    0.3974   -7.0711   27.5149 C   0  0  0  0  0  0  0  0  0  0  0  0
    2.5338   -7.6891   16.0102 C   0  0  0  0  0  0  0  0  0  0  0  0
    4.8690   -7.4380   26.4151 C   0  0  0  0  0  0  0  0  0  0  0  0
    2.3021   -5.6726   26.0378 C   0  0  0  0  0  0  0  0  0  0  0  0
    7.0880   -4.6163   27.0010 C   0  0  0  0  0  0  0  0  0  0  0  0
    8.3117   -4.3698   27.4436 C   0  0  0  0  0  0  0  0  0  0  0  0
    1.1339   -5.0515   26.3541 C   0  0  0  0  0  0  0  0  0  0  0  0
    4.8080   -8.0362   16.7101 C   0  0  0  0  0  0  0  0  0  0  0  0
   -1.2173   -3.9294   26.9717 O   0  0  0  0  0  0  0  0  0  0  0  0
   -1.0025   -5.0942   27.4586 C   0  0  0  0  0  0  0  0  0  0  0  0
    2.2474   -8.9123   16.6273 C   0  0  0  0  0  0  0  0  0  0  0  0
    4.4957   -9.2636   17.3041 C   0  0  0  0  0  0  0  0  0  0  0  0
   -1.8070   -5.6086   28.1920 O   0  0  0  0  0  0  0  0  0  0  0  0
   10.4296   -5.1799   28.3140 C   0  0  0  0  0  0  0  0  0  0  0  0
    6.6017   -5.9004   26.9187 C   0  0  0  0  0  0  0  0  0  0  0  0
    2.4761   -6.9940   26.4111 N   0  0  0  0  0  0  0  0  0  0  0  0
    9.1353   -5.4053   27.8239 C   0  0  0  0  0  0  0  0  0  0  0  0
    0.9922   -9.3232   16.5995 O   0  0  0  0  0  0  0  0  0  0  0  0
    1.5232   -7.6869   27.1182 C   0  0  0  0  0  0  0  0  0  0  0  0
    8.6878   -6.6715   27.7262 N   0  0  0  0  0  0  0  0  0  0  0  0
    6.9911   -8.2423   27.1808 C   0  0  0  0  0  0  0  0  0  0  0  0
    3.8436   -7.2758   16.0578 C   0  0  0  0  0  0  0  0  0  0  0  0
    3.1882   -9.7190   17.2566 C   0  0  0  0  0  0  0  0  0  0  0  0
    5.3488   -6.1737   26.5092 C   0  0  0  0  0  0  0  0  0  0  0  0
    7.4567   -6.9464   27.2858 C   0  0  0  0  0  0  0  0  0  0  0  0
    0.1921   -5.7592   27.1123 C   0  0  0  0  0  0  0  0  0  0  0  0
    3.5517   -7.7407   25.9711 C   0  0  0  0  0  0  0  0  0  0  0  0
  1  4  4  0
  1 22  4  0
  2 20  4  0
  2 27  4  0
  3 12  4  0
  3 23  4  0
  4 25  4  0
  4 28  1  0
  5  8  4  0
  5 17  4  0
  6  7  4  0
  6 16  4  0
  7 18  4  0
  8 27  4  0
  9 13  4  0
  9 23  4  0
 10 11  1  0
 11 14  2  0
 11 27  1  0
 12 19  1  0
 12 24  4  0
 13 24  4  0
 15 18  1  0
 16 25  4  0
 16 26  4  0
 17 20  4  0
 17 28  1  0
 18 21  4  0
 21 26  4  0
 22 26  4  0
M  END
$$$$

 Created by Python create_sdf_string function

 28 30  0  0  0  0  0  0  0  0999 V2000
    5.7174   -8.4529   26.7190 C   0  0  0  0  0  0  0  0  0  0  0  0
    0.3974   -7.0711   27.5149 C   0  0  0  0  0  0  0  0  0  0  0  0
    2.5338   -7.6891   16.0102 C   0  0  0  0  0  0  0  0  0  0  0  0
    4.8690   -7.4380   26.4151 C   0  0  0  0  0  0  0  0  0  0  0  0
    2.3021   -5.6726   26.0378 C   0  0  0  0  0  0  0  0  0  0  0  0
    7.0880   -4.6163   27.0010 C   0  0  0  0  0  0  0  0  0  0  0  0
    8.3117   -4.3698   27.4436 C   0  0  0  0  0  0  0  0  0  0  0  0
    1.1339   -5.0515   26.3541 C   0  0  0  0  0  0  0  0  0  0  0  0
    4.8080   -8.0362   16.7101 C   0  0  0  0  0  0  0  0  0  0  0  0
   -1.2173   -3.9294   26.9717 O   0  0  0  0  0  0  0  0  0  0  0  0
   -1.0025   -5.0942   27.4586 C   0  0  0  0  0  0  0  0  0  0  0  0
    2.2474   -8.9123   16.6273 C   0  0  0  0  0  0  0  0  0  0  0  0
    4.4957   -9.2636   17.3041 C   0  0  0  0  0  0  0  0  0  0  0  0
   -1.8070   -5.6086   28.1920 O   0  0  0  0  0  0  0  0  0  0  0  0
   10.4296   -5.1799   28.3140 C   0  0  0  0  0  0  0  0  0  0  0  0
    6.6017   -5.9004   26.9187 C   0  0  0  0  0  0  0  0  0  0  0  0
    2.4761   -6.9940   26.4111 N   0  0  0  0  0  0  0  0  0  0  0  0
    9.1353   -5.4053   27.8239 C   0  0  0  0  0  0  0  0  0  0  0  0
    0.9922   -9.3232   16.5995 O   0  0  0  0  0  0  0  0  0  0  0  0
    1.5232   -7.6869   27.1182 C   0  0  0  0  0  0  0  0  0  0  0  0
    8.6878   -6.6715   27.7262 N   0  0  0  0  0  0  0  0  0  0  0  0
    6.9911   -8.2423   27.1808 C   0  0  0  0  0  0  0  0  0  0  0  0
    3.8436   -7.2758   16.0578 C   0  0  0  0  0  0  0  0  0  0  0  0
    3.1882   -9.7190   17.2566 C   0  0  0  0  0  0  0  0  0  0  0  0
    5.3488   -6.1737   26.5092 C   0  0  0  0  0  0  0  0  0  0  0  0
    7.4567   -6.9464   27.2858 C   0  0  0  0  0  0  0  0  0  0  0  0
    0.1921   -5.7592   27.1123 C   0  0  0  0  0  0  0  0  0  0  0  0
    3.5517   -7.7407   25.9711 C   0  0  0  0  0  0  0  0  0  0  0  0
  1  4  4  0
  1 22  4  0
  2 20  4  0
  2 27  4  0
  3 12  4  0
  3 23  4  0
  4 25  4  0
  4 28  1  0
  5  8  4  0
  5 17  4  0
  6  7  4  0
  6 16  4  0
  7 18  4  0
  8 27  4  0
  9 13  4  0
  9 23  4  0
 10 11  1  0
 11 14  2  0
 11 27  1  0
 12 19  1  0
 12 24  4  0
 13 24  4  0
 15 18  1  0
 16 25  4  0
 16 26  4  0
 17 20  4  0
 17 28  1  0
 18 21  4  0
 21 26  4  0
 22 26  4  0
M  END
$$$$

 Created by Python create_sdf_string function

 28 30  0  0  0  0  0  0  0  0999 V2000
    5.7174   -8.4529   26.7190 C   0  0  0  0  0  0  0  0  0  0  0  0
    0.3974   -7.0711   27.5149 C   0  0  0  0  0  0  0  0  0  0  0  0
    2.5338   -7.6891   16.0102 C   0  0  0  0  0  0  0  0  0  0  0  0
    4.8690   -7.4380   26.4151 C   0  0  0  0  0  0  0  0  0  0  0  0
    2.3021   -5.6726   26.0378 C   0  0  0  0  0  0  0  0  0  0  0  0
    7.0880   -4.6163   27.0010 C   0  0  0  0  0  0  0  0  0  0  0  0
    8.3117   -4.3698   27.4436 C   0  0  0  0  0  0  0  0  0  0  0  0
    1.1339   -5.0515   26.3541 C   0  0  0  0  0  0  0  0  0  0  0  0
    4.8080   -8.0362   16.7101 C   0  0  0  0  0  0  0  0  0  0  0  0
   -1.2173   -3.9294   26.9717 O   0  0  0  0  0  0  0  0  0  0  0  0
   -1.0025   -5.0942   27.4586 C   0  0  0  0  0  0  0  0  0  0  0  0
    2.2474   -8.9123   16.6273 C   0  0  0  0  0  0  0  0  0  0  0  0
    4.4957   -9.2636   17.3041 C   0  0  0  0  0  0  0  0  0  0  0  0
   -1.8070   -5.6086   28.1920 O   0  0  0  0  0  0  0  0  0  0  0  0
   10.4296   -5.1799   28.3140 C   0  0  0  0  0  0  0  0  0  0  0  0
    6.6017   -5.9004   26.9187 C   0  0  0  0  0  0  0  0  0  0  0  0
    2.4761   -6.9940   26.4111 N   0  0  0  0  0  0  0  0  0  0  0  0
    9.1353   -5.4053   27.8239 C   0  0  0  0  0  0  0  0  0  0  0  0
    0.9922   -9.3232   16.5995 O   0  0  0  0  0  0  0  0  0  0  0  0
    1.5232   -7.6869   27.1182 C   0  0  0  0  0  0  0  0  0  0  0  0
    8.6878   -6.6715   27.7262 N   0  0  0  0  0  0  0  0  0  0  0  0
    6.9911   -8.2423   27.1808 C   0  0  0  0  0  0  0  0  0  0  0  0
    3.8436   -7.2758   16.0578 C   0  0  0  0  0  0  0  0  0  0  0  0
    3.1882   -9.7190   17.2566 C   0  0  0  0  0  0  0  0  0  0  0  0
    5.3488   -6.1737   26.5092 C   0  0  0  0  0  0  0  0  0  0  0  0
    7.4567   -6.9464   27.2858 C   0  0  0  0  0  0  0  0  0  0  0  0
    0.1921   -5.7592   27.1123 C   0  0  0  0  0  0  0  0  0  0  0  0
    3.5517   -7.7407   25.9711 C   0  0  0  0  0  0  0  0  0  0  0  0
  1  4  4  0
  1 22  4  0
  2 20  4  0
  2 27  4  0
  3 12  4  0
  3 23  4  0
  4 25  4  0
  4 28  1  0
  5  8  4  0
  5 17  4  0
  6  7  4  0
  6 16  4  0
  7 18  4  0
  8 27  4  0
  9 13  4  0
  9 23  4  0
 10 11  1  0
 11 14  2  0
 11 27  1  0
 12 19  1  0
 12 24  4  0
 13 24  4  0
 15 18  1  0
 16 25  4  0
 16 26  4  0
 17 20  4  0
 17 28  1  0
 18 21  4  0
 21 26  4  0
 22 26  4  0
M  END
$$$$

 Created by Python create_sdf_string function

 28 30  0  0  0  0  0  0  0  0999 V2000
    5.7174   -8.4529   26.7190 C   0  0  0  0  0  0  0  0  0  0  0  0
    0.3974   -7.0711   27.5149 C   0  0  0  0  0  0  0  0  0  0  0  0
    2.5338   -7.6891   16.0102 C   0  0  0  0  0  0  0  0  0  0  0  0
    4.8690   -7.4380   26.4151 C   0  0  0  0  0  0  0  0  0  0  0  0
    2.3021   -5.6726   26.0378 C   0  0  0  0  0  0  0  0  0  0  0  0
    7.0880   -4.6163   27.0010 C   0  0  0  0  0  0  0  0  0  0  0  0
    8.3117   -4.3698   27.4436 C   0  0  0  0  0  0  0  0  0  0  0  0
    1.1339   -5.0515   26.3541 C   0  0  0  0  0  0  0  0  0  0  0  0
    4.8080   -8.0362   16.7101 C   0  0  0  0  0  0  0  0  0  0  0  0
   -1.2173   -3.9294   26.9717 O   0  0  0  0  0  0  0  0  0  0  0  0
   -1.0025   -5.0942   27.4586 C   0  0  0  0  0  0  0  0  0  0  0  0
    2.2474   -8.9123   16.6273 C   0  0  0  0  0  0  0  0  0  0  0  0
    4.4957   -9.2636   17.3041 C   0  0  0  0  0  0  0  0  0  0  0  0
   -1.8070   -5.6086   28.1920 O   0  0  0  0  0  0  0  0  0  0  0  0
   10.4296   -5.1799   28.3140 C   0  0  0  0  0  0  0  0  0  0  0  0
    6.6017   -5.9004   26.9187 C   0  0  0  0  0  0  0  0  0  0  0  0
    2.4761   -6.9940   26.4111 N   0  0  0  0  0  0  0  0  0  0  0  0
    9.1353   -5.4053   27.8239 C   0  0  0  0  0  0  0  0  0  0  0  0
    0.9922   -9.3232   16.5995 O   0  0  0  0  0  0  0  0  0  0  0  0
    1.5232   -7.6869   27.1182 C   0  0  0  0  0  0  0  0  0  0  0  0
    8.6878   -6.6715   27.7262 N   0  0  0  0  0  0  0  0  0  0  0  0
    6.9911   -8.2423   27.1808 C   0  0  0  0  0  0  0  0  0  0  0  0
    3.8436   -7.2758   16.0578 C   0  0  0  0  0  0  0  0  0  0  0  0
    3.1882   -9.7190   17.2566 C   0  0  0  0  0  0  0  0  0  0  0  0
    5.3488   -6.1737   26.5092 C   0  0  0  0  0  0  0  0  0  0  0  0
    7.4567   -6.9464   27.2858 C   0  0  0  0  0  0  0  0  0  0  0  0
    0.1921   -5.7592   27.1123 C   0  0  0  0  0  0  0  0  0  0  0  0
    3.5517   -7.7407   25.9711 C   0  0  0  0  0  0  0  0  0  0  0  0
  1  4  4  0
  1 22  4  0
  2 20  4  0
  2 27  4  0
  3 12  4  0
  3 23  4  0
  4 25  4  0
  4 28  1  0
  5  8  4  0
  5 17  4  0
  6  7  4  0
  6 16  4  0
  7 18  4  0
  8 27  4  0
  9 13  4  0
  9 23  4  0
 10 11  1  0
 11 14  2  0
 11 27  1  0
 12 19  1  0
 12 24  4  0
 13 24  4  0
 15 18  1  0
 16 25  4  0
 16 26  4  0
 17 20  4  0
 17 28  1  0
 18 21  4  0
 21 26  4  0
 22 26  4  0
M  END
$$$$

 Created by Python create_sdf_string function

 28 30  0  0  0  0  0  0  0  0999 V2000
    5.7174   -8.4529   26.7190 C   0  0  0  0  0  0  0  0  0  0  0  0
    0.3974   -7.0711   27.5149 C   0  0  0  0  0  0  0  0  0  0  0  0
    2.5338   -7.6891   16.0102 C   0  0  0  0  0  0  0  0  0  0  0  0
    4.8690   -7.4380   26.4151 C   0  0  0  0  0  0  0  0  0  0  0  0
    2.3021   -5.6726   26.0378 C   0  0  0  0  0  0  0  0  0  0  0  0
    7.0880   -4.6163   27.0010 C   0  0  0  0  0  0  0  0  0  0  0  0
    8.3117   -4.3698   27.4436 C   0  0  0  0  0  0  0  0  0  0  0  0
    1.1339   -5.0515   26.3541 C   0  0  0  0  0  0  0  0  0  0  0  0
    4.8080   -8.0362   16.7101 C   0  0  0  0  0  0  0  0  0  0  0  0
   -1.2173   -3.9294   26.9717 O   0  0  0  0  0  0  0  0  0  0  0  0
   -1.0025   -5.0942   27.4586 C   0  0  0  0  0  0  0  0  0  0  0  0
    2.2474   -8.9123   16.6273 C   0  0  0  0  0  0  0  0  0  0  0  0
    4.4957   -9.2636   17.3041 C   0  0  0  0  0  0  0  0  0  0  0  0
   -1.8070   -5.6086   28.1920 O   0  0  0  0  0  0  0  0  0  0  0  0
   10.4296   -5.1799   28.3140 C   0  0  0  0  0  0  0  0  0  0  0  0
    6.6017   -5.9004   26.9187 C   0  0  0  0  0  0  0  0  0  0  0  0
    2.4761   -6.9940   26.4111 N   0  0  0  0  0  0  0  0  0  0  0  0
    9.1353   -5.4053   27.8239 C   0  0  0  0  0  0  0  0  0  0  0  0
    0.9922   -9.3232   16.5995 O   0  0  0  0  0  0  0  0  0  0  0  0
    1.5232   -7.6869   27.1182 C   0  0  0  0  0  0  0  0  0  0  0  0
    8.6878   -6.6715   27.7262 N   0  0  0  0  0  0  0  0  0  0  0  0
    6.9911   -8.2423   27.1808 C   0  0  0  0  0  0  0  0  0  0  0  0
    3.8436   -7.2758   16.0578 C   0  0  0  0  0  0  0  0  0  0  0  0
    3.1882   -9.7190   17.2566 C   0  0  0  0  0  0  0  0  0  0  0  0
    5.3488   -6.1737   26.5092 C   0  0  0  0  0  0  0  0  0  0  0  0
    7.4567   -6.9464   27.2858 C   0  0  0  0  0  0  0  0  0  0  0  0
    0.1921   -5.7592   27.1123 C   0  0  0  0  0  0  0  0  0  0  0  0
    3.5517   -7.7407   25.9711 C   0  0  0  0  0  0  0  0  0  0  0  0
  1  4  4  0
  1 22  4  0
  2 20  4  0
  2 27  4  0
  3 12  4  0
  3 23  4  0
  4 25  4  0
  4 28  1  0
  5  8  4  0
  5 17  4  0
  6  7  4  0
  6 16  4  0
  7 18  4  0
  8 27  4  0
  9 13  4  0
  9 23  4  0
 10 11  1  0
 11 14  2  0
 11 27  1  0
 12 19  1  0
 12 24  4  0
 13 24  4  0
 15 18  1  0
 16 25  4  0
 16 26  4  0
 17 20  4  0
 17 28  1  0
 18 21  4  0
 21 26  4  0
 22 26  4  0
M  END
$$$$

 Created by Python create_sdf_string function

 28 30  0  0  0  0  0  0  0  0999 V2000
    5.7174   -8.4529   26.7190 C   0  0  0  0  0  0  0  0  0  0  0  0
    0.3974   -7.0711   27.5149 C   0  0  0  0  0  0  0  0  0  0  0  0
    2.5338   -7.6891   16.0102 C   0  0  0  0  0  0  0  0  0  0  0  0
    4.8690   -7.4380   26.4151 C   0  0  0  0  0  0  0  0  0  0  0  0
    2.3021   -5.6726   26.0378 C   0  0  0  0  0  0  0  0  0  0  0  0
    7.0880   -4.6163   27.0010 C   0  0  0  0  0  0  0  0  0  0  0  0
    8.3117   -4.3698   27.4436 C   0  0  0  0  0  0  0  0  0  0  0  0
    1.1339   -5.0515   26.3541 C   0  0  0  0  0  0  0  0  0  0  0  0
    4.8080   -8.0362   16.7101 C   0  0  0  0  0  0  0  0  0  0  0  0
   -1.2173   -3.9294   26.9717 O   0  0  0  0  0  0  0  0  0  0  0  0
   -1.0025   -5.0942   27.4586 C   0  0  0  0  0  0  0  0  0  0  0  0
    2.2474   -8.9123   16.6273 C   0  0  0  0  0  0  0  0  0  0  0  0
    4.4957   -9.2636   17.3041 C   0  0  0  0  0  0  0  0  0  0  0  0
   -1.8070   -5.6086   28.1920 O   0  0  0  0  0  0  0  0  0  0  0  0
   10.4296   -5.1799   28.3140 C   0  0  0  0  0  0  0  0  0  0  0  0
    6.6017   -5.9004   26.9187 C   0  0  0  0  0  0  0  0  0  0  0  0
    2.4761   -6.9940   26.4111 N   0  0  0  0  0  0  0  0  0  0  0  0
    9.1353   -5.4053   27.8239 C   0  0  0  0  0  0  0  0  0  0  0  0
    0.9922   -9.3232   16.5995 O   0  0  0  0  0  0  0  0  0  0  0  0
    1.5232   -7.6869   27.1182 C   0  0  0  0  0  0  0  0  0  0  0  0
    8.6878   -6.6715   27.7262 N   0  0  0  0  0  0  0  0  0  0  0  0
    6.9911   -8.2423   27.1808 C   0  0  0  0  0  0  0  0  0  0  0  0
    3.8436   -7.2758   16.0578 C   0  0  0  0  0  0  0  0  0  0  0  0
    3.1882   -9.7190   17.2566 C   0  0  0  0  0  0  0  0  0  0  0  0
    5.3488   -6.1737   26.5092 C   0  0  0  0  0  0  0  0  0  0  0  0
    7.4567   -6.9464   27.2858 C   0  0  0  0  0  0  0  0  0  0  0  0
    0.1921   -5.7592   27.1123 C   0  0  0  0  0  0  0  0  0  0  0  0
    3.5517   -7.7407   25.9711 C   0  0  0  0  0  0  0  0  0  0  0  0
  1  4  4  0
  1 22  4  0
  2 20  4  0
  2 27  4  0
  3 12  4  0
  3 23  4  0
  4 25  4  0
  4 28  1  0
  5  8  4  0
  5 17  4  0
  6  7  4  0
  6 16  4  0
  7 18  4  0
  8 27  4  0
  9 13  4  0
  9 23  4  0
 10 11  1  0
 11 14  2  0
 11 27  1  0
 12 19  1  0
 12 24  4  0
 13 24  4  0
 15 18  1  0
 16 25  4  0
 16 26  4  0
 17 20  4  0
 17 28  1  0
 18 21  4  0
 21 26  4  0
 22 26  4  0
M  END
$$$$

 Created by Python create_sdf_string function

 28 30  0  0  0  0  0  0  0  0999 V2000
    5.7174   -8.4529   26.7190 C   0  0  0  0  0  0  0  0  0  0  0  0
    0.3974   -7.0711   27.5149 C   0  0  0  0  0  0  0  0  0  0  0  0
    2.5338   -7.6891   16.0102 C   0  0  0  0  0  0  0  0  0  0  0  0
    4.8690   -7.4380   26.4151 C   0  0  0  0  0  0  0  0  0  0  0  0
    2.3021   -5.6726   26.0378 C   0  0  0  0  0  0  0  0  0  0  0  0
    7.0880   -4.6163   27.0010 C   0  0  0  0  0  0  0  0  0  0  0  0
    8.3117   -4.3698   27.4436 C   0  0  0  0  0  0  0  0  0  0  0  0
    1.1339   -5.0515   26.3541 C   0  0  0  0  0  0  0  0  0  0  0  0
    4.8080   -8.0362   16.7101 C   0  0  0  0  0  0  0  0  0  0  0  0
   -1.2173   -3.9294   26.9717 O   0  0  0  0  0  0  0  0  0  0  0  0
   -1.0025   -5.0942   27.4586 C   0  0  0  0  0  0  0  0  0  0  0  0
    2.2474   -8.9123   16.6273 C   0  0  0  0  0  0  0  0  0  0  0  0
    4.4957   -9.2636   17.3041 C   0  0  0  0  0  0  0  0  0  0  0  0
   -1.8070   -5.6086   28.1920 O   0  0  0  0  0  0  0  0  0  0  0  0
   10.4296   -5.1799   28.3140 C   0  0  0  0  0  0  0  0  0  0  0  0
    6.6017   -5.9004   26.9187 C   0  0  0  0  0  0  0  0  0  0  0  0
    2.4761   -6.9940   26.4111 N   0  0  0  0  0  0  0  0  0  0  0  0
    9.1353   -5.4053   27.8239 C   0  0  0  0  0  0  0  0  0  0  0  0
    0.9922   -9.3232   16.5995 O   0  0  0  0  0  0  0  0  0  0  0  0
    1.5232   -7.6869   27.1182 C   0  0  0  0  0  0  0  0  0  0  0  0
    8.6878   -6.6715   27.7262 N   0  0  0  0  0  0  0  0  0  0  0  0
    6.9911   -8.2423   27.1808 C   0  0  0  0  0  0  0  0  0  0  0  0
    3.8436   -7.2758   16.0578 C   0  0  0  0  0  0  0  0  0  0  0  0
    3.1882   -9.7190   17.2566 C   0  0  0  0  0  0  0  0  0  0  0  0
    5.3488   -6.1737   26.5092 C   0  0  0  0  0  0  0  0  0  0  0  0
    7.4567   -6.9464   27.2858 C   0  0  0  0  0  0  0  0  0  0  0  0
    0.1921   -5.7592   27.1123 C   0  0  0  0  0  0  0  0  0  0  0  0
    3.5517   -7.7407   25.9711 C   0  0  0  0  0  0  0  0  0  0  0  0
  1  4  4  0
  1 22  4  0
  2 20  4  0
  2 27  4  0
  3 12  4  0
  3 23  4  0
  4 25  4  0
  4 28  1  0
  5  8  4  0
  5 17  4  0
  6  7  4  0
  6 16  4  0
  7 18  4  0
  8 27  4  0
  9 13  4  0
  9 23  4  0
 10 11  1  0
 11 14  2  0
 11 27  1  0
 12 19  1  0
 12 24  4  0
 13 24  4  0
 15 18  1  0
 16 25  4  0
 16 26  4  0
 17 20  4  0
 17 28  1  0
 18 21  4  0
 21 26  4  0
 22 26  4  0
M  END
$$$$

 Created by Python create_sdf_string function

 28 30  0  0  0  0  0  0  0  0999 V2000
    5.7174   -8.4529   26.7190 C   0  0  0  0  0  0  0  0  0  0  0  0
    0.3974   -7.0711   27.5149 C   0  0  0  0  0  0  0  0  0  0  0  0
    2.5338   -7.6891   16.0102 C   0  0  0  0  0  0  0  0  0  0  0  0
    4.8690   -7.4380   26.4151 C   0  0  0  0  0  0  0  0  0  0  0  0
    2.3021   -5.6726   26.0378 C   0  0  0  0  0  0  0  0  0  0  0  0
    7.0880   -4.6163   27.0010 C   0  0  0  0  0  0  0  0  0  0  0  0
    8.3117   -4.3698   27.4436 C   0  0  0  0  0  0  0  0  0  0  0  0
    1.1339   -5.0515   26.3541 C   0  0  0  0  0  0  0  0  0  0  0  0
    4.8080   -8.0362   16.7101 C   0  0  0  0  0  0  0  0  0  0  0  0
   -1.2173   -3.9294   26.9717 O   0  0  0  0  0  0  0  0  0  0  0  0
   -1.0025   -5.0942   27.4586 C   0  0  0  0  0  0  0  0  0  0  0  0
    2.2474   -8.9123   16.6273 C   0  0  0  0  0  0  0  0  0  0  0  0
    4.4957   -9.2636   17.3041 C   0  0  0  0  0  0  0  0  0  0  0  0
   -1.8070   -5.6086   28.1920 O   0  0  0  0  0  0  0  0  0  0  0  0
   10.4296   -5.1799   28.3140 C   0  0  0  0  0  0  0  0  0  0  0  0
    6.6017   -5.9004   26.9187 C   0  0  0  0  0  0  0  0  0  0  0  0
    2.4761   -6.9940   26.4111 N   0  0  0  0  0  0  0  0  0  0  0  0
    9.1353   -5.4053   27.8239 C   0  0  0  0  0  0  0  0  0  0  0  0
    0.9922   -9.3232   16.5995 O   0  0  0  0  0  0  0  0  0  0  0  0
    1.5232   -7.6869   27.1182 C   0  0  0  0  0  0  0  0  0  0  0  0
    8.6878   -6.6715   27.7262 N   0  0  0  0  0  0  0  0  0  0  0  0
    6.9911   -8.2423   27.1808 C   0  0  0  0  0  0  0  0  0  0  0  0
    3.8436   -7.2758   16.0578 C   0  0  0  0  0  0  0  0  0  0  0  0
    3.1882   -9.7190   17.2566 C   0  0  0  0  0  0  0  0  0  0  0  0
    5.3488   -6.1737   26.5092 C   0  0  0  0  0  0  0  0  0  0  0  0
    7.4567   -6.9464   27.2858 C   0  0  0  0  0  0  0  0  0  0  0  0
    0.1921   -5.7592   27.1123 C   0  0  0  0  0  0  0  0  0  0  0  0
    3.5517   -7.7407   25.9711 C   0  0  0  0  0  0  0  0  0  0  0  0
  1  4  4  0
  1 22  4  0
  2 20  4  0
  2 27  4  0
  3 12  4  0
  3 23  4  0
  4 25  4  0
  4 28  1  0
  5  8  4  0
  5 17  4  0
  6  7  4  0
  6 16  4  0
  7 18  4  0
  8 27  4  0
  9 13  4  0
  9 23  4  0
 10 11  1  0
 11 14  2  0
 11 27  1  0
 12 19  1  0
 12 24  4  0
 13 24  4  0
 15 18  1  0
 16 25  4  0
 16 26  4  0
 17 20  4  0
 17 28  1  0
 18 21  4  0
 21 26  4  0
 22 26  4  0
M  END
$$$$

 Created by Python create_sdf_string function

 28 30  0  0  0  0  0  0  0  0999 V2000
    5.7174   -8.4529   26.7190 C   0  0  0  0  0  0  0  0  0  0  0  0
    0.3974   -7.0711   27.5149 C   0  0  0  0  0  0  0  0  0  0  0  0
    2.5338   -7.6891   16.0102 C   0  0  0  0  0  0  0  0  0  0  0  0
    4.8690   -7.4380   26.4151 C   0  0  0  0  0  0  0  0  0  0  0  0
    2.3021   -5.6726   26.0378 C   0  0  0  0  0  0  0  0  0  0  0  0
    7.0880   -4.6163   27.0010 C   0  0  0  0  0  0  0  0  0  0  0  0
    8.3117   -4.3698   27.4436 C   0  0  0  0  0  0  0  0  0  0  0  0
    1.1339   -5.0515   26.3541 C   0  0  0  0  0  0  0  0  0  0  0  0
    4.8080   -8.0362   16.7101 C   0  0  0  0  0  0  0  0  0  0  0  0
   -1.2173   -3.9294   26.9717 O   0  0  0  0  0  0  0  0  0  0  0  0
   -1.0025   -5.0942   27.4586 C   0  0  0  0  0  0  0  0  0  0  0  0
    2.2474   -8.9123   16.6273 C   0  0  0  0  0  0  0  0  0  0  0  0
    4.4957   -9.2636   17.3041 C   0  0  0  0  0  0  0  0  0  0  0  0
   -1.8070   -5.6086   28.1920 O   0  0  0  0  0  0  0  0  0  0  0  0
   10.4296   -5.1799   28.3140 C   0  0  0  0  0  0  0  0  0  0  0  0
    6.6017   -5.9004   26.9187 C   0  0  0  0  0  0  0  0  0  0  0  0
    2.4761   -6.9940   26.4111 N   0  0  0  0  0  0  0  0  0  0  0  0
    9.1353   -5.4053   27.8239 C   0  0  0  0  0  0  0  0  0  0  0  0
    0.9922   -9.3232   16.5995 O   0  0  0  0  0  0  0  0  0  0  0  0
    1.5232   -7.6869   27.1182 C   0  0  0  0  0  0  0  0  0  0  0  0
    8.6878   -6.6715   27.7262 N   0  0  0  0  0  0  0  0  0  0  0  0
    6.9911   -8.2423   27.1808 C   0  0  0  0  0  0  0  0  0  0  0  0
    3.8436   -7.2758   16.0578 C   0  0  0  0  0  0  0  0  0  0  0  0
    3.1882   -9.7190   17.2566 C   0  0  0  0  0  0  0  0  0  0  0  0
    5.3488   -6.1737   26.5092 C   0  0  0  0  0  0  0  0  0  0  0  0
    7.4567   -6.9464   27.2858 C   0  0  0  0  0  0  0  0  0  0  0  0
    0.1921   -5.7592   27.1123 C   0  0  0  0  0  0  0  0  0  0  0  0
    3.5517   -7.7407   25.9711 C   0  0  0  0  0  0  0  0  0  0  0  0
  1  4  4  0
  1 22  4  0
  2 20  4  0
  2 27  4  0
  3 12  4  0
  3 23  4  0
  4 25  4  0
  4 28  1  0
  5  8  4  0
  5 17  4  0
  6  7  4  0
  6 16  4  0
  7 18  4  0
  8 27  4  0
  9 13  4  0
  9 23  4  0
 10 11  1  0
 11 14  2  0
 11 27  1  0
 12 19  1  0
 12 24  4  0
 13 24  4  0
 15 18  1  0
 16 25  4  0
 16 26  4  0
 17 20  4  0
 17 28  1  0
 18 21  4  0
 21 26  4  0
 22 26  4  0
M  END
$$$$

 Created by Python create_sdf_string function

 28 30  0  0  0  0  0  0  0  0999 V2000
    5.7174   -8.4529   26.7190 C   0  0  0  0  0  0  0  0  0  0  0  0
    0.3974   -7.0711   27.5149 C   0  0  0  0  0  0  0  0  0  0  0  0
    2.5338   -7.6891   16.0102 C   0  0  0  0  0  0  0  0  0  0  0  0
    4.8690   -7.4380   26.4151 C   0  0  0  0  0  0  0  0  0  0  0  0
    2.3021   -5.6726   26.0378 C   0  0  0  0  0  0  0  0  0  0  0  0
    7.0880   -4.6163   27.0010 C   0  0  0  0  0  0  0  0  0  0  0  0
    8.3117   -4.3698   27.4436 C   0  0  0  0  0  0  0  0  0  0  0  0
    1.1339   -5.0515   26.3541 C   0  0  0  0  0  0  0  0  0  0  0  0
    4.8080   -8.0362   16.7101 C   0  0  0  0  0  0  0  0  0  0  0  0
   -1.2173   -3.9294   26.9717 O   0  0  0  0  0  0  0  0  0  0  0  0
   -1.0025   -5.0942   27.4586 C   0  0  0  0  0  0  0  0  0  0  0  0
    2.2474   -8.9123   16.6273 C   0  0  0  0  0  0  0  0  0  0  0  0
    4.4957   -9.2636   17.3041 C   0  0  0  0  0  0  0  0  0  0  0  0
   -1.8070   -5.6086   28.1920 O   0  0  0  0  0  0  0  0  0  0  0  0
   10.4296   -5.1799   28.3140 C   0  0  0  0  0  0  0  0  0  0  0  0
    6.6017   -5.9004   26.9187 C   0  0  0  0  0  0  0  0  0  0  0  0
    2.4761   -6.9940   26.4111 N   0  0  0  0  0  0  0  0  0  0  0  0
    9.1353   -5.4053   27.8239 C   0  0  0  0  0  0  0  0  0  0  0  0
    0.9922   -9.3232   16.5995 O   0  0  0  0  0  0  0  0  0  0  0  0
    1.5232   -7.6869   27.1182 C   0  0  0  0  0  0  0  0  0  0  0  0
    8.6878   -6.6715   27.7262 N   0  0  0  0  0  0  0  0  0  0  0  0
    6.9911   -8.2423   27.1808 C   0  0  0  0  0  0  0  0  0  0  0  0
    3.8436   -7.2758   16.0578 C   0  0  0  0  0  0  0  0  0  0  0  0
    3.1882   -9.7190   17.2566 C   0  0  0  0  0  0  0  0  0  0  0  0
    5.3488   -6.1737   26.5092 C   0  0  0  0  0  0  0  0  0  0  0  0
    7.4567   -6.9464   27.2858 C   0  0  0  0  0  0  0  0  0  0  0  0
    0.1921   -5.7592   27.1123 C   0  0  0  0  0  0  0  0  0  0  0  0
    3.5517   -7.7407   25.9711 C   0  0  0  0  0  0  0  0  0  0  0  0
  1  4  4  0
  1 22  4  0
  2 20  4  0
  2 27  4  0
  3 12  4  0
  3 23  4  0
  4 25  4  0
  4 28  1  0
  5  8  4  0
  5 17  4  0
  6  7  4  0
  6 16  4  0
  7 18  4  0
  8 27  4  0
  9 13  4  0
  9 23  4  0
 10 11  1  0
 11 14  2  0
 11 27  1  0
 12 19  1  0
 12 24  4  0
 13 24  4  0
 15 18  1  0
 16 25  4  0
 16 26  4  0
 17 20  4  0
 17 28  1  0
 18 21  4  0
 21 26  4  0
 22 26  4  0
M  END
$$$$

 Created by Python create_sdf_string function

 28 30  0  0  0  0  0  0  0  0999 V2000
    5.7174   -8.4529   26.7190 C   0  0  0  0  0  0  0  0  0  0  0  0
    0.3974   -7.0711   27.5149 C   0  0  0  0  0  0  0  0  0  0  0  0
    2.5338   -7.6891   16.0102 C   0  0  0  0  0  0  0  0  0  0  0  0
    4.8690   -7.4380   26.4151 C   0  0  0  0  0  0  0  0  0  0  0  0
    2.3021   -5.6726   26.0378 C   0  0  0  0  0  0  0  0  0  0  0  0
    7.0880   -4.6163   27.0010 C   0  0  0  0  0  0  0  0  0  0  0  0
    8.3117   -4.3698   27.4436 C   0  0  0  0  0  0  0  0  0  0  0  0
    1.1339   -5.0515   26.3541 C   0  0  0  0  0  0  0  0  0  0  0  0
    4.8080   -8.0362   16.7101 C   0  0  0  0  0  0  0  0  0  0  0  0
   -1.2173   -3.9294   26.9717 O   0  0  0  0  0  0  0  0  0  0  0  0
   -1.0025   -5.0942   27.4586 C   0  0  0  0  0  0  0  0  0  0  0  0
    2.2474   -8.9123   16.6273 C   0  0  0  0  0  0  0  0  0  0  0  0
    4.4957   -9.2636   17.3041 C   0  0  0  0  0  0  0  0  0  0  0  0
   -1.8070   -5.6086   28.1920 O   0  0  0  0  0  0  0  0  0  0  0  0
   10.4296   -5.1799   28.3140 C   0  0  0  0  0  0  0  0  0  0  0  0
    6.6017   -5.9004   26.9187 C   0  0  0  0  0  0  0  0  0  0  0  0
    2.4761   -6.9940   26.4111 N   0  0  0  0  0  0  0  0  0  0  0  0
    9.1353   -5.4053   27.8239 C   0  0  0  0  0  0  0  0  0  0  0  0
    0.9922   -9.3232   16.5995 O   0  0  0  0  0  0  0  0  0  0  0  0
    1.5232   -7.6869   27.1182 C   0  0  0  0  0  0  0  0  0  0  0  0
    8.6878   -6.6715   27.7262 N   0  0  0  0  0  0  0  0  0  0  0  0
    6.9911   -8.2423   27.1808 C   0  0  0  0  0  0  0  0  0  0  0  0
    3.8436   -7.2758   16.0578 C   0  0  0  0  0  0  0  0  0  0  0  0
    3.1882   -9.7190   17.2566 C   0  0  0  0  0  0  0  0  0  0  0  0
    5.3488   -6.1737   26.5092 C   0  0  0  0  0  0  0  0  0  0  0  0
    7.4567   -6.9464   27.2858 C   0  0  0  0  0  0  0  0  0  0  0  0
    0.1921   -5.7592   27.1123 C   0  0  0  0  0  0  0  0  0  0  0  0
    3.5517   -7.7407   25.9711 C   0  0  0  0  0  0  0  0  0  0  0  0
  1  4  4  0
  1 22  4  0
  2 20  4  0
  2 27  4  0
  3 12  4  0
  3 23  4  0
  4 25  4  0
  4 28  1  0
  5  8  4  0
  5 17  4  0
  6  7  4  0
  6 16  4  0
  7 18  4  0
  8 27  4  0
  9 13  4  0
  9 23  4  0
 10 11  1  0
 11 14  2  0
 11 27  1  0
 12 19  1  0
 12 24  4  0
 13 24  4  0
 15 18  1  0
 16 25  4  0
 16 26  4  0
 17 20  4  0
 17 28  1  0
 18 21  4  0
 21 26  4  0
 22 26  4  0
M  END
$$$$

 Created by Python create_sdf_string function

 28 30  0  0  0  0  0  0  0  0999 V2000
    5.7174   -8.4529   26.7190 C   0  0  0  0  0  0  0  0  0  0  0  0
    0.3974   -7.0711   27.5149 C   0  0  0  0  0  0  0  0  0  0  0  0
    2.5338   -7.6891   16.0102 C   0  0  0  0  0  0  0  0  0  0  0  0
    4.8690   -7.4380   26.4151 C   0  0  0  0  0  0  0  0  0  0  0  0
    2.3021   -5.6726   26.0378 C   0  0  0  0  0  0  0  0  0  0  0  0
    7.0880   -4.6163   27.0010 C   0  0  0  0  0  0  0  0  0  0  0  0
    8.3117   -4.3698   27.4436 C   0  0  0  0  0  0  0  0  0  0  0  0
    1.1339   -5.0515   26.3541 C   0  0  0  0  0  0  0  0  0  0  0  0
    4.8080   -8.0362   16.7101 C   0  0  0  0  0  0  0  0  0  0  0  0
   -1.2173   -3.9294   26.9717 O   0  0  0  0  0  0  0  0  0  0  0  0
   -1.0025   -5.0942   27.4586 C   0  0  0  0  0  0  0  0  0  0  0  0
    2.2474   -8.9123   16.6273 C   0  0  0  0  0  0  0  0  0  0  0  0
    4.4957   -9.2636   17.3041 C   0  0  0  0  0  0  0  0  0  0  0  0
   -1.8070   -5.6086   28.1920 O   0  0  0  0  0  0  0  0  0  0  0  0
   10.4296   -5.1799   28.3140 C   0  0  0  0  0  0  0  0  0  0  0  0
    6.6017   -5.9004   26.9187 C   0  0  0  0  0  0  0  0  0  0  0  0
    2.4761   -6.9940   26.4111 N   0  0  0  0  0  0  0  0  0  0  0  0
    9.1353   -5.4053   27.8239 C   0  0  0  0  0  0  0  0  0  0  0  0
    0.9922   -9.3232   16.5995 O   0  0  0  0  0  0  0  0  0  0  0  0
    1.5232   -7.6869   27.1182 C   0  0  0  0  0  0  0  0  0  0  0  0
    8.6878   -6.6715   27.7262 N   0  0  0  0  0  0  0  0  0  0  0  0
    6.9911   -8.2423   27.1808 C   0  0  0  0  0  0  0  0  0  0  0  0
    3.8436   -7.2758   16.0578 C   0  0  0  0  0  0  0  0  0  0  0  0
    3.1882   -9.7190   17.2566 C   0  0  0  0  0  0  0  0  0  0  0  0
    5.3488   -6.1737   26.5092 C   0  0  0  0  0  0  0  0  0  0  0  0
    7.4567   -6.9464   27.2858 C   0  0  0  0  0  0  0  0  0  0  0  0
    0.1921   -5.7592   27.1123 C   0  0  0  0  0  0  0  0  0  0  0  0
    3.5517   -7.7407   25.9711 C   0  0  0  0  0  0  0  0  0  0  0  0
  1  4  4  0
  1 22  4  0
  2 20  4  0
  2 27  4  0
  3 12  4  0
  3 23  4  0
  4 25  4  0
  4 28  1  0
  5  8  4  0
  5 17  4  0
  6  7  4  0
  6 16  4  0
  7 18  4  0
  8 27  4  0
  9 13  4  0
  9 23  4  0
 10 11  1  0
 11 14  2  0
 11 27  1  0
 12 19  1  0
 12 24  4  0
 13 24  4  0
 15 18  1  0
 16 25  4  0
 16 26  4  0
 17 20  4  0
 17 28  1  0
 18 21  4  0
 21 26  4  0
 22 26  4  0
M  END
$$$$

 Created by Python create_sdf_string function

 28 30  0  0  0  0  0  0  0  0999 V2000
    5.7174   -8.4529   26.7190 C   0  0  0  0  0  0  0  0  0  0  0  0
    0.3974   -7.0711   27.5149 C   0  0  0  0  0  0  0  0  0  0  0  0
    2.5338   -7.6891   16.0102 C   0  0  0  0  0  0  0  0  0  0  0  0
    4.8690   -7.4380   26.4151 C   0  0  0  0  0  0  0  0  0  0  0  0
    2.3021   -5.6726   26.0378 C   0  0  0  0  0  0  0  0  0  0  0  0
    7.0880   -4.6163   27.0010 C   0  0  0  0  0  0  0  0  0  0  0  0
    8.3117   -4.3698   27.4436 C   0  0  0  0  0  0  0  0  0  0  0  0
    1.1339   -5.0515   26.3541 C   0  0  0  0  0  0  0  0  0  0  0  0
    4.8080   -8.0362   16.7101 C   0  0  0  0  0  0  0  0  0  0  0  0
   -1.2173   -3.9294   26.9717 O   0  0  0  0  0  0  0  0  0  0  0  0
   -1.0025   -5.0942   27.4586 C   0  0  0  0  0  0  0  0  0  0  0  0
    2.2474   -8.9123   16.6273 C   0  0  0  0  0  0  0  0  0  0  0  0
    4.4957   -9.2636   17.3041 C   0  0  0  0  0  0  0  0  0  0  0  0
   -1.8070   -5.6086   28.1920 O   0  0  0  0  0  0  0  0  0  0  0  0
   10.4296   -5.1799   28.3140 C   0  0  0  0  0  0  0  0  0  0  0  0
    6.6017   -5.9004   26.9187 C   0  0  0  0  0  0  0  0  0  0  0  0
    2.4761   -6.9940   26.4111 N   0  0  0  0  0  0  0  0  0  0  0  0
    9.1353   -5.4053   27.8239 C   0  0  0  0  0  0  0  0  0  0  0  0
    0.9922   -9.3232   16.5995 O   0  0  0  0  0  0  0  0  0  0  0  0
    1.5232   -7.6869   27.1182 C   0  0  0  0  0  0  0  0  0  0  0  0
    8.6878   -6.6715   27.7262 N   0  0  0  0  0  0  0  0  0  0  0  0
    6.9911   -8.2423   27.1808 C   0  0  0  0  0  0  0  0  0  0  0  0
    3.8436   -7.2758   16.0578 C   0  0  0  0  0  0  0  0  0  0  0  0
    3.1882   -9.7190   17.2566 C   0  0  0  0  0  0  0  0  0  0  0  0
    5.3488   -6.1737   26.5092 C   0  0  0  0  0  0  0  0  0  0  0  0
    7.4567   -6.9464   27.2858 C   0  0  0  0  0  0  0  0  0  0  0  0
    0.1921   -5.7592   27.1123 C   0  0  0  0  0  0  0  0  0  0  0  0
    3.5517   -7.7407   25.9711 C   0  0  0  0  0  0  0  0  0  0  0  0
  1  4  4  0
  1 22  4  0
  2 20  4  0
  2 27  4  0
  3 12  4  0
  3 23  4  0
  4 25  4  0
  4 28  1  0
  5  8  4  0
  5 17  4  0
  6  7  4  0
  6 16  4  0
  7 18  4  0
  8 27  4  0
  9 13  4  0
  9 23  4  0
 10 11  1  0
 11 14  2  0
 11 27  1  0
 12 19  1  0
 12 24  4  0
 13 24  4  0
 15 18  1  0
 16 25  4  0
 16 26  4  0
 17 20  4  0
 17 28  1  0
 18 21  4  0
 21 26  4  0
 22 26  4  0
M  END
$$$$

 Created by Python create_sdf_string function

 28 30  0  0  0  0  0  0  0  0999 V2000
    5.7174   -8.4529   26.7190 C   0  0  0  0  0  0  0  0  0  0  0  0
    0.3974   -7.0711   27.5149 C   0  0  0  0  0  0  0  0  0  0  0  0
    2.5338   -7.6891   16.0102 C   0  0  0  0  0  0  0  0  0  0  0  0
    4.8690   -7.4380   26.4151 C   0  0  0  0  0  0  0  0  0  0  0  0
    2.3021   -5.6726   26.0378 C   0  0  0  0  0  0  0  0  0  0  0  0
    7.0880   -4.6163   27.0010 C   0  0  0  0  0  0  0  0  0  0  0  0
    8.3117   -4.3698   27.4436 C   0  0  0  0  0  0  0  0  0  0  0  0
    1.1339   -5.0515   26.3541 C   0  0  0  0  0  0  0  0  0  0  0  0
    4.8080   -8.0362   16.7101 C   0  0  0  0  0  0  0  0  0  0  0  0
   -1.2173   -3.9294   26.9717 O   0  0  0  0  0  0  0  0  0  0  0  0
   -1.0025   -5.0942   27.4586 C   0  0  0  0  0  0  0  0  0  0  0  0
    2.2474   -8.9123   16.6273 C   0  0  0  0  0  0  0  0  0  0  0  0
    4.4957   -9.2636   17.3041 C   0  0  0  0  0  0  0  0  0  0  0  0
   -1.8070   -5.6086   28.1920 O   0  0  0  0  0  0  0  0  0  0  0  0
   10.4296   -5.1799   28.3140 C   0  0  0  0  0  0  0  0  0  0  0  0
    6.6017   -5.9004   26.9187 C   0  0  0  0  0  0  0  0  0  0  0  0
    2.4761   -6.9940   26.4111 N   0  0  0  0  0  0  0  0  0  0  0  0
    9.1353   -5.4053   27.8239 C   0  0  0  0  0  0  0  0  0  0  0  0
    0.9922   -9.3232   16.5995 O   0  0  0  0  0  0  0  0  0  0  0  0
    1.5232   -7.6869   27.1182 C   0  0  0  0  0  0  0  0  0  0  0  0
    8.6878   -6.6715   27.7262 N   0  0  0  0  0  0  0  0  0  0  0  0
    6.9911   -8.2423   27.1808 C   0  0  0  0  0  0  0  0  0  0  0  0
    3.8436   -7.2758   16.0578 C   0  0  0  0  0  0  0  0  0  0  0  0
    3.1882   -9.7190   17.2566 C   0  0  0  0  0  0  0  0  0  0  0  0
    5.3488   -6.1737   26.5092 C   0  0  0  0  0  0  0  0  0  0  0  0
    7.4567   -6.9464   27.2858 C   0  0  0  0  0  0  0  0  0  0  0  0
    0.1921   -5.7592   27.1123 C   0  0  0  0  0  0  0  0  0  0  0  0
    3.5517   -7.7407   25.9711 C   0  0  0  0  0  0  0  0  0  0  0  0
  1  4  4  0
  1 22  4  0
  2 20  4  0
  2 27  4  0
  3 12  4  0
  3 23  4  0
  4 25  4  0
  4 28  1  0
  5  8  4  0
  5 17  4  0
  6  7  4  0
  6 16  4  0
  7 18  4  0
  8 27  4  0
  9 13  4  0
  9 23  4  0
 10 11  1  0
 11 14  2  0
 11 27  1  0
 12 19  1  0
 12 24  4  0
 13 24  4  0
 15 18  1  0
 16 25  4  0
 16 26  4  0
 17 20  4  0
 17 28  1  0
 18 21  4  0
 21 26  4  0
 22 26  4  0
M  END
$$$$

 Created by Python create_sdf_string function

 28 30  0  0  0  0  0  0  0  0999 V2000
    5.7174   -8.4529   26.7190 C   0  0  0  0  0  0  0  0  0  0  0  0
    0.3974   -7.0711   27.5149 C   0  0  0  0  0  0  0  0  0  0  0  0
    2.5338   -7.6891   16.0102 C   0  0  0  0  0  0  0  0  0  0  0  0
    4.8690   -7.4380   26.4151 C   0  0  0  0  0  0  0  0  0  0  0  0
    2.3021   -5.6726   26.0378 C   0  0  0  0  0  0  0  0  0  0  0  0
    7.0880   -4.6163   27.0010 C   0  0  0  0  0  0  0  0  0  0  0  0
    8.3117   -4.3698   27.4436 C   0  0  0  0  0  0  0  0  0  0  0  0
    1.1339   -5.0515   26.3541 C   0  0  0  0  0  0  0  0  0  0  0  0
    4.8080   -8.0362   16.7101 C   0  0  0  0  0  0  0  0  0  0  0  0
   -1.2173   -3.9294   26.9717 O   0  0  0  0  0  0  0  0  0  0  0  0
   -1.0025   -5.0942   27.4586 C   0  0  0  0  0  0  0  0  0  0  0  0
    2.2474   -8.9123   16.6273 C   0  0  0  0  0  0  0  0  0  0  0  0
    4.4957   -9.2636   17.3041 C   0  0  0  0  0  0  0  0  0  0  0  0
   -1.8070   -5.6086   28.1920 O   0  0  0  0  0  0  0  0  0  0  0  0
   10.4296   -5.1799   28.3140 C   0  0  0  0  0  0  0  0  0  0  0  0
    6.6017   -5.9004   26.9187 C   0  0  0  0  0  0  0  0  0  0  0  0
    2.4761   -6.9940   26.4111 N   0  0  0  0  0  0  0  0  0  0  0  0
    9.1353   -5.4053   27.8239 C   0  0  0  0  0  0  0  0  0  0  0  0
    0.9922   -9.3232   16.5995 O   0  0  0  0  0  0  0  0  0  0  0  0
    1.5232   -7.6869   27.1182 C   0  0  0  0  0  0  0  0  0  0  0  0
    8.6878   -6.6715   27.7262 N   0  0  0  0  0  0  0  0  0  0  0  0
    6.9911   -8.2423   27.1808 C   0  0  0  0  0  0  0  0  0  0  0  0
    3.8436   -7.2758   16.0578 C   0  0  0  0  0  0  0  0  0  0  0  0
    3.1882   -9.7190   17.2566 C   0  0  0  0  0  0  0  0  0  0  0  0
    5.3488   -6.1737   26.5092 C   0  0  0  0  0  0  0  0  0  0  0  0
    7.4567   -6.9464   27.2858 C   0  0  0  0  0  0  0  0  0  0  0  0
    0.1921   -5.7592   27.1123 C   0  0  0  0  0  0  0  0  0  0  0  0
    3.5517   -7.7407   25.9711 C   0  0  0  0  0  0  0  0  0  0  0  0
  1  4  4  0
  1 22  4  0
  2 20  4  0
  2 27  4  0
  3 12  4  0
  3 23  4  0
  4 25  4  0
  4 28  1  0
  5  8  4  0
  5 17  4  0
  6  7  4  0
  6 16  4  0
  7 18  4  0
  8 27  4  0
  9 13  4  0
  9 23  4  0
 10 11  1  0
 11 14  2  0
 11 27  1  0
 12 19  1  0
 12 24  4  0
 13 24  4  0
 15 18  1  0
 16 25  4  0
 16 26  4  0
 17 20  4  0
 17 28  1  0
 18 21  4  0
 21 26  4  0
 22 26  4  0
M  END
$$$$

 Created by Python create_sdf_string function

 28 30  0  0  0  0  0  0  0  0999 V2000
    5.7174   -8.4529   26.7190 C   0  0  0  0  0  0  0  0  0  0  0  0
    0.3974   -7.0711   27.5149 C   0  0  0  0  0  0  0  0  0  0  0  0
    2.5338   -7.6891   16.0102 C   0  0  0  0  0  0  0  0  0  0  0  0
    4.8690   -7.4380   26.4151 C   0  0  0  0  0  0  0  0  0  0  0  0
    2.3021   -5.6726   26.0378 C   0  0  0  0  0  0  0  0  0  0  0  0
    7.0880   -4.6163   27.0010 C   0  0  0  0  0  0  0  0  0  0  0  0
    8.3117   -4.3698   27.4436 C   0  0  0  0  0  0  0  0  0  0  0  0
    1.1339   -5.0515   26.3541 C   0  0  0  0  0  0  0  0  0  0  0  0
    4.8080   -8.0362   16.7101 C   0  0  0  0  0  0  0  0  0  0  0  0
   -1.2173   -3.9294   26.9717 O   0  0  0  0  0  0  0  0  0  0  0  0
   -1.0025   -5.0942   27.4586 C   0  0  0  0  0  0  0  0  0  0  0  0
    2.2474   -8.9123   16.6273 C   0  0  0  0  0  0  0  0  0  0  0  0
    4.4957   -9.2636   17.3041 C   0  0  0  0  0  0  0  0  0  0  0  0
   -1.8070   -5.6086   28.1920 O   0  0  0  0  0  0  0  0  0  0  0  0
   10.4296   -5.1799   28.3140 C   0  0  0  0  0  0  0  0  0  0  0  0
    6.6017   -5.9004   26.9187 C   0  0  0  0  0  0  0  0  0  0  0  0
    2.4761   -6.9940   26.4111 N   0  0  0  0  0  0  0  0  0  0  0  0
    9.1353   -5.4053   27.8239 C   0  0  0  0  0  0  0  0  0  0  0  0
    0.9922   -9.3232   16.5995 O   0  0  0  0  0  0  0  0  0  0  0  0
    1.5232   -7.6869   27.1182 C   0  0  0  0  0  0  0  0  0  0  0  0
    8.6878   -6.6715   27.7262 N   0  0  0  0  0  0  0  0  0  0  0  0
    6.9911   -8.2423   27.1808 C   0  0  0  0  0  0  0  0  0  0  0  0
    3.8436   -7.2758   16.0578 C   0  0  0  0  0  0  0  0  0  0  0  0
    3.1882   -9.7190   17.2566 C   0  0  0  0  0  0  0  0  0  0  0  0
    5.3488   -6.1737   26.5092 C   0  0  0  0  0  0  0  0  0  0  0  0
    7.4567   -6.9464   27.2858 C   0  0  0  0  0  0  0  0  0  0  0  0
    0.1921   -5.7592   27.1123 C   0  0  0  0  0  0  0  0  0  0  0  0
    3.5517   -7.7407   25.9711 C   0  0  0  0  0  0  0  0  0  0  0  0
  1  4  4  0
  1 22  4  0
  2 20  4  0
  2 27  4  0
  3 12  4  0
  3 23  4  0
  4 25  4  0
  4 28  1  0
  5  8  4  0
  5 17  4  0
  6  7  4  0
  6 16  4  0
  7 18  4  0
  8 27  4  0
  9 13  4  0
  9 23  4  0
 10 11  1  0
 11 14  2  0
 11 27  1  0
 12 19  1  0
 12 24  4  0
 13 24  4  0
 15 18  1  0
 16 25  4  0
 16 26  4  0
 17 20  4  0
 17 28  1  0
 18 21  4  0
 21 26  4  0
 22 26  4  0
M  END
$$$$

 Created by Python create_sdf_string function

 28 30  0  0  0  0  0  0  0  0999 V2000
    5.7174   -8.4529   26.7190 C   0  0  0  0  0  0  0  0  0  0  0  0
    0.3974   -7.0711   27.5149 C   0  0  0  0  0  0  0  0  0  0  0  0
    2.5338   -7.6891   16.0102 C   0  0  0  0  0  0  0  0  0  0  0  0
    4.8690   -7.4380   26.4151 C   0  0  0  0  0  0  0  0  0  0  0  0
    2.3021   -5.6726   26.0378 C   0  0  0  0  0  0  0  0  0  0  0  0
    7.0880   -4.6163   27.0010 C   0  0  0  0  0  0  0  0  0  0  0  0
    8.3117   -4.3698   27.4436 C   0  0  0  0  0  0  0  0  0  0  0  0
    1.1339   -5.0515   26.3541 C   0  0  0  0  0  0  0  0  0  0  0  0
    4.8080   -8.0362   16.7101 C   0  0  0  0  0  0  0  0  0  0  0  0
   -1.2173   -3.9294   26.9717 O   0  0  0  0  0  0  0  0  0  0  0  0
   -1.0025   -5.0942   27.4586 C   0  0  0  0  0  0  0  0  0  0  0  0
    2.2474   -8.9123   16.6273 C   0  0  0  0  0  0  0  0  0  0  0  0
    4.4957   -9.2636   17.3041 C   0  0  0  0  0  0  0  0  0  0  0  0
   -1.8070   -5.6086   28.1920 O   0  0  0  0  0  0  0  0  0  0  0  0
   10.4296   -5.1799   28.3140 C   0  0  0  0  0  0  0  0  0  0  0  0
    6.6017   -5.9004   26.9187 C   0  0  0  0  0  0  0  0  0  0  0  0
    2.4761   -6.9940   26.4111 N   0  0  0  0  0  0  0  0  0  0  0  0
    9.1353   -5.4053   27.8239 C   0  0  0  0  0  0  0  0  0  0  0  0
    0.9922   -9.3232   16.5995 O   0  0  0  0  0  0  0  0  0  0  0  0
    1.5232   -7.6869   27.1182 C   0  0  0  0  0  0  0  0  0  0  0  0
    8.6878   -6.6715   27.7262 N   0  0  0  0  0  0  0  0  0  0  0  0
    6.9911   -8.2423   27.1808 C   0  0  0  0  0  0  0  0  0  0  0  0
    3.8436   -7.2758   16.0578 C   0  0  0  0  0  0  0  0  0  0  0  0
    3.1882   -9.7190   17.2566 C   0  0  0  0  0  0  0  0  0  0  0  0
    5.3488   -6.1737   26.5092 C   0  0  0  0  0  0  0  0  0  0  0  0
    7.4567   -6.9464   27.2858 C   0  0  0  0  0  0  0  0  0  0  0  0
    0.1921   -5.7592   27.1123 C   0  0  0  0  0  0  0  0  0  0  0  0
    3.5517   -7.7407   25.9711 C   0  0  0  0  0  0  0  0  0  0  0  0
  1  4  4  0
  1 22  4  0
  2 20  4  0
  2 27  4  0
  3 12  4  0
  3 23  4  0
  4 25  4  0
  4 28  1  0
  5  8  4  0
  5 17  4  0
  6  7  4  0
  6 16  4  0
  7 18  4  0
  8 27  4  0
  9 13  4  0
  9 23  4  0
 10 11  1  0
 11 14  2  0
 11 27  1  0
 12 19  1  0
 12 24  4  0
 13 24  4  0
 15 18  1  0
 16 25  4  0
 16 26  4  0
 17 20  4  0
 17 28  1  0
 18 21  4  0
 21 26  4  0
 22 26  4  0
M  END
$$$$

 Created by Python create_sdf_string function

 28 30  0  0  0  0  0  0  0  0999 V2000
    5.7174   -8.4529   26.7190 C   0  0  0  0  0  0  0  0  0  0  0  0
    0.3974   -7.0711   27.5149 C   0  0  0  0  0  0  0  0  0  0  0  0
    2.5338   -7.6891   16.0102 C   0  0  0  0  0  0  0  0  0  0  0  0
    4.8690   -7.4380   26.4151 C   0  0  0  0  0  0  0  0  0  0  0  0
    2.3021   -5.6726   26.0378 C   0  0  0  0  0  0  0  0  0  0  0  0
    7.0880   -4.6163   27.0010 C   0  0  0  0  0  0  0  0  0  0  0  0
    8.3117   -4.3698   27.4436 C   0  0  0  0  0  0  0  0  0  0  0  0
    1.1339   -5.0515   26.3541 C   0  0  0  0  0  0  0  0  0  0  0  0
    4.8080   -8.0362   16.7101 C   0  0  0  0  0  0  0  0  0  0  0  0
   -1.2173   -3.9294   26.9717 O   0  0  0  0  0  0  0  0  0  0  0  0
   -1.0025   -5.0942   27.4586 C   0  0  0  0  0  0  0  0  0  0  0  0
    2.2474   -8.9123   16.6273 C   0  0  0  0  0  0  0  0  0  0  0  0
    4.4957   -9.2636   17.3041 C   0  0  0  0  0  0  0  0  0  0  0  0
   -1.8070   -5.6086   28.1920 O   0  0  0  0  0  0  0  0  0  0  0  0
   10.4296   -5.1799   28.3140 C   0  0  0  0  0  0  0  0  0  0  0  0
    6.6017   -5.9004   26.9187 C   0  0  0  0  0  0  0  0  0  0  0  0
    2.4761   -6.9940   26.4111 N   0  0  0  0  0  0  0  0  0  0  0  0
    9.1353   -5.4053   27.8239 C   0  0  0  0  0  0  0  0  0  0  0  0
    0.9922   -9.3232   16.5995 O   0  0  0  0  0  0  0  0  0  0  0  0
    1.5232   -7.6869   27.1182 C   0  0  0  0  0  0  0  0  0  0  0  0
    8.6878   -6.6715   27.7262 N   0  0  0  0  0  0  0  0  0  0  0  0
    6.9911   -8.2423   27.1808 C   0  0  0  0  0  0  0  0  0  0  0  0
    3.8436   -7.2758   16.0578 C   0  0  0  0  0  0  0  0  0  0  0  0
    3.1882   -9.7190   17.2566 C   0  0  0  0  0  0  0  0  0  0  0  0
    5.3488   -6.1737   26.5092 C   0  0  0  0  0  0  0  0  0  0  0  0
    7.4567   -6.9464   27.2858 C   0  0  0  0  0  0  0  0  0  0  0  0
    0.1921   -5.7592   27.1123 C   0  0  0  0  0  0  0  0  0  0  0  0
    3.5517   -7.7407   25.9711 C   0  0  0  0  0  0  0  0  0  0  0  0
  1  4  4  0
  1 22  4  0
  2 20  4  0
  2 27  4  0
  3 12  4  0
  3 23  4  0
  4 25  4  0
  4 28  1  0
  5  8  4  0
  5 17  4  0
  6  7  4  0
  6 16  4  0
  7 18  4  0
  8 27  4  0
  9 13  4  0
  9 23  4  0
 10 11  1  0
 11 14  2  0
 11 27  1  0
 12 19  1  0
 12 24  4  0
 13 24  4  0
 15 18  1  0
 16 25  4  0
 16 26  4  0
 17 20  4  0
 17 28  1  0
 18 21  4  0
 21 26  4  0
 22 26  4  0
M  END
$$$$

 Created by Python create_sdf_string function

 28 30  0  0  0  0  0  0  0  0999 V2000
    5.7174   -8.4529   26.7190 C   0  0  0  0  0  0  0  0  0  0  0  0
    0.3974   -7.0711   27.5149 C   0  0  0  0  0  0  0  0  0  0  0  0
    2.5338   -7.6891   16.0102 C   0  0  0  0  0  0  0  0  0  0  0  0
    4.8690   -7.4380   26.4151 C   0  0  0  0  0  0  0  0  0  0  0  0
    2.3021   -5.6726   26.0378 C   0  0  0  0  0  0  0  0  0  0  0  0
    7.0880   -4.6163   27.0010 C   0  0  0  0  0  0  0  0  0  0  0  0
    8.3117   -4.3698   27.4436 C   0  0  0  0  0  0  0  0  0  0  0  0
    1.1339   -5.0515   26.3541 C   0  0  0  0  0  0  0  0  0  0  0  0
    4.8080   -8.0362   16.7101 C   0  0  0  0  0  0  0  0  0  0  0  0
   -1.2173   -3.9294   26.9717 O   0  0  0  0  0  0  0  0  0  0  0  0
   -1.0025   -5.0942   27.4586 C   0  0  0  0  0  0  0  0  0  0  0  0
    2.2474   -8.9123   16.6273 C   0  0  0  0  0  0  0  0  0  0  0  0
    4.4957   -9.2636   17.3041 C   0  0  0  0  0  0  0  0  0  0  0  0
   -1.8070   -5.6086   28.1920 O   0  0  0  0  0  0  0  0  0  0  0  0
   10.4296   -5.1799   28.3140 C   0  0  0  0  0  0  0  0  0  0  0  0
    6.6017   -5.9004   26.9187 C   0  0  0  0  0  0  0  0  0  0  0  0
    2.4761   -6.9940   26.4111 N   0  0  0  0  0  0  0  0  0  0  0  0
    9.1353   -5.4053   27.8239 C   0  0  0  0  0  0  0  0  0  0  0  0
    0.9922   -9.3232   16.5995 O   0  0  0  0  0  0  0  0  0  0  0  0
    1.5232   -7.6869   27.1182 C   0  0  0  0  0  0  0  0  0  0  0  0
    8.6878   -6.6715   27.7262 N   0  0  0  0  0  0  0  0  0  0  0  0
    6.9911   -8.2423   27.1808 C   0  0  0  0  0  0  0  0  0  0  0  0
    3.8436   -7.2758   16.0578 C   0  0  0  0  0  0  0  0  0  0  0  0
    3.1882   -9.7190   17.2566 C   0  0  0  0  0  0  0  0  0  0  0  0
    5.3488   -6.1737   26.5092 C   0  0  0  0  0  0  0  0  0  0  0  0
    7.4567   -6.9464   27.2858 C   0  0  0  0  0  0  0  0  0  0  0  0
    0.1921   -5.7592   27.1123 C   0  0  0  0  0  0  0  0  0  0  0  0
    3.5517   -7.7407   25.9711 C   0  0  0  0  0  0  0  0  0  0  0  0
  1  4  4  0
  1 22  4  0
  2 20  4  0
  2 27  4  0
  3 12  4  0
  3 23  4  0
  4 25  4  0
  4 28  1  0
  5  8  4  0
  5 17  4  0
  6  7  4  0
  6 16  4  0
  7 18  4  0
  8 27  4  0
  9 13  4  0
  9 23  4  0
 10 11  1  0
 11 14  2  0
 11 27  1  0
 12 19  1  0
 12 24  4  0
 13 24  4  0
 15 18  1  0
 16 25  4  0
 16 26  4  0
 17 20  4  0
 17 28  1  0
 18 21  4  0
 21 26  4  0
 22 26  4  0
M  END
$$$$

 Created by Python create_sdf_string function

 28 30  0  0  0  0  0  0  0  0999 V2000
    5.7174   -8.4529   26.7190 C   0  0  0  0  0  0  0  0  0  0  0  0
    0.3974   -7.0711   27.5149 C   0  0  0  0  0  0  0  0  0  0  0  0
    2.5338   -7.6891   16.0102 C   0  0  0  0  0  0  0  0  0  0  0  0
    4.8690   -7.4380   26.4151 C   0  0  0  0  0  0  0  0  0  0  0  0
    2.3021   -5.6726   26.0378 C   0  0  0  0  0  0  0  0  0  0  0  0
    7.0880   -4.6163   27.0010 C   0  0  0  0  0  0  0  0  0  0  0  0
    8.3117   -4.3698   27.4436 C   0  0  0  0  0  0  0  0  0  0  0  0
    1.1339   -5.0515   26.3541 C   0  0  0  0  0  0  0  0  0  0  0  0
    4.8080   -8.0362   16.7101 C   0  0  0  0  0  0  0  0  0  0  0  0
   -1.2173   -3.9294   26.9717 O   0  0  0  0  0  0  0  0  0  0  0  0
   -1.0025   -5.0942   27.4586 C   0  0  0  0  0  0  0  0  0  0  0  0
    2.2474   -8.9123   16.6273 C   0  0  0  0  0  0  0  0  0  0  0  0
    4.4957   -9.2636   17.3041 C   0  0  0  0  0  0  0  0  0  0  0  0
   -1.8070   -5.6086   28.1920 O   0  0  0  0  0  0  0  0  0  0  0  0
   10.4296   -5.1799   28.3140 C   0  0  0  0  0  0  0  0  0  0  0  0
    6.6017   -5.9004   26.9187 C   0  0  0  0  0  0  0  0  0  0  0  0
    2.4761   -6.9940   26.4111 N   0  0  0  0  0  0  0  0  0  0  0  0
    9.1353   -5.4053   27.8239 C   0  0  0  0  0  0  0  0  0  0  0  0
    0.9922   -9.3232   16.5995 O   0  0  0  0  0  0  0  0  0  0  0  0
    1.5232   -7.6869   27.1182 C   0  0  0  0  0  0  0  0  0  0  0  0
    8.6878   -6.6715   27.7262 N   0  0  0  0  0  0  0  0  0  0  0  0
    6.9911   -8.2423   27.1808 C   0  0  0  0  0  0  0  0  0  0  0  0
    3.8436   -7.2758   16.0578 C   0  0  0  0  0  0  0  0  0  0  0  0
    3.1882   -9.7190   17.2566 C   0  0  0  0  0  0  0  0  0  0  0  0
    5.3488   -6.1737   26.5092 C   0  0  0  0  0  0  0  0  0  0  0  0
    7.4567   -6.9464   27.2858 C   0  0  0  0  0  0  0  0  0  0  0  0
    0.1921   -5.7592   27.1123 C   0  0  0  0  0  0  0  0  0  0  0  0
    3.5517   -7.7407   25.9711 C   0  0  0  0  0  0  0  0  0  0  0  0
  1  4  4  0
  1 22  4  0
  2 20  4  0
  2 27  4  0
  3 12  4  0
  3 23  4  0
  4 25  4  0
  4 28  1  0
  5  8  4  0
  5 17  4  0
  6  7  4  0
  6 16  4  0
  7 18  4  0
  8 27  4  0
  9 13  4  0
  9 23  4  0
 10 11  1  0
 11 14  2  0
 11 27  1  0
 12 19  1  0
 12 24  4  0
 13 24  4  0
 15 18  1  0
 16 25  4  0
 16 26  4  0
 17 20  4  0
 17 28  1  0
 18 21  4  0
 21 26  4  0
 22 26  4  0
M  END
$$$$

 Created by Python create_sdf_string function

 28 30  0  0  0  0  0  0  0  0999 V2000
    5.7174   -8.4529   26.7190 C   0  0  0  0  0  0  0  0  0  0  0  0
    0.3974   -7.0711   27.5149 C   0  0  0  0  0  0  0  0  0  0  0  0
    2.5338   -7.6891   16.0102 C   0  0  0  0  0  0  0  0  0  0  0  0
    4.8690   -7.4380   26.4151 C   0  0  0  0  0  0  0  0  0  0  0  0
    2.3021   -5.6726   26.0378 C   0  0  0  0  0  0  0  0  0  0  0  0
    7.0880   -4.6163   27.0010 C   0  0  0  0  0  0  0  0  0  0  0  0
    8.3117   -4.3698   27.4436 C   0  0  0  0  0  0  0  0  0  0  0  0
    1.1339   -5.0515   26.3541 C   0  0  0  0  0  0  0  0  0  0  0  0
    4.8080   -8.0362   16.7101 C   0  0  0  0  0  0  0  0  0  0  0  0
   -1.2173   -3.9294   26.9717 O   0  0  0  0  0  0  0  0  0  0  0  0
   -1.0025   -5.0942   27.4586 C   0  0  0  0  0  0  0  0  0  0  0  0
    2.2474   -8.9123   16.6273 C   0  0  0  0  0  0  0  0  0  0  0  0
    4.4957   -9.2636   17.3041 C   0  0  0  0  0  0  0  0  0  0  0  0
   -1.8070   -5.6086   28.1920 O   0  0  0  0  0  0  0  0  0  0  0  0
   10.4296   -5.1799   28.3140 C   0  0  0  0  0  0  0  0  0  0  0  0
    6.6017   -5.9004   26.9187 C   0  0  0  0  0  0  0  0  0  0  0  0
    2.4761   -6.9940   26.4111 N   0  0  0  0  0  0  0  0  0  0  0  0
    9.1353   -5.4053   27.8239 C   0  0  0  0  0  0  0  0  0  0  0  0
    0.9922   -9.3232   16.5995 O   0  0  0  0  0  0  0  0  0  0  0  0
    1.5232   -7.6869   27.1182 C   0  0  0  0  0  0  0  0  0  0  0  0
    8.6878   -6.6715   27.7262 N   0  0  0  0  0  0  0  0  0  0  0  0
    6.9911   -8.2423   27.1808 C   0  0  0  0  0  0  0  0  0  0  0  0
    3.8436   -7.2758   16.0578 C   0  0  0  0  0  0  0  0  0  0  0  0
    3.1882   -9.7190   17.2566 C   0  0  0  0  0  0  0  0  0  0  0  0
    5.3488   -6.1737   26.5092 C   0  0  0  0  0  0  0  0  0  0  0  0
    7.4567   -6.9464   27.2858 C   0  0  0  0  0  0  0  0  0  0  0  0
    0.1921   -5.7592   27.1123 C   0  0  0  0  0  0  0  0  0  0  0  0
    3.5517   -7.7407   25.9711 C   0  0  0  0  0  0  0  0  0  0  0  0
  1  4  4  0
  1 22  4  0
  2 20  4  0
  2 27  4  0
  3 12  4  0
  3 23  4  0
  4 25  4  0
  4 28  1  0
  5  8  4  0
  5 17  4  0
  6  7  4  0
  6 16  4  0
  7 18  4  0
  8 27  4  0
  9 13  4  0
  9 23  4  0
 10 11  1  0
 11 14  2  0
 11 27  1  0
 12 19  1  0
 12 24  4  0
 13 24  4  0
 15 18  1  0
 16 25  4  0
 16 26  4  0
 17 20  4  0
 17 28  1  0
 18 21  4  0
 21 26  4  0
 22 26  4  0
M  END
$$$$

 Created by Python create_sdf_string function

 28 30  0  0  0  0  0  0  0  0999 V2000
    5.7174   -8.4529   26.7190 C   0  0  0  0  0  0  0  0  0  0  0  0
    0.3974   -7.0711   27.5149 C   0  0  0  0  0  0  0  0  0  0  0  0
    2.5338   -7.6891   16.0102 C   0  0  0  0  0  0  0  0  0  0  0  0
    4.8690   -7.4380   26.4151 C   0  0  0  0  0  0  0  0  0  0  0  0
    2.3021   -5.6726   26.0378 C   0  0  0  0  0  0  0  0  0  0  0  0
    7.0880   -4.6163   27.0010 C   0  0  0  0  0  0  0  0  0  0  0  0
    8.3117   -4.3698   27.4436 C   0  0  0  0  0  0  0  0  0  0  0  0
    1.1339   -5.0515   26.3541 C   0  0  0  0  0  0  0  0  0  0  0  0
    4.8080   -8.0362   16.7101 C   0  0  0  0  0  0  0  0  0  0  0  0
   -1.2173   -3.9294   26.9717 O   0  0  0  0  0  0  0  0  0  0  0  0
   -1.0025   -5.0942   27.4586 C   0  0  0  0  0  0  0  0  0  0  0  0
    2.2474   -8.9123   16.6273 C   0  0  0  0  0  0  0  0  0  0  0  0
    4.4957   -9.2636   17.3041 C   0  0  0  0  0  0  0  0  0  0  0  0
   -1.8070   -5.6086   28.1920 O   0  0  0  0  0  0  0  0  0  0  0  0
   10.4296   -5.1799   28.3140 C   0  0  0  0  0  0  0  0  0  0  0  0
    6.6017   -5.9004   26.9187 C   0  0  0  0  0  0  0  0  0  0  0  0
    2.4761   -6.9940   26.4111 N   0  0  0  0  0  0  0  0  0  0  0  0
    9.1353   -5.4053   27.8239 C   0  0  0  0  0  0  0  0  0  0  0  0
    0.9922   -9.3232   16.5995 O   0  0  0  0  0  0  0  0  0  0  0  0
    1.5232   -7.6869   27.1182 C   0  0  0  0  0  0  0  0  0  0  0  0
    8.6878   -6.6715   27.7262 N   0  0  0  0  0  0  0  0  0  0  0  0
    6.9911   -8.2423   27.1808 C   0  0  0  0  0  0  0  0  0  0  0  0
    3.8436   -7.2758   16.0578 C   0  0  0  0  0  0  0  0  0  0  0  0
    3.1882   -9.7190   17.2566 C   0  0  0  0  0  0  0  0  0  0  0  0
    5.3488   -6.1737   26.5092 C   0  0  0  0  0  0  0  0  0  0  0  0
    7.4567   -6.9464   27.2858 C   0  0  0  0  0  0  0  0  0  0  0  0
    0.1921   -5.7592   27.1123 C   0  0  0  0  0  0  0  0  0  0  0  0
    3.5517   -7.7407   25.9711 C   0  0  0  0  0  0  0  0  0  0  0  0
  1  4  4  0
  1 22  4  0
  2 20  4  0
  2 27  4  0
  3 12  4  0
  3 23  4  0
  4 25  4  0
  4 28  1  0
  5  8  4  0
  5 17  4  0
  6  7  4  0
  6 16  4  0
  7 18  4  0
  8 27  4  0
  9 13  4  0
  9 23  4  0
 10 11  1  0
 11 14  2  0
 11 27  1  0
 12 19  1  0
 12 24  4  0
 13 24  4  0
 15 18  1  0
 16 25  4  0
 16 26  4  0
 17 20  4  0
 17 28  1  0
 18 21  4  0
 21 26  4  0
 22 26  4  0
M  END
$$$$

 Created by Python create_sdf_string function

 28 30  0  0  0  0  0  0  0  0999 V2000
    5.7174   -8.4529   26.7190 C   0  0  0  0  0  0  0  0  0  0  0  0
    0.3974   -7.0711   27.5149 C   0  0  0  0  0  0  0  0  0  0  0  0
    2.5338   -7.6891   16.0102 C   0  0  0  0  0  0  0  0  0  0  0  0
    4.8690   -7.4380   26.4151 C   0  0  0  0  0  0  0  0  0  0  0  0
    2.3021   -5.6726   26.0378 C   0  0  0  0  0  0  0  0  0  0  0  0
    7.0880   -4.6163   27.0010 C   0  0  0  0  0  0  0  0  0  0  0  0
    8.3117   -4.3698   27.4436 C   0  0  0  0  0  0  0  0  0  0  0  0
    1.1339   -5.0515   26.3541 C   0  0  0  0  0  0  0  0  0  0  0  0
    4.8080   -8.0362   16.7101 C   0  0  0  0  0  0  0  0  0  0  0  0
   -1.2173   -3.9294   26.9717 O   0  0  0  0  0  0  0  0  0  0  0  0
   -1.0025   -5.0942   27.4586 C   0  0  0  0  0  0  0  0  0  0  0  0
    2.2474   -8.9123   16.6273 C   0  0  0  0  0  0  0  0  0  0  0  0
    4.4957   -9.2636   17.3041 C   0  0  0  0  0  0  0  0  0  0  0  0
   -1.8070   -5.6086   28.1920 O   0  0  0  0  0  0  0  0  0  0  0  0
   10.4296   -5.1799   28.3140 C   0  0  0  0  0  0  0  0  0  0  0  0
    6.6017   -5.9004   26.9187 C   0  0  0  0  0  0  0  0  0  0  0  0
    2.4761   -6.9940   26.4111 N   0  0  0  0  0  0  0  0  0  0  0  0
    9.1353   -5.4053   27.8239 C   0  0  0  0  0  0  0  0  0  0  0  0
    0.9922   -9.3232   16.5995 O   0  0  0  0  0  0  0  0  0  0  0  0
    1.5232   -7.6869   27.1182 C   0  0  0  0  0  0  0  0  0  0  0  0
    8.6878   -6.6715   27.7262 N   0  0  0  0  0  0  0  0  0  0  0  0
    6.9911   -8.2423   27.1808 C   0  0  0  0  0  0  0  0  0  0  0  0
    3.8436   -7.2758   16.0578 C   0  0  0  0  0  0  0  0  0  0  0  0
    3.1882   -9.7190   17.2566 C   0  0  0  0  0  0  0  0  0  0  0  0
    5.3488   -6.1737   26.5092 C   0  0  0  0  0  0  0  0  0  0  0  0
    7.4567   -6.9464   27.2858 C   0  0  0  0  0  0  0  0  0  0  0  0
    0.1921   -5.7592   27.1123 C   0  0  0  0  0  0  0  0  0  0  0  0
    3.5517   -7.7407   25.9711 C   0  0  0  0  0  0  0  0  0  0  0  0
  1  4  4  0
  1 22  4  0
  2 20  4  0
  2 27  4  0
  3 12  4  0
  3 23  4  0
  4 25  4  0
  4 28  1  0
  5  8  4  0
  5 17  4  0
  6  7  4  0
  6 16  4  0
  7 18  4  0
  8 27  4  0
  9 13  4  0
  9 23  4  0
 10 11  1  0
 11 14  2  0
 11 27  1  0
 12 19  1  0
 12 24  4  0
 13 24  4  0
 15 18  1  0
 16 25  4  0
 16 26  4  0
 17 20  4  0
 17 28  1  0
 18 21  4  0
 21 26  4  0
 22 26  4  0
M  END
$$$$

 Created by Python create_sdf_string function

 28 30  0  0  0  0  0  0  0  0999 V2000
    5.7174   -8.4529   26.7190 C   0  0  0  0  0  0  0  0  0  0  0  0
    0.3974   -7.0711   27.5149 C   0  0  0  0  0  0  0  0  0  0  0  0
    2.5338   -7.6891   16.0102 C   0  0  0  0  0  0  0  0  0  0  0  0
    4.8690   -7.4380   26.4151 C   0  0  0  0  0  0  0  0  0  0  0  0
    2.3021   -5.6726   26.0378 C   0  0  0  0  0  0  0  0  0  0  0  0
    7.0880   -4.6163   27.0010 C   0  0  0  0  0  0  0  0  0  0  0  0
    8.3117   -4.3698   27.4436 C   0  0  0  0  0  0  0  0  0  0  0  0
    1.1339   -5.0515   26.3541 C   0  0  0  0  0  0  0  0  0  0  0  0
    4.8080   -8.0362   16.7101 C   0  0  0  0  0  0  0  0  0  0  0  0
   -1.2173   -3.9294   26.9717 O   0  0  0  0  0  0  0  0  0  0  0  0
   -1.0025   -5.0942   27.4586 C   0  0  0  0  0  0  0  0  0  0  0  0
    2.2474   -8.9123   16.6273 C   0  0  0  0  0  0  0  0  0  0  0  0
    4.4957   -9.2636   17.3041 C   0  0  0  0  0  0  0  0  0  0  0  0
   -1.8070   -5.6086   28.1920 O   0  0  0  0  0  0  0  0  0  0  0  0
   10.4296   -5.1799   28.3140 C   0  0  0  0  0  0  0  0  0  0  0  0
    6.6017   -5.9004   26.9187 C   0  0  0  0  0  0  0  0  0  0  0  0
    2.4761   -6.9940   26.4111 N   0  0  0  0  0  0  0  0  0  0  0  0
    9.1353   -5.4053   27.8239 C   0  0  0  0  0  0  0  0  0  0  0  0
    0.9922   -9.3232   16.5995 O   0  0  0  0  0  0  0  0  0  0  0  0
    1.5232   -7.6869   27.1182 C   0  0  0  0  0  0  0  0  0  0  0  0
    8.6878   -6.6715   27.7262 N   0  0  0  0  0  0  0  0  0  0  0  0
    6.9911   -8.2423   27.1808 C   0  0  0  0  0  0  0  0  0  0  0  0
    3.8436   -7.2758   16.0578 C   0  0  0  0  0  0  0  0  0  0  0  0
    3.1882   -9.7190   17.2566 C   0  0  0  0  0  0  0  0  0  0  0  0
    5.3488   -6.1737   26.5092 C   0  0  0  0  0  0  0  0  0  0  0  0
    7.4567   -6.9464   27.2858 C   0  0  0  0  0  0  0  0  0  0  0  0
    0.1921   -5.7592   27.1123 C   0  0  0  0  0  0  0  0  0  0  0  0
    3.5517   -7.7407   25.9711 C   0  0  0  0  0  0  0  0  0  0  0  0
  1  4  4  0
  1 22  4  0
  2 20  4  0
  2 27  4  0
  3 12  4  0
  3 23  4  0
  4 25  4  0
  4 28  1  0
  5  8  4  0
  5 17  4  0
  6  7  4  0
  6 16  4  0
  7 18  4  0
  8 27  4  0
  9 13  4  0
  9 23  4  0
 10 11  1  0
 11 14  2  0
 11 27  1  0
 12 19  1  0
 12 24  4  0
 13 24  4  0
 15 18  1  0
 16 25  4  0
 16 26  4  0
 17 20  4  0
 17 28  1  0
 18 21  4  0
 21 26  4  0
 22 26  4  0
M  END
$$$$

 Created by Python create_sdf_string function

 28 30  0  0  0  0  0  0  0  0999 V2000
    5.7174   -8.4529   26.7190 C   0  0  0  0  0  0  0  0  0  0  0  0
    0.3974   -7.0711   27.5149 C   0  0  0  0  0  0  0  0  0  0  0  0
    2.5338   -7.6891   16.0102 C   0  0  0  0  0  0  0  0  0  0  0  0
    4.8690   -7.4380   26.4151 C   0  0  0  0  0  0  0  0  0  0  0  0
    2.3021   -5.6726   26.0378 C   0  0  0  0  0  0  0  0  0  0  0  0
    7.0880   -4.6163   27.0010 C   0  0  0  0  0  0  0  0  0  0  0  0
    8.3117   -4.3698   27.4436 C   0  0  0  0  0  0  0  0  0  0  0  0
    1.1339   -5.0515   26.3541 C   0  0  0  0  0  0  0  0  0  0  0  0
    4.8080   -8.0362   16.7101 C   0  0  0  0  0  0  0  0  0  0  0  0
   -1.2173   -3.9294   26.9717 O   0  0  0  0  0  0  0  0  0  0  0  0
   -1.0025   -5.0942   27.4586 C   0  0  0  0  0  0  0  0  0  0  0  0
    2.2474   -8.9123   16.6273 C   0  0  0  0  0  0  0  0  0  0  0  0
    4.4957   -9.2636   17.3041 C   0  0  0  0  0  0  0  0  0  0  0  0
   -1.8070   -5.6086   28.1920 O   0  0  0  0  0  0  0  0  0  0  0  0
   10.4296   -5.1799   28.3140 C   0  0  0  0  0  0  0  0  0  0  0  0
    6.6017   -5.9004   26.9187 C   0  0  0  0  0  0  0  0  0  0  0  0
    2.4761   -6.9940   26.4111 N   0  0  0  0  0  0  0  0  0  0  0  0
    9.1353   -5.4053   27.8239 C   0  0  0  0  0  0  0  0  0  0  0  0
    0.9922   -9.3232   16.5995 O   0  0  0  0  0  0  0  0  0  0  0  0
    1.5232   -7.6869   27.1182 C   0  0  0  0  0  0  0  0  0  0  0  0
    8.6878   -6.6715   27.7262 N   0  0  0  0  0  0  0  0  0  0  0  0
    6.9911   -8.2423   27.1808 C   0  0  0  0  0  0  0  0  0  0  0  0
    3.8436   -7.2758   16.0578 C   0  0  0  0  0  0  0  0  0  0  0  0
    3.1882   -9.7190   17.2566 C   0  0  0  0  0  0  0  0  0  0  0  0
    5.3488   -6.1737   26.5092 C   0  0  0  0  0  0  0  0  0  0  0  0
    7.4567   -6.9464   27.2858 C   0  0  0  0  0  0  0  0  0  0  0  0
    0.1921   -5.7592   27.1123 C   0  0  0  0  0  0  0  0  0  0  0  0
    3.5517   -7.7407   25.9711 C   0  0  0  0  0  0  0  0  0  0  0  0
  1  4  4  0
  1 22  4  0
  2 20  4  0
  2 27  4  0
  3 12  4  0
  3 23  4  0
  4 25  4  0
  4 28  1  0
  5  8  4  0
  5 17  4  0
  6  7  4  0
  6 16  4  0
  7 18  4  0
  8 27  4  0
  9 13  4  0
  9 23  4  0
 10 11  1  0
 11 14  2  0
 11 27  1  0
 12 19  1  0
 12 24  4  0
 13 24  4  0
 15 18  1  0
 16 25  4  0
 16 26  4  0
 17 20  4  0
 17 28  1  0
 18 21  4  0
 21 26  4  0
 22 26  4  0
M  END
$$$$

 Created by Python create_sdf_string function

 28 30  0  0  0  0  0  0  0  0999 V2000
    5.7174   -8.4529   26.7190 C   0  0  0  0  0  0  0  0  0  0  0  0
    0.3974   -7.0711   27.5149 C   0  0  0  0  0  0  0  0  0  0  0  0
    2.5338   -7.6891   16.0102 C   0  0  0  0  0  0  0  0  0  0  0  0
    4.8690   -7.4380   26.4151 C   0  0  0  0  0  0  0  0  0  0  0  0
    2.3021   -5.6726   26.0378 C   0  0  0  0  0  0  0  0  0  0  0  0
    7.0880   -4.6163   27.0010 C   0  0  0  0  0  0  0  0  0  0  0  0
    8.3117   -4.3698   27.4436 C   0  0  0  0  0  0  0  0  0  0  0  0
    1.1339   -5.0515   26.3541 C   0  0  0  0  0  0  0  0  0  0  0  0
    4.8080   -8.0362   16.7101 C   0  0  0  0  0  0  0  0  0  0  0  0
   -1.2173   -3.9294   26.9717 O   0  0  0  0  0  0  0  0  0  0  0  0
   -1.0025   -5.0942   27.4586 C   0  0  0  0  0  0  0  0  0  0  0  0
    2.2474   -8.9123   16.6273 C   0  0  0  0  0  0  0  0  0  0  0  0
    4.4957   -9.2636   17.3041 C   0  0  0  0  0  0  0  0  0  0  0  0
   -1.8070   -5.6086   28.1920 O   0  0  0  0  0  0  0  0  0  0  0  0
   10.4296   -5.1799   28.3140 C   0  0  0  0  0  0  0  0  0  0  0  0
    6.6017   -5.9004   26.9187 C   0  0  0  0  0  0  0  0  0  0  0  0
    2.4761   -6.9940   26.4111 N   0  0  0  0  0  0  0  0  0  0  0  0
    9.1353   -5.4053   27.8239 C   0  0  0  0  0  0  0  0  0  0  0  0
    0.9922   -9.3232   16.5995 O   0  0  0  0  0  0  0  0  0  0  0  0
    1.5232   -7.6869   27.1182 C   0  0  0  0  0  0  0  0  0  0  0  0
    8.6878   -6.6715   27.7262 N   0  0  0  0  0  0  0  0  0  0  0  0
    6.9911   -8.2423   27.1808 C   0  0  0  0  0  0  0  0  0  0  0  0
    3.8436   -7.2758   16.0578 C   0  0  0  0  0  0  0  0  0  0  0  0
    3.1882   -9.7190   17.2566 C   0  0  0  0  0  0  0  0  0  0  0  0
    5.3488   -6.1737   26.5092 C   0  0  0  0  0  0  0  0  0  0  0  0
    7.4567   -6.9464   27.2858 C   0  0  0  0  0  0  0  0  0  0  0  0
    0.1921   -5.7592   27.1123 C   0  0  0  0  0  0  0  0  0  0  0  0
    3.5517   -7.7407   25.9711 C   0  0  0  0  0  0  0  0  0  0  0  0
  1  4  4  0
  1 22  4  0
  2 20  4  0
  2 27  4  0
  3 12  4  0
  3 23  4  0
  4 25  4  0
  4 28  1  0
  5  8  4  0
  5 17  4  0
  6  7  4  0
  6 16  4  0
  7 18  4  0
  8 27  4  0
  9 13  4  0
  9 23  4  0
 10 11  1  0
 11 14  2  0
 11 27  1  0
 12 19  1  0
 12 24  4  0
 13 24  4  0
 15 18  1  0
 16 25  4  0
 16 26  4  0
 17 20  4  0
 17 28  1  0
 18 21  4  0
 21 26  4  0
 22 26  4  0
M  END
$$$$

 Created by Python create_sdf_string function

 28 30  0  0  0  0  0  0  0  0999 V2000
    5.7174   -8.4529   26.7190 C   0  0  0  0  0  0  0  0  0  0  0  0
    0.3974   -7.0711   27.5149 C   0  0  0  0  0  0  0  0  0  0  0  0
    2.5338   -7.6891   16.0102 C   0  0  0  0  0  0  0  0  0  0  0  0
    4.8690   -7.4380   26.4151 C   0  0  0  0  0  0  0  0  0  0  0  0
    2.3021   -5.6726   26.0378 C   0  0  0  0  0  0  0  0  0  0  0  0
    7.0880   -4.6163   27.0010 C   0  0  0  0  0  0  0  0  0  0  0  0
    8.3117   -4.3698   27.4436 C   0  0  0  0  0  0  0  0  0  0  0  0
    1.1339   -5.0515   26.3541 C   0  0  0  0  0  0  0  0  0  0  0  0
    4.8080   -8.0362   16.7101 C   0  0  0  0  0  0  0  0  0  0  0  0
   -1.2173   -3.9294   26.9717 O   0  0  0  0  0  0  0  0  0  0  0  0
   -1.0025   -5.0942   27.4586 C   0  0  0  0  0  0  0  0  0  0  0  0
    2.2474   -8.9123   16.6273 C   0  0  0  0  0  0  0  0  0  0  0  0
    4.4957   -9.2636   17.3041 C   0  0  0  0  0  0  0  0  0  0  0  0
   -1.8070   -5.6086   28.1920 O   0  0  0  0  0  0  0  0  0  0  0  0
   10.4296   -5.1799   28.3140 C   0  0  0  0  0  0  0  0  0  0  0  0
    6.6017   -5.9004   26.9187 C   0  0  0  0  0  0  0  0  0  0  0  0
    2.4761   -6.9940   26.4111 N   0  0  0  0  0  0  0  0  0  0  0  0
    9.1353   -5.4053   27.8239 C   0  0  0  0  0  0  0  0  0  0  0  0
    0.9922   -9.3232   16.5995 O   0  0  0  0  0  0  0  0  0  0  0  0
    1.5232   -7.6869   27.1182 C   0  0  0  0  0  0  0  0  0  0  0  0
    8.6878   -6.6715   27.7262 N   0  0  0  0  0  0  0  0  0  0  0  0
    6.9911   -8.2423   27.1808 C   0  0  0  0  0  0  0  0  0  0  0  0
    3.8436   -7.2758   16.0578 C   0  0  0  0  0  0  0  0  0  0  0  0
    3.1882   -9.7190   17.2566 C   0  0  0  0  0  0  0  0  0  0  0  0
    5.3488   -6.1737   26.5092 C   0  0  0  0  0  0  0  0  0  0  0  0
    7.4567   -6.9464   27.2858 C   0  0  0  0  0  0  0  0  0  0  0  0
    0.1921   -5.7592   27.1123 C   0  0  0  0  0  0  0  0  0  0  0  0
    3.5517   -7.7407   25.9711 C   0  0  0  0  0  0  0  0  0  0  0  0
  1  4  4  0
  1 22  4  0
  2 20  4  0
  2 27  4  0
  3 12  4  0
  3 23  4  0
  4 25  4  0
  4 28  1  0
  5  8  4  0
  5 17  4  0
  6  7  4  0
  6 16  4  0
  7 18  4  0
  8 27  4  0
  9 13  4  0
  9 23  4  0
 10 11  1  0
 11 14  2  0
 11 27  1  0
 12 19  1  0
 12 24  4  0
 13 24  4  0
 15 18  1  0
 16 25  4  0
 16 26  4  0
 17 20  4  0
 17 28  1  0
 18 21  4  0
 21 26  4  0
 22 26  4  0
M  END
$$$$

 Created by Python create_sdf_string function

 28 30  0  0  0  0  0  0  0  0999 V2000
    5.7174   -8.4529   26.7190 C   0  0  0  0  0  0  0  0  0  0  0  0
    0.3974   -7.0711   27.5149 C   0  0  0  0  0  0  0  0  0  0  0  0
    2.5338   -7.6891   16.0102 C   0  0  0  0  0  0  0  0  0  0  0  0
    4.8690   -7.4380   26.4151 C   0  0  0  0  0  0  0  0  0  0  0  0
    2.3021   -5.6726   26.0378 C   0  0  0  0  0  0  0  0  0  0  0  0
    7.0880   -4.6163   27.0010 C   0  0  0  0  0  0  0  0  0  0  0  0
    8.3117   -4.3698   27.4436 C   0  0  0  0  0  0  0  0  0  0  0  0
    1.1339   -5.0515   26.3541 C   0  0  0  0  0  0  0  0  0  0  0  0
    4.8080   -8.0362   16.7101 C   0  0  0  0  0  0  0  0  0  0  0  0
   -1.2173   -3.9294   26.9717 O   0  0  0  0  0  0  0  0  0  0  0  0
   -1.0025   -5.0942   27.4586 C   0  0  0  0  0  0  0  0  0  0  0  0
    2.2474   -8.9123   16.6273 C   0  0  0  0  0  0  0  0  0  0  0  0
    4.4957   -9.2636   17.3041 C   0  0  0  0  0  0  0  0  0  0  0  0
   -1.8070   -5.6086   28.1920 O   0  0  0  0  0  0  0  0  0  0  0  0
   10.4296   -5.1799   28.3140 C   0  0  0  0  0  0  0  0  0  0  0  0
    6.6017   -5.9004   26.9187 C   0  0  0  0  0  0  0  0  0  0  0  0
    2.4761   -6.9940   26.4111 N   0  0  0  0  0  0  0  0  0  0  0  0
    9.1353   -5.4053   27.8239 C   0  0  0  0  0  0  0  0  0  0  0  0
    0.9922   -9.3232   16.5995 O   0  0  0  0  0  0  0  0  0  0  0  0
    1.5232   -7.6869   27.1182 C   0  0  0  0  0  0  0  0  0  0  0  0
    8.6878   -6.6715   27.7262 N   0  0  0  0  0  0  0  0  0  0  0  0
    6.9911   -8.2423   27.1808 C   0  0  0  0  0  0  0  0  0  0  0  0
    3.8436   -7.2758   16.0578 C   0  0  0  0  0  0  0  0  0  0  0  0
    3.1882   -9.7190   17.2566 C   0  0  0  0  0  0  0  0  0  0  0  0
    5.3488   -6.1737   26.5092 C   0  0  0  0  0  0  0  0  0  0  0  0
    7.4567   -6.9464   27.2858 C   0  0  0  0  0  0  0  0  0  0  0  0
    0.1921   -5.7592   27.1123 C   0  0  0  0  0  0  0  0  0  0  0  0
    3.5517   -7.7407   25.9711 C   0  0  0  0  0  0  0  0  0  0  0  0
  1  4  4  0
  1 22  4  0
  2 20  4  0
  2 27  4  0
  3 12  4  0
  3 23  4  0
  4 25  4  0
  4 28  1  0
  5  8  4  0
  5 17  4  0
  6  7  4  0
  6 16  4  0
  7 18  4  0
  8 27  4  0
  9 13  4  0
  9 23  4  0
 10 11  1  0
 11 14  2  0
 11 27  1  0
 12 19  1  0
 12 24  4  0
 13 24  4  0
 15 18  1  0
 16 25  4  0
 16 26  4  0
 17 20  4  0
 17 28  1  0
 18 21  4  0
 21 26  4  0
 22 26  4  0
M  END
$$$$

 Created by Python create_sdf_string function

 28 30  0  0  0  0  0  0  0  0999 V2000
    5.7174   -8.4529   26.7190 C   0  0  0  0  0  0  0  0  0  0  0  0
    0.3974   -7.0711   27.5149 C   0  0  0  0  0  0  0  0  0  0  0  0
    2.5338   -7.6891   16.0102 C   0  0  0  0  0  0  0  0  0  0  0  0
    4.8690   -7.4380   26.4151 C   0  0  0  0  0  0  0  0  0  0  0  0
    2.3021   -5.6726   26.0378 C   0  0  0  0  0  0  0  0  0  0  0  0
    7.0880   -4.6163   27.0010 C   0  0  0  0  0  0  0  0  0  0  0  0
    8.3117   -4.3698   27.4436 C   0  0  0  0  0  0  0  0  0  0  0  0
    1.1339   -5.0515   26.3541 C   0  0  0  0  0  0  0  0  0  0  0  0
    4.8080   -8.0362   16.7101 C   0  0  0  0  0  0  0  0  0  0  0  0
   -1.2173   -3.9294   26.9717 O   0  0  0  0  0  0  0  0  0  0  0  0
   -1.0025   -5.0942   27.4586 C   0  0  0  0  0  0  0  0  0  0  0  0
    2.2474   -8.9123   16.6273 C   0  0  0  0  0  0  0  0  0  0  0  0
    4.4957   -9.2636   17.3041 C   0  0  0  0  0  0  0  0  0  0  0  0
   -1.8070   -5.6086   28.1920 O   0  0  0  0  0  0  0  0  0  0  0  0
   10.4296   -5.1799   28.3140 C   0  0  0  0  0  0  0  0  0  0  0  0
    6.6017   -5.9004   26.9187 C   0  0  0  0  0  0  0  0  0  0  0  0
    2.4761   -6.9940   26.4111 N   0  0  0  0  0  0  0  0  0  0  0  0
    9.1353   -5.4053   27.8239 C   0  0  0  0  0  0  0  0  0  0  0  0
    0.9922   -9.3232   16.5995 O   0  0  0  0  0  0  0  0  0  0  0  0
    1.5232   -7.6869   27.1182 C   0  0  0  0  0  0  0  0  0  0  0  0
    8.6878   -6.6715   27.7262 N   0  0  0  0  0  0  0  0  0  0  0  0
    6.9911   -8.2423   27.1808 C   0  0  0  0  0  0  0  0  0  0  0  0
    3.8436   -7.2758   16.0578 C   0  0  0  0  0  0  0  0  0  0  0  0
    3.1882   -9.7190   17.2566 C   0  0  0  0  0  0  0  0  0  0  0  0
    5.3488   -6.1737   26.5092 C   0  0  0  0  0  0  0  0  0  0  0  0
    7.4567   -6.9464   27.2858 C   0  0  0  0  0  0  0  0  0  0  0  0
    0.1921   -5.7592   27.1123 C   0  0  0  0  0  0  0  0  0  0  0  0
    3.5517   -7.7407   25.9711 C   0  0  0  0  0  0  0  0  0  0  0  0
  1  4  4  0
  1 22  4  0
  2 20  4  0
  2 27  4  0
  3 12  4  0
  3 23  4  0
  4 25  4  0
  4 28  1  0
  5  8  4  0
  5 17  4  0
  6  7  4  0
  6 16  4  0
  7 18  4  0
  8 27  4  0
  9 13  4  0
  9 23  4  0
 10 11  1  0
 11 14  2  0
 11 27  1  0
 12 19  1  0
 12 24  4  0
 13 24  4  0
 15 18  1  0
 16 25  4  0
 16 26  4  0
 17 20  4  0
 17 28  1  0
 18 21  4  0
 21 26  4  0
 22 26  4  0
M  END
$$$$

 Created by Python create_sdf_string function

 28 30  0  0  0  0  0  0  0  0999 V2000
    5.7174   -8.4529   26.7190 C   0  0  0  0  0  0  0  0  0  0  0  0
    0.3974   -7.0711   27.5149 C   0  0  0  0  0  0  0  0  0  0  0  0
    2.5338   -7.6891   16.0102 C   0  0  0  0  0  0  0  0  0  0  0  0
    4.8690   -7.4380   26.4151 C   0  0  0  0  0  0  0  0  0  0  0  0
    2.3021   -5.6726   26.0378 C   0  0  0  0  0  0  0  0  0  0  0  0
    7.0880   -4.6163   27.0010 C   0  0  0  0  0  0  0  0  0  0  0  0
    8.3117   -4.3698   27.4436 C   0  0  0  0  0  0  0  0  0  0  0  0
    1.1339   -5.0515   26.3541 C   0  0  0  0  0  0  0  0  0  0  0  0
    4.8080   -8.0362   16.7101 C   0  0  0  0  0  0  0  0  0  0  0  0
   -1.2173   -3.9294   26.9717 O   0  0  0  0  0  0  0  0  0  0  0  0
   -1.0025   -5.0942   27.4586 C   0  0  0  0  0  0  0  0  0  0  0  0
    2.2474   -8.9123   16.6273 C   0  0  0  0  0  0  0  0  0  0  0  0
    4.4957   -9.2636   17.3041 C   0  0  0  0  0  0  0  0  0  0  0  0
   -1.8070   -5.6086   28.1920 O   0  0  0  0  0  0  0  0  0  0  0  0
   10.4296   -5.1799   28.3140 C   0  0  0  0  0  0  0  0  0  0  0  0
    6.6017   -5.9004   26.9187 C   0  0  0  0  0  0  0  0  0  0  0  0
    2.4761   -6.9940   26.4111 N   0  0  0  0  0  0  0  0  0  0  0  0
    9.1353   -5.4053   27.8239 C   0  0  0  0  0  0  0  0  0  0  0  0
    0.9922   -9.3232   16.5995 O   0  0  0  0  0  0  0  0  0  0  0  0
    1.5232   -7.6869   27.1182 C   0  0  0  0  0  0  0  0  0  0  0  0
    8.6878   -6.6715   27.7262 N   0  0  0  0  0  0  0  0  0  0  0  0
    6.9911   -8.2423   27.1808 C   0  0  0  0  0  0  0  0  0  0  0  0
    3.8436   -7.2758   16.0578 C   0  0  0  0  0  0  0  0  0  0  0  0
    3.1882   -9.7190   17.2566 C   0  0  0  0  0  0  0  0  0  0  0  0
    5.3488   -6.1737   26.5092 C   0  0  0  0  0  0  0  0  0  0  0  0
    7.4567   -6.9464   27.2858 C   0  0  0  0  0  0  0  0  0  0  0  0
    0.1921   -5.7592   27.1123 C   0  0  0  0  0  0  0  0  0  0  0  0
    3.5517   -7.7407   25.9711 C   0  0  0  0  0  0  0  0  0  0  0  0
  1  4  4  0
  1 22  4  0
  2 20  4  0
  2 27  4  0
  3 12  4  0
  3 23  4  0
  4 25  4  0
  4 28  1  0
  5  8  4  0
  5 17  4  0
  6  7  4  0
  6 16  4  0
  7 18  4  0
  8 27  4  0
  9 13  4  0
  9 23  4  0
 10 11  1  0
 11 14  2  0
 11 27  1  0
 12 19  1  0
 12 24  4  0
 13 24  4  0
 15 18  1  0
 16 25  4  0
 16 26  4  0
 17 20  4  0
 17 28  1  0
 18 21  4  0
 21 26  4  0
 22 26  4  0
M  END
$$$$

 Created by Python create_sdf_string function

 28 30  0  0  0  0  0  0  0  0999 V2000
    5.7174   -8.4529   26.7190 C   0  0  0  0  0  0  0  0  0  0  0  0
    0.3974   -7.0711   27.5149 C   0  0  0  0  0  0  0  0  0  0  0  0
    2.5338   -7.6891   16.0102 C   0  0  0  0  0  0  0  0  0  0  0  0
    4.8690   -7.4380   26.4151 C   0  0  0  0  0  0  0  0  0  0  0  0
    2.3021   -5.6726   26.0378 C   0  0  0  0  0  0  0  0  0  0  0  0
    7.0880   -4.6163   27.0010 C   0  0  0  0  0  0  0  0  0  0  0  0
    8.3117   -4.3698   27.4436 C   0  0  0  0  0  0  0  0  0  0  0  0
    1.1339   -5.0515   26.3541 C   0  0  0  0  0  0  0  0  0  0  0  0
    4.8080   -8.0362   16.7101 C   0  0  0  0  0  0  0  0  0  0  0  0
   -1.2173   -3.9294   26.9717 O   0  0  0  0  0  0  0  0  0  0  0  0
   -1.0025   -5.0942   27.4586 C   0  0  0  0  0  0  0  0  0  0  0  0
    2.2474   -8.9123   16.6273 C   0  0  0  0  0  0  0  0  0  0  0  0
    4.4957   -9.2636   17.3041 C   0  0  0  0  0  0  0  0  0  0  0  0
   -1.8070   -5.6086   28.1920 O   0  0  0  0  0  0  0  0  0  0  0  0
   10.4296   -5.1799   28.3140 C   0  0  0  0  0  0  0  0  0  0  0  0
    6.6017   -5.9004   26.9187 C   0  0  0  0  0  0  0  0  0  0  0  0
    2.4761   -6.9940   26.4111 N   0  0  0  0  0  0  0  0  0  0  0  0
    9.1353   -5.4053   27.8239 C   0  0  0  0  0  0  0  0  0  0  0  0
    0.9922   -9.3232   16.5995 O   0  0  0  0  0  0  0  0  0  0  0  0
    1.5232   -7.6869   27.1182 C   0  0  0  0  0  0  0  0  0  0  0  0
    8.6878   -6.6715   27.7262 N   0  0  0  0  0  0  0  0  0  0  0  0
    6.9911   -8.2423   27.1808 C   0  0  0  0  0  0  0  0  0  0  0  0
    3.8436   -7.2758   16.0578 C   0  0  0  0  0  0  0  0  0  0  0  0
    3.1882   -9.7190   17.2566 C   0  0  0  0  0  0  0  0  0  0  0  0
    5.3488   -6.1737   26.5092 C   0  0  0  0  0  0  0  0  0  0  0  0
    7.4567   -6.9464   27.2858 C   0  0  0  0  0  0  0  0  0  0  0  0
    0.1921   -5.7592   27.1123 C   0  0  0  0  0  0  0  0  0  0  0  0
    3.5517   -7.7407   25.9711 C   0  0  0  0  0  0  0  0  0  0  0  0
  1  4  4  0
  1 22  4  0
  2 20  4  0
  2 27  4  0
  3 12  4  0
  3 23  4  0
  4 25  4  0
  4 28  1  0
  5  8  4  0
  5 17  4  0
  6  7  4  0
  6 16  4  0
  7 18  4  0
  8 27  4  0
  9 13  4  0
  9 23  4  0
 10 11  1  0
 11 14  2  0
 11 27  1  0
 12 19  1  0
 12 24  4  0
 13 24  4  0
 15 18  1  0
 16 25  4  0
 16 26  4  0
 17 20  4  0
 17 28  1  0
 18 21  4  0
 21 26  4  0
 22 26  4  0
M  END
$$$$

 Created by Python create_sdf_string function

 28 30  0  0  0  0  0  0  0  0999 V2000
    5.7174   -8.4529   26.7190 C   0  0  0  0  0  0  0  0  0  0  0  0
    0.3974   -7.0711   27.5149 C   0  0  0  0  0  0  0  0  0  0  0  0
    2.5338   -7.6891   16.0102 C   0  0  0  0  0  0  0  0  0  0  0  0
    4.8690   -7.4380   26.4151 C   0  0  0  0  0  0  0  0  0  0  0  0
    2.3021   -5.6726   26.0378 C   0  0  0  0  0  0  0  0  0  0  0  0
    7.0880   -4.6163   27.0010 C   0  0  0  0  0  0  0  0  0  0  0  0
    8.3117   -4.3698   27.4436 C   0  0  0  0  0  0  0  0  0  0  0  0
    1.1339   -5.0515   26.3541 C   0  0  0  0  0  0  0  0  0  0  0  0
    4.8080   -8.0362   16.7101 C   0  0  0  0  0  0  0  0  0  0  0  0
   -1.2173   -3.9294   26.9717 O   0  0  0  0  0  0  0  0  0  0  0  0
   -1.0025   -5.0942   27.4586 C   0  0  0  0  0  0  0  0  0  0  0  0
    2.2474   -8.9123   16.6273 C   0  0  0  0  0  0  0  0  0  0  0  0
    4.4957   -9.2636   17.3041 C   0  0  0  0  0  0  0  0  0  0  0  0
   -1.8070   -5.6086   28.1920 O   0  0  0  0  0  0  0  0  0  0  0  0
   10.4296   -5.1799   28.3140 C   0  0  0  0  0  0  0  0  0  0  0  0
    6.6017   -5.9004   26.9187 C   0  0  0  0  0  0  0  0  0  0  0  0
    2.4761   -6.9940   26.4111 N   0  0  0  0  0  0  0  0  0  0  0  0
    9.1353   -5.4053   27.8239 C   0  0  0  0  0  0  0  0  0  0  0  0
    0.9922   -9.3232   16.5995 O   0  0  0  0  0  0  0  0  0  0  0  0
    1.5232   -7.6869   27.1182 C   0  0  0  0  0  0  0  0  0  0  0  0
    8.6878   -6.6715   27.7262 N   0  0  0  0  0  0  0  0  0  0  0  0
    6.9911   -8.2423   27.1808 C   0  0  0  0  0  0  0  0  0  0  0  0
    3.8436   -7.2758   16.0578 C   0  0  0  0  0  0  0  0  0  0  0  0
    3.1882   -9.7190   17.2566 C   0  0  0  0  0  0  0  0  0  0  0  0
    5.3488   -6.1737   26.5092 C   0  0  0  0  0  0  0  0  0  0  0  0
    7.4567   -6.9464   27.2858 C   0  0  0  0  0  0  0  0  0  0  0  0
    0.1921   -5.7592   27.1123 C   0  0  0  0  0  0  0  0  0  0  0  0
    3.5517   -7.7407   25.9711 C   0  0  0  0  0  0  0  0  0  0  0  0
  1  4  4  0
  1 22  4  0
  2 20  4  0
  2 27  4  0
  3 12  4  0
  3 23  4  0
  4 25  4  0
  4 28  1  0
  5  8  4  0
  5 17  4  0
  6  7  4  0
  6 16  4  0
  7 18  4  0
  8 27  4  0
  9 13  4  0
  9 23  4  0
 10 11  1  0
 11 14  2  0
 11 27  1  0
 12 19  1  0
 12 24  4  0
 13 24  4  0
 15 18  1  0
 16 25  4  0
 16 26  4  0
 17 20  4  0
 17 28  1  0
 18 21  4  0
 21 26  4  0
 22 26  4  0
M  END
$$$$

 Created by Python create_sdf_string function

 28 30  0  0  0  0  0  0  0  0999 V2000
    5.7174   -8.4529   26.7190 C   0  0  0  0  0  0  0  0  0  0  0  0
    0.3974   -7.0711   27.5149 C   0  0  0  0  0  0  0  0  0  0  0  0
    2.5338   -7.6891   16.0102 C   0  0  0  0  0  0  0  0  0  0  0  0
    4.8690   -7.4380   26.4151 C   0  0  0  0  0  0  0  0  0  0  0  0
    2.3021   -5.6726   26.0378 C   0  0  0  0  0  0  0  0  0  0  0  0
    7.0880   -4.6163   27.0010 C   0  0  0  0  0  0  0  0  0  0  0  0
    8.3117   -4.3698   27.4436 C   0  0  0  0  0  0  0  0  0  0  0  0
    1.1339   -5.0515   26.3541 C   0  0  0  0  0  0  0  0  0  0  0  0
    4.8080   -8.0362   16.7101 C   0  0  0  0  0  0  0  0  0  0  0  0
   -1.2173   -3.9294   26.9717 O   0  0  0  0  0  0  0  0  0  0  0  0
   -1.0025   -5.0942   27.4586 C   0  0  0  0  0  0  0  0  0  0  0  0
    2.2474   -8.9123   16.6273 C   0  0  0  0  0  0  0  0  0  0  0  0
    4.4957   -9.2636   17.3041 C   0  0  0  0  0  0  0  0  0  0  0  0
   -1.8070   -5.6086   28.1920 O   0  0  0  0  0  0  0  0  0  0  0  0
   10.4296   -5.1799   28.3140 C   0  0  0  0  0  0  0  0  0  0  0  0
    6.6017   -5.9004   26.9187 C   0  0  0  0  0  0  0  0  0  0  0  0
    2.4761   -6.9940   26.4111 N   0  0  0  0  0  0  0  0  0  0  0  0
    9.1353   -5.4053   27.8239 C   0  0  0  0  0  0  0  0  0  0  0  0
    0.9922   -9.3232   16.5995 O   0  0  0  0  0  0  0  0  0  0  0  0
    1.5232   -7.6869   27.1182 C   0  0  0  0  0  0  0  0  0  0  0  0
    8.6878   -6.6715   27.7262 N   0  0  0  0  0  0  0  0  0  0  0  0
    6.9911   -8.2423   27.1808 C   0  0  0  0  0  0  0  0  0  0  0  0
    3.8436   -7.2758   16.0578 C   0  0  0  0  0  0  0  0  0  0  0  0
    3.1882   -9.7190   17.2566 C   0  0  0  0  0  0  0  0  0  0  0  0
    5.3488   -6.1737   26.5092 C   0  0  0  0  0  0  0  0  0  0  0  0
    7.4567   -6.9464   27.2858 C   0  0  0  0  0  0  0  0  0  0  0  0
    0.1921   -5.7592   27.1123 C   0  0  0  0  0  0  0  0  0  0  0  0
    3.5517   -7.7407   25.9711 C   0  0  0  0  0  0  0  0  0  0  0  0
  1  4  4  0
  1 22  4  0
  2 20  4  0
  2 27  4  0
  3 12  4  0
  3 23  4  0
  4 25  4  0
  4 28  1  0
  5  8  4  0
  5 17  4  0
  6  7  4  0
  6 16  4  0
  7 18  4  0
  8 27  4  0
  9 13  4  0
  9 23  4  0
 10 11  1  0
 11 14  2  0
 11 27  1  0
 12 19  1  0
 12 24  4  0
 13 24  4  0
 15 18  1  0
 16 25  4  0
 16 26  4  0
 17 20  4  0
 17 28  1  0
 18 21  4  0
 21 26  4  0
 22 26  4  0
M  END
$$$$

 Created by Python create_sdf_string function

 28 30  0  0  0  0  0  0  0  0999 V2000
    5.7174   -8.4529   26.7190 C   0  0  0  0  0  0  0  0  0  0  0  0
    0.3974   -7.0711   27.5149 C   0  0  0  0  0  0  0  0  0  0  0  0
    2.5338   -7.6891   16.0102 C   0  0  0  0  0  0  0  0  0  0  0  0
    4.8690   -7.4380   26.4151 C   0  0  0  0  0  0  0  0  0  0  0  0
    2.3021   -5.6726   26.0378 C   0  0  0  0  0  0  0  0  0  0  0  0
    7.0880   -4.6163   27.0010 C   0  0  0  0  0  0  0  0  0  0  0  0
    8.3117   -4.3698   27.4436 C   0  0  0  0  0  0  0  0  0  0  0  0
    1.1339   -5.0515   26.3541 C   0  0  0  0  0  0  0  0  0  0  0  0
    4.8080   -8.0362   16.7101 C   0  0  0  0  0  0  0  0  0  0  0  0
   -1.2173   -3.9294   26.9717 O   0  0  0  0  0  0  0  0  0  0  0  0
   -1.0025   -5.0942   27.4586 C   0  0  0  0  0  0  0  0  0  0  0  0
    2.2474   -8.9123   16.6273 C   0  0  0  0  0  0  0  0  0  0  0  0
    4.4957   -9.2636   17.3041 C   0  0  0  0  0  0  0  0  0  0  0  0
   -1.8070   -5.6086   28.1920 O   0  0  0  0  0  0  0  0  0  0  0  0
   10.4296   -5.1799   28.3140 C   0  0  0  0  0  0  0  0  0  0  0  0
    6.6017   -5.9004   26.9187 C   0  0  0  0  0  0  0  0  0  0  0  0
    2.4761   -6.9940   26.4111 N   0  0  0  0  0  0  0  0  0  0  0  0
    9.1353   -5.4053   27.8239 C   0  0  0  0  0  0  0  0  0  0  0  0
    0.9922   -9.3232   16.5995 O   0  0  0  0  0  0  0  0  0  0  0  0
    1.5232   -7.6869   27.1182 C   0  0  0  0  0  0  0  0  0  0  0  0
    8.6878   -6.6715   27.7262 N   0  0  0  0  0  0  0  0  0  0  0  0
    6.9911   -8.2423   27.1808 C   0  0  0  0  0  0  0  0  0  0  0  0
    3.8436   -7.2758   16.0578 C   0  0  0  0  0  0  0  0  0  0  0  0
    3.1882   -9.7190   17.2566 C   0  0  0  0  0  0  0  0  0  0  0  0
    5.3488   -6.1737   26.5092 C   0  0  0  0  0  0  0  0  0  0  0  0
    7.4567   -6.9464   27.2858 C   0  0  0  0  0  0  0  0  0  0  0  0
    0.1921   -5.7592   27.1123 C   0  0  0  0  0  0  0  0  0  0  0  0
    3.5517   -7.7407   25.9711 C   0  0  0  0  0  0  0  0  0  0  0  0
  1  4  4  0
  1 22  4  0
  2 20  4  0
  2 27  4  0
  3 12  4  0
  3 23  4  0
  4 25  4  0
  4 28  1  0
  5  8  4  0
  5 17  4  0
  6  7  4  0
  6 16  4  0
  7 18  4  0
  8 27  4  0
  9 13  4  0
  9 23  4  0
 10 11  1  0
 11 14  2  0
 11 27  1  0
 12 19  1  0
 12 24  4  0
 13 24  4  0
 15 18  1  0
 16 25  4  0
 16 26  4  0
 17 20  4  0
 17 28  1  0
 18 21  4  0
 21 26  4  0
 22 26  4  0
M  END
$$$$

 Created by Python create_sdf_string function

 28 30  0  0  0  0  0  0  0  0999 V2000
    5.7174   -8.4529   26.7190 C   0  0  0  0  0  0  0  0  0  0  0  0
    0.3974   -7.0711   27.5149 C   0  0  0  0  0  0  0  0  0  0  0  0
    2.5338   -7.6891   16.0102 C   0  0  0  0  0  0  0  0  0  0  0  0
    4.8690   -7.4380   26.4151 C   0  0  0  0  0  0  0  0  0  0  0  0
    2.3021   -5.6726   26.0378 C   0  0  0  0  0  0  0  0  0  0  0  0
    7.0880   -4.6163   27.0010 C   0  0  0  0  0  0  0  0  0  0  0  0
    8.3117   -4.3698   27.4436 C   0  0  0  0  0  0  0  0  0  0  0  0
    1.1339   -5.0515   26.3541 C   0  0  0  0  0  0  0  0  0  0  0  0
    4.8080   -8.0362   16.7101 C   0  0  0  0  0  0  0  0  0  0  0  0
   -1.2173   -3.9294   26.9717 O   0  0  0  0  0  0  0  0  0  0  0  0
   -1.0025   -5.0942   27.4586 C   0  0  0  0  0  0  0  0  0  0  0  0
    2.2474   -8.9123   16.6273 C   0  0  0  0  0  0  0  0  0  0  0  0
    4.4957   -9.2636   17.3041 C   0  0  0  0  0  0  0  0  0  0  0  0
   -1.8070   -5.6086   28.1920 O   0  0  0  0  0  0  0  0  0  0  0  0
   10.4296   -5.1799   28.3140 C   0  0  0  0  0  0  0  0  0  0  0  0
    6.6017   -5.9004   26.9187 C   0  0  0  0  0  0  0  0  0  0  0  0
    2.4761   -6.9940   26.4111 N   0  0  0  0  0  0  0  0  0  0  0  0
    9.1353   -5.4053   27.8239 C   0  0  0  0  0  0  0  0  0  0  0  0
    0.9922   -9.3232   16.5995 O   0  0  0  0  0  0  0  0  0  0  0  0
    1.5232   -7.6869   27.1182 C   0  0  0  0  0  0  0  0  0  0  0  0
    8.6878   -6.6715   27.7262 N   0  0  0  0  0  0  0  0  0  0  0  0
    6.9911   -8.2423   27.1808 C   0  0  0  0  0  0  0  0  0  0  0  0
    3.8436   -7.2758   16.0578 C   0  0  0  0  0  0  0  0  0  0  0  0
    3.1882   -9.7190   17.2566 C   0  0  0  0  0  0  0  0  0  0  0  0
    5.3488   -6.1737   26.5092 C   0  0  0  0  0  0  0  0  0  0  0  0
    7.4567   -6.9464   27.2858 C   0  0  0  0  0  0  0  0  0  0  0  0
    0.1921   -5.7592   27.1123 C   0  0  0  0  0  0  0  0  0  0  0  0
    3.5517   -7.7407   25.9711 C   0  0  0  0  0  0  0  0  0  0  0  0
  1  4  4  0
  1 22  4  0
  2 20  4  0
  2 27  4  0
  3 12  4  0
  3 23  4  0
  4 25  4  0
  4 28  1  0
  5  8  4  0
  5 17  4  0
  6  7  4  0
  6 16  4  0
  7 18  4  0
  8 27  4  0
  9 13  4  0
  9 23  4  0
 10 11  1  0
 11 14  2  0
 11 27  1  0
 12 19  1  0
 12 24  4  0
 13 24  4  0
 15 18  1  0
 16 25  4  0
 16 26  4  0
 17 20  4  0
 17 28  1  0
 18 21  4  0
 21 26  4  0
 22 26  4  0
M  END
$$$$

 Created by Python create_sdf_string function

 28 30  0  0  0  0  0  0  0  0999 V2000
    5.7174   -8.4529   26.7190 C   0  0  0  0  0  0  0  0  0  0  0  0
    0.3974   -7.0711   27.5149 C   0  0  0  0  0  0  0  0  0  0  0  0
    2.5338   -7.6891   16.0102 C   0  0  0  0  0  0  0  0  0  0  0  0
    4.8690   -7.4380   26.4151 C   0  0  0  0  0  0  0  0  0  0  0  0
    2.3021   -5.6726   26.0378 C   0  0  0  0  0  0  0  0  0  0  0  0
    7.0880   -4.6163   27.0010 C   0  0  0  0  0  0  0  0  0  0  0  0
    8.3117   -4.3698   27.4436 C   0  0  0  0  0  0  0  0  0  0  0  0
    1.1339   -5.0515   26.3541 C   0  0  0  0  0  0  0  0  0  0  0  0
    4.8080   -8.0362   16.7101 C   0  0  0  0  0  0  0  0  0  0  0  0
   -1.2173   -3.9294   26.9717 O   0  0  0  0  0  0  0  0  0  0  0  0
   -1.0025   -5.0942   27.4586 C   0  0  0  0  0  0  0  0  0  0  0  0
    2.2474   -8.9123   16.6273 C   0  0  0  0  0  0  0  0  0  0  0  0
    4.4957   -9.2636   17.3041 C   0  0  0  0  0  0  0  0  0  0  0  0
   -1.8070   -5.6086   28.1920 O   0  0  0  0  0  0  0  0  0  0  0  0
   10.4296   -5.1799   28.3140 C   0  0  0  0  0  0  0  0  0  0  0  0
    6.6017   -5.9004   26.9187 C   0  0  0  0  0  0  0  0  0  0  0  0
    2.4761   -6.9940   26.4111 N   0  0  0  0  0  0  0  0  0  0  0  0
    9.1353   -5.4053   27.8239 C   0  0  0  0  0  0  0  0  0  0  0  0
    0.9922   -9.3232   16.5995 O   0  0  0  0  0  0  0  0  0  0  0  0
    1.5232   -7.6869   27.1182 C   0  0  0  0  0  0  0  0  0  0  0  0
    8.6878   -6.6715   27.7262 N   0  0  0  0  0  0  0  0  0  0  0  0
    6.9911   -8.2423   27.1808 C   0  0  0  0  0  0  0  0  0  0  0  0
    3.8436   -7.2758   16.0578 C   0  0  0  0  0  0  0  0  0  0  0  0
    3.1882   -9.7190   17.2566 C   0  0  0  0  0  0  0  0  0  0  0  0
    5.3488   -6.1737   26.5092 C   0  0  0  0  0  0  0  0  0  0  0  0
    7.4567   -6.9464   27.2858 C   0  0  0  0  0  0  0  0  0  0  0  0
    0.1921   -5.7592   27.1123 C   0  0  0  0  0  0  0  0  0  0  0  0
    3.5517   -7.7407   25.9711 C   0  0  0  0  0  0  0  0  0  0  0  0
  1  4  4  0
  1 22  4  0
  2 20  4  0
  2 27  4  0
  3 12  4  0
  3 23  4  0
  4 25  4  0
  4 28  1  0
  5  8  4  0
  5 17  4  0
  6  7  4  0
  6 16  4  0
  7 18  4  0
  8 27  4  0
  9 13  4  0
  9 23  4  0
 10 11  1  0
 11 14  2  0
 11 27  1  0
 12 19  1  0
 12 24  4  0
 13 24  4  0
 15 18  1  0
 16 25  4  0
 16 26  4  0
 17 20  4  0
 17 28  1  0
 18 21  4  0
 21 26  4  0
 22 26  4  0
M  END
$$$$

 Created by Python create_sdf_string function

 28 30  0  0  0  0  0  0  0  0999 V2000
    5.7174   -8.4529   26.7190 C   0  0  0  0  0  0  0  0  0  0  0  0
    0.3974   -7.0711   27.5149 C   0  0  0  0  0  0  0  0  0  0  0  0
    2.5338   -7.6891   16.0102 C   0  0  0  0  0  0  0  0  0  0  0  0
    4.8690   -7.4380   26.4151 C   0  0  0  0  0  0  0  0  0  0  0  0
    2.3021   -5.6726   26.0378 C   0  0  0  0  0  0  0  0  0  0  0  0
    7.0880   -4.6163   27.0010 C   0  0  0  0  0  0  0  0  0  0  0  0
    8.3117   -4.3698   27.4436 C   0  0  0  0  0  0  0  0  0  0  0  0
    1.1339   -5.0515   26.3541 C   0  0  0  0  0  0  0  0  0  0  0  0
    4.8080   -8.0362   16.7101 C   0  0  0  0  0  0  0  0  0  0  0  0
   -1.2173   -3.9294   26.9717 O   0  0  0  0  0  0  0  0  0  0  0  0
   -1.0025   -5.0942   27.4586 C   0  0  0  0  0  0  0  0  0  0  0  0
    2.2474   -8.9123   16.6273 C   0  0  0  0  0  0  0  0  0  0  0  0
    4.4957   -9.2636   17.3041 C   0  0  0  0  0  0  0  0  0  0  0  0
   -1.8070   -5.6086   28.1920 O   0  0  0  0  0  0  0  0  0  0  0  0
   10.4296   -5.1799   28.3140 C   0  0  0  0  0  0  0  0  0  0  0  0
    6.6017   -5.9004   26.9187 C   0  0  0  0  0  0  0  0  0  0  0  0
    2.4761   -6.9940   26.4111 N   0  0  0  0  0  0  0  0  0  0  0  0
    9.1353   -5.4053   27.8239 C   0  0  0  0  0  0  0  0  0  0  0  0
    0.9922   -9.3232   16.5995 O   0  0  0  0  0  0  0  0  0  0  0  0
    1.5232   -7.6869   27.1182 C   0  0  0  0  0  0  0  0  0  0  0  0
    8.6878   -6.6715   27.7262 N   0  0  0  0  0  0  0  0  0  0  0  0
    6.9911   -8.2423   27.1808 C   0  0  0  0  0  0  0  0  0  0  0  0
    3.8436   -7.2758   16.0578 C   0  0  0  0  0  0  0  0  0  0  0  0
    3.1882   -9.7190   17.2566 C   0  0  0  0  0  0  0  0  0  0  0  0
    5.3488   -6.1737   26.5092 C   0  0  0  0  0  0  0  0  0  0  0  0
    7.4567   -6.9464   27.2858 C   0  0  0  0  0  0  0  0  0  0  0  0
    0.1921   -5.7592   27.1123 C   0  0  0  0  0  0  0  0  0  0  0  0
    3.5517   -7.7407   25.9711 C   0  0  0  0  0  0  0  0  0  0  0  0
  1  4  4  0
  1 22  4  0
  2 20  4  0
  2 27  4  0
  3 12  4  0
  3 23  4  0
  4 25  4  0
  4 28  1  0
  5  8  4  0
  5 17  4  0
  6  7  4  0
  6 16  4  0
  7 18  4  0
  8 27  4  0
  9 13  4  0
  9 23  4  0
 10 11  1  0
 11 14  2  0
 11 27  1  0
 12 19  1  0
 12 24  4  0
 13 24  4  0
 15 18  1  0
 16 25  4  0
 16 26  4  0
 17 20  4  0
 17 28  1  0
 18 21  4  0
 21 26  4  0
 22 26  4  0
M  END
$$$$

 Created by Python create_sdf_string function

 28 30  0  0  0  0  0  0  0  0999 V2000
    5.7174   -8.4529   26.7190 C   0  0  0  0  0  0  0  0  0  0  0  0
    0.3974   -7.0711   27.5149 C   0  0  0  0  0  0  0  0  0  0  0  0
    2.5338   -7.6891   16.0102 C   0  0  0  0  0  0  0  0  0  0  0  0
    4.8690   -7.4380   26.4151 C   0  0  0  0  0  0  0  0  0  0  0  0
    2.3021   -5.6726   26.0378 C   0  0  0  0  0  0  0  0  0  0  0  0
    7.0880   -4.6163   27.0010 C   0  0  0  0  0  0  0  0  0  0  0  0
    8.3117   -4.3698   27.4436 C   0  0  0  0  0  0  0  0  0  0  0  0
    1.1339   -5.0515   26.3541 C   0  0  0  0  0  0  0  0  0  0  0  0
    4.8080   -8.0362   16.7101 C   0  0  0  0  0  0  0  0  0  0  0  0
   -1.2173   -3.9294   26.9717 O   0  0  0  0  0  0  0  0  0  0  0  0
   -1.0025   -5.0942   27.4586 C   0  0  0  0  0  0  0  0  0  0  0  0
    2.2474   -8.9123   16.6273 C   0  0  0  0  0  0  0  0  0  0  0  0
    4.4957   -9.2636   17.3041 C   0  0  0  0  0  0  0  0  0  0  0  0
   -1.8070   -5.6086   28.1920 O   0  0  0  0  0  0  0  0  0  0  0  0
   10.4296   -5.1799   28.3140 C   0  0  0  0  0  0  0  0  0  0  0  0
    6.6017   -5.9004   26.9187 C   0  0  0  0  0  0  0  0  0  0  0  0
    2.4761   -6.9940   26.4111 N   0  0  0  0  0  0  0  0  0  0  0  0
    9.1353   -5.4053   27.8239 C   0  0  0  0  0  0  0  0  0  0  0  0
    0.9922   -9.3232   16.5995 O   0  0  0  0  0  0  0  0  0  0  0  0
    1.5232   -7.6869   27.1182 C   0  0  0  0  0  0  0  0  0  0  0  0
    8.6878   -6.6715   27.7262 N   0  0  0  0  0  0  0  0  0  0  0  0
    6.9911   -8.2423   27.1808 C   0  0  0  0  0  0  0  0  0  0  0  0
    3.8436   -7.2758   16.0578 C   0  0  0  0  0  0  0  0  0  0  0  0
    3.1882   -9.7190   17.2566 C   0  0  0  0  0  0  0  0  0  0  0  0
    5.3488   -6.1737   26.5092 C   0  0  0  0  0  0  0  0  0  0  0  0
    7.4567   -6.9464   27.2858 C   0  0  0  0  0  0  0  0  0  0  0  0
    0.1921   -5.7592   27.1123 C   0  0  0  0  0  0  0  0  0  0  0  0
    3.5517   -7.7407   25.9711 C   0  0  0  0  0  0  0  0  0  0  0  0
  1  4  4  0
  1 22  4  0
  2 20  4  0
  2 27  4  0
  3 12  4  0
  3 23  4  0
  4 25  4  0
  4 28  1  0
  5  8  4  0
  5 17  4  0
  6  7  4  0
  6 16  4  0
  7 18  4  0
  8 27  4  0
  9 13  4  0
  9 23  4  0
 10 11  1  0
 11 14  2  0
 11 27  1  0
 12 19  1  0
 12 24  4  0
 13 24  4  0
 15 18  1  0
 16 25  4  0
 16 26  4  0
 17 20  4  0
 17 28  1  0
 18 21  4  0
 21 26  4  0
 22 26  4  0
M  END
$$$$

 Created by Python create_sdf_string function

 28 30  0  0  0  0  0  0  0  0999 V2000
    5.7174   -8.4529   26.7190 C   0  0  0  0  0  0  0  0  0  0  0  0
    0.3974   -7.0711   27.5149 C   0  0  0  0  0  0  0  0  0  0  0  0
    2.5338   -7.6891   16.0102 C   0  0  0  0  0  0  0  0  0  0  0  0
    4.8690   -7.4380   26.4151 C   0  0  0  0  0  0  0  0  0  0  0  0
    2.3021   -5.6726   26.0378 C   0  0  0  0  0  0  0  0  0  0  0  0
    7.0880   -4.6163   27.0010 C   0  0  0  0  0  0  0  0  0  0  0  0
    8.3117   -4.3698   27.4436 C   0  0  0  0  0  0  0  0  0  0  0  0
    1.1339   -5.0515   26.3541 C   0  0  0  0  0  0  0  0  0  0  0  0
    4.8080   -8.0362   16.7101 C   0  0  0  0  0  0  0  0  0  0  0  0
   -1.2173   -3.9294   26.9717 O   0  0  0  0  0  0  0  0  0  0  0  0
   -1.0025   -5.0942   27.4586 C   0  0  0  0  0  0  0  0  0  0  0  0
    2.2474   -8.9123   16.6273 C   0  0  0  0  0  0  0  0  0  0  0  0
    4.4957   -9.2636   17.3041 C   0  0  0  0  0  0  0  0  0  0  0  0
   -1.8070   -5.6086   28.1920 O   0  0  0  0  0  0  0  0  0  0  0  0
   10.4296   -5.1799   28.3140 C   0  0  0  0  0  0  0  0  0  0  0  0
    6.6017   -5.9004   26.9187 C   0  0  0  0  0  0  0  0  0  0  0  0
    2.4761   -6.9940   26.4111 N   0  0  0  0  0  0  0  0  0  0  0  0
    9.1353   -5.4053   27.8239 C   0  0  0  0  0  0  0  0  0  0  0  0
    0.9922   -9.3232   16.5995 O   0  0  0  0  0  0  0  0  0  0  0  0
    1.5232   -7.6869   27.1182 C   0  0  0  0  0  0  0  0  0  0  0  0
    8.6878   -6.6715   27.7262 N   0  0  0  0  0  0  0  0  0  0  0  0
    6.9911   -8.2423   27.1808 C   0  0  0  0  0  0  0  0  0  0  0  0
    3.8436   -7.2758   16.0578 C   0  0  0  0  0  0  0  0  0  0  0  0
    3.1882   -9.7190   17.2566 C   0  0  0  0  0  0  0  0  0  0  0  0
    5.3488   -6.1737   26.5092 C   0  0  0  0  0  0  0  0  0  0  0  0
    7.4567   -6.9464   27.2858 C   0  0  0  0  0  0  0  0  0  0  0  0
    0.1921   -5.7592   27.1123 C   0  0  0  0  0  0  0  0  0  0  0  0
    3.5517   -7.7407   25.9711 C   0  0  0  0  0  0  0  0  0  0  0  0
  1  4  4  0
  1 22  4  0
  2 20  4  0
  2 27  4  0
  3 12  4  0
  3 23  4  0
  4 25  4  0
  4 28  1  0
  5  8  4  0
  5 17  4  0
  6  7  4  0
  6 16  4  0
  7 18  4  0
  8 27  4  0
  9 13  4  0
  9 23  4  0
 10 11  1  0
 11 14  2  0
 11 27  1  0
 12 19  1  0
 12 24  4  0
 13 24  4  0
 15 18  1  0
 16 25  4  0
 16 26  4  0
 17 20  4  0
 17 28  1  0
 18 21  4  0
 21 26  4  0
 22 26  4  0
M  END
$$$$

 Created by Python create_sdf_string function

 28 30  0  0  0  0  0  0  0  0999 V2000
    5.7174   -8.4529   26.7190 C   0  0  0  0  0  0  0  0  0  0  0  0
    0.3974   -7.0711   27.5149 C   0  0  0  0  0  0  0  0  0  0  0  0
    2.5338   -7.6891   16.0102 C   0  0  0  0  0  0  0  0  0  0  0  0
    4.8690   -7.4380   26.4151 C   0  0  0  0  0  0  0  0  0  0  0  0
    2.3021   -5.6726   26.0378 C   0  0  0  0  0  0  0  0  0  0  0  0
    7.0880   -4.6163   27.0010 C   0  0  0  0  0  0  0  0  0  0  0  0
    8.3117   -4.3698   27.4436 C   0  0  0  0  0  0  0  0  0  0  0  0
    1.1339   -5.0515   26.3541 C   0  0  0  0  0  0  0  0  0  0  0  0
    4.8080   -8.0362   16.7101 C   0  0  0  0  0  0  0  0  0  0  0  0
   -1.2173   -3.9294   26.9717 O   0  0  0  0  0  0  0  0  0  0  0  0
   -1.0025   -5.0942   27.4586 C   0  0  0  0  0  0  0  0  0  0  0  0
    2.2474   -8.9123   16.6273 C   0  0  0  0  0  0  0  0  0  0  0  0
    4.4957   -9.2636   17.3041 C   0  0  0  0  0  0  0  0  0  0  0  0
   -1.8070   -5.6086   28.1920 O   0  0  0  0  0  0  0  0  0  0  0  0
   10.4296   -5.1799   28.3140 C   0  0  0  0  0  0  0  0  0  0  0  0
    6.6017   -5.9004   26.9187 C   0  0  0  0  0  0  0  0  0  0  0  0
    2.4761   -6.9940   26.4111 N   0  0  0  0  0  0  0  0  0  0  0  0
    9.1353   -5.4053   27.8239 C   0  0  0  0  0  0  0  0  0  0  0  0
    0.9922   -9.3232   16.5995 O   0  0  0  0  0  0  0  0  0  0  0  0
    1.5232   -7.6869   27.1182 C   0  0  0  0  0  0  0  0  0  0  0  0
    8.6878   -6.6715   27.7262 N   0  0  0  0  0  0  0  0  0  0  0  0
    6.9911   -8.2423   27.1808 C   0  0  0  0  0  0  0  0  0  0  0  0
    3.8436   -7.2758   16.0578 C   0  0  0  0  0  0  0  0  0  0  0  0
    3.1882   -9.7190   17.2566 C   0  0  0  0  0  0  0  0  0  0  0  0
    5.3488   -6.1737   26.5092 C   0  0  0  0  0  0  0  0  0  0  0  0
    7.4567   -6.9464   27.2858 C   0  0  0  0  0  0  0  0  0  0  0  0
    0.1921   -5.7592   27.1123 C   0  0  0  0  0  0  0  0  0  0  0  0
    3.5517   -7.7407   25.9711 C   0  0  0  0  0  0  0  0  0  0  0  0
  1  4  4  0
  1 22  4  0
  2 20  4  0
  2 27  4  0
  3 12  4  0
  3 23  4  0
  4 25  4  0
  4 28  1  0
  5  8  4  0
  5 17  4  0
  6  7  4  0
  6 16  4  0
  7 18  4  0
  8 27  4  0
  9 13  4  0
  9 23  4  0
 10 11  1  0
 11 14  2  0
 11 27  1  0
 12 19  1  0
 12 24  4  0
 13 24  4  0
 15 18  1  0
 16 25  4  0
 16 26  4  0
 17 20  4  0
 17 28  1  0
 18 21  4  0
 21 26  4  0
 22 26  4  0
M  END
$$$$

 Created by Python create_sdf_string function

 28 30  0  0  0  0  0  0  0  0999 V2000
    5.7174   -8.4529   26.7190 C   0  0  0  0  0  0  0  0  0  0  0  0
    0.3974   -7.0711   27.5149 C   0  0  0  0  0  0  0  0  0  0  0  0
    2.5338   -7.6891   16.0102 C   0  0  0  0  0  0  0  0  0  0  0  0
    4.8690   -7.4380   26.4151 C   0  0  0  0  0  0  0  0  0  0  0  0
    2.3021   -5.6726   26.0378 C   0  0  0  0  0  0  0  0  0  0  0  0
    7.0880   -4.6163   27.0010 C   0  0  0  0  0  0  0  0  0  0  0  0
    8.3117   -4.3698   27.4436 C   0  0  0  0  0  0  0  0  0  0  0  0
    1.1339   -5.0515   26.3541 C   0  0  0  0  0  0  0  0  0  0  0  0
    4.8080   -8.0362   16.7101 C   0  0  0  0  0  0  0  0  0  0  0  0
   -1.2173   -3.9294   26.9717 O   0  0  0  0  0  0  0  0  0  0  0  0
   -1.0025   -5.0942   27.4586 C   0  0  0  0  0  0  0  0  0  0  0  0
    2.2474   -8.9123   16.6273 C   0  0  0  0  0  0  0  0  0  0  0  0
    4.4957   -9.2636   17.3041 C   0  0  0  0  0  0  0  0  0  0  0  0
   -1.8070   -5.6086   28.1920 O   0  0  0  0  0  0  0  0  0  0  0  0
   10.4296   -5.1799   28.3140 C   0  0  0  0  0  0  0  0  0  0  0  0
    6.6017   -5.9004   26.9187 C   0  0  0  0  0  0  0  0  0  0  0  0
    2.4761   -6.9940   26.4111 N   0  0  0  0  0  0  0  0  0  0  0  0
    9.1353   -5.4053   27.8239 C   0  0  0  0  0  0  0  0  0  0  0  0
    0.9922   -9.3232   16.5995 O   0  0  0  0  0  0  0  0  0  0  0  0
    1.5232   -7.6869   27.1182 C   0  0  0  0  0  0  0  0  0  0  0  0
    8.6878   -6.6715   27.7262 N   0  0  0  0  0  0  0  0  0  0  0  0
    6.9911   -8.2423   27.1808 C   0  0  0  0  0  0  0  0  0  0  0  0
    3.8436   -7.2758   16.0578 C   0  0  0  0  0  0  0  0  0  0  0  0
    3.1882   -9.7190   17.2566 C   0  0  0  0  0  0  0  0  0  0  0  0
    5.3488   -6.1737   26.5092 C   0  0  0  0  0  0  0  0  0  0  0  0
    7.4567   -6.9464   27.2858 C   0  0  0  0  0  0  0  0  0  0  0  0
    0.1921   -5.7592   27.1123 C   0  0  0  0  0  0  0  0  0  0  0  0
    3.5517   -7.7407   25.9711 C   0  0  0  0  0  0  0  0  0  0  0  0
  1  4  4  0
  1 22  4  0
  2 20  4  0
  2 27  4  0
  3 12  4  0
  3 23  4  0
  4 25  4  0
  4 28  1  0
  5  8  4  0
  5 17  4  0
  6  7  4  0
  6 16  4  0
  7 18  4  0
  8 27  4  0
  9 13  4  0
  9 23  4  0
 10 11  1  0
 11 14  2  0
 11 27  1  0
 12 19  1  0
 12 24  4  0
 13 24  4  0
 15 18  1  0
 16 25  4  0
 16 26  4  0
 17 20  4  0
 17 28  1  0
 18 21  4  0
 21 26  4  0
 22 26  4  0
M  END
$$$$

 Created by Python create_sdf_string function

 28 30  0  0  0  0  0  0  0  0999 V2000
    5.7174   -8.4529   26.7190 C   0  0  0  0  0  0  0  0  0  0  0  0
    0.3974   -7.0711   27.5149 C   0  0  0  0  0  0  0  0  0  0  0  0
    2.5338   -7.6891   16.0102 C   0  0  0  0  0  0  0  0  0  0  0  0
    4.8690   -7.4380   26.4151 C   0  0  0  0  0  0  0  0  0  0  0  0
    2.3021   -5.6726   26.0378 C   0  0  0  0  0  0  0  0  0  0  0  0
    7.0880   -4.6163   27.0010 C   0  0  0  0  0  0  0  0  0  0  0  0
    8.3117   -4.3698   27.4436 C   0  0  0  0  0  0  0  0  0  0  0  0
    1.1339   -5.0515   26.3541 C   0  0  0  0  0  0  0  0  0  0  0  0
    4.8080   -8.0362   16.7101 C   0  0  0  0  0  0  0  0  0  0  0  0
   -1.2173   -3.9294   26.9717 O   0  0  0  0  0  0  0  0  0  0  0  0
   -1.0025   -5.0942   27.4586 C   0  0  0  0  0  0  0  0  0  0  0  0
    2.2474   -8.9123   16.6273 C   0  0  0  0  0  0  0  0  0  0  0  0
    4.4957   -9.2636   17.3041 C   0  0  0  0  0  0  0  0  0  0  0  0
   -1.8070   -5.6086   28.1920 O   0  0  0  0  0  0  0  0  0  0  0  0
   10.4296   -5.1799   28.3140 C   0  0  0  0  0  0  0  0  0  0  0  0
    6.6017   -5.9004   26.9187 C   0  0  0  0  0  0  0  0  0  0  0  0
    2.4761   -6.9940   26.4111 N   0  0  0  0  0  0  0  0  0  0  0  0
    9.1353   -5.4053   27.8239 C   0  0  0  0  0  0  0  0  0  0  0  0
    0.9922   -9.3232   16.5995 O   0  0  0  0  0  0  0  0  0  0  0  0
    1.5232   -7.6869   27.1182 C   0  0  0  0  0  0  0  0  0  0  0  0
    8.6878   -6.6715   27.7262 N   0  0  0  0  0  0  0  0  0  0  0  0
    6.9911   -8.2423   27.1808 C   0  0  0  0  0  0  0  0  0  0  0  0
    3.8436   -7.2758   16.0578 C   0  0  0  0  0  0  0  0  0  0  0  0
    3.1882   -9.7190   17.2566 C   0  0  0  0  0  0  0  0  0  0  0  0
    5.3488   -6.1737   26.5092 C   0  0  0  0  0  0  0  0  0  0  0  0
    7.4567   -6.9464   27.2858 C   0  0  0  0  0  0  0  0  0  0  0  0
    0.1921   -5.7592   27.1123 C   0  0  0  0  0  0  0  0  0  0  0  0
    3.5517   -7.7407   25.9711 C   0  0  0  0  0  0  0  0  0  0  0  0
  1  4  4  0
  1 22  4  0
  2 20  4  0
  2 27  4  0
  3 12  4  0
  3 23  4  0
  4 25  4  0
  4 28  1  0
  5  8  4  0
  5 17  4  0
  6  7  4  0
  6 16  4  0
  7 18  4  0
  8 27  4  0
  9 13  4  0
  9 23  4  0
 10 11  1  0
 11 14  2  0
 11 27  1  0
 12 19  1  0
 12 24  4  0
 13 24  4  0
 15 18  1  0
 16 25  4  0
 16 26  4  0
 17 20  4  0
 17 28  1  0
 18 21  4  0
 21 26  4  0
 22 26  4  0
M  END
$$$$

 Created by Python create_sdf_string function

 28 30  0  0  0  0  0  0  0  0999 V2000
    5.7174   -8.4529   26.7190 C   0  0  0  0  0  0  0  0  0  0  0  0
    0.3974   -7.0711   27.5149 C   0  0  0  0  0  0  0  0  0  0  0  0
    2.5338   -7.6891   16.0102 C   0  0  0  0  0  0  0  0  0  0  0  0
    4.8690   -7.4380   26.4151 C   0  0  0  0  0  0  0  0  0  0  0  0
    2.3021   -5.6726   26.0378 C   0  0  0  0  0  0  0  0  0  0  0  0
    7.0880   -4.6163   27.0010 C   0  0  0  0  0  0  0  0  0  0  0  0
    8.3117   -4.3698   27.4436 C   0  0  0  0  0  0  0  0  0  0  0  0
    1.1339   -5.0515   26.3541 C   0  0  0  0  0  0  0  0  0  0  0  0
    4.8080   -8.0362   16.7101 C   0  0  0  0  0  0  0  0  0  0  0  0
   -1.2173   -3.9294   26.9717 O   0  0  0  0  0  0  0  0  0  0  0  0
   -1.0025   -5.0942   27.4586 C   0  0  0  0  0  0  0  0  0  0  0  0
    2.2474   -8.9123   16.6273 C   0  0  0  0  0  0  0  0  0  0  0  0
    4.4957   -9.2636   17.3041 C   0  0  0  0  0  0  0  0  0  0  0  0
   -1.8070   -5.6086   28.1920 O   0  0  0  0  0  0  0  0  0  0  0  0
   10.4296   -5.1799   28.3140 C   0  0  0  0  0  0  0  0  0  0  0  0
    6.6017   -5.9004   26.9187 C   0  0  0  0  0  0  0  0  0  0  0  0
    2.4761   -6.9940   26.4111 N   0  0  0  0  0  0  0  0  0  0  0  0
    9.1353   -5.4053   27.8239 C   0  0  0  0  0  0  0  0  0  0  0  0
    0.9922   -9.3232   16.5995 O   0  0  0  0  0  0  0  0  0  0  0  0
    1.5232   -7.6869   27.1182 C   0  0  0  0  0  0  0  0  0  0  0  0
    8.6878   -6.6715   27.7262 N   0  0  0  0  0  0  0  0  0  0  0  0
    6.9911   -8.2423   27.1808 C   0  0  0  0  0  0  0  0  0  0  0  0
    3.8436   -7.2758   16.0578 C   0  0  0  0  0  0  0  0  0  0  0  0
    3.1882   -9.7190   17.2566 C   0  0  0  0  0  0  0  0  0  0  0  0
    5.3488   -6.1737   26.5092 C   0  0  0  0  0  0  0  0  0  0  0  0
    7.4567   -6.9464   27.2858 C   0  0  0  0  0  0  0  0  0  0  0  0
    0.1921   -5.7592   27.1123 C   0  0  0  0  0  0  0  0  0  0  0  0
    3.5517   -7.7407   25.9711 C   0  0  0  0  0  0  0  0  0  0  0  0
  1  4  4  0
  1 22  4  0
  2 20  4  0
  2 27  4  0
  3 12  4  0
  3 23  4  0
  4 25  4  0
  4 28  1  0
  5  8  4  0
  5 17  4  0
  6  7  4  0
  6 16  4  0
  7 18  4  0
  8 27  4  0
  9 13  4  0
  9 23  4  0
 10 11  1  0
 11 14  2  0
 11 27  1  0
 12 19  1  0
 12 24  4  0
 13 24  4  0
 15 18  1  0
 16 25  4  0
 16 26  4  0
 17 20  4  0
 17 28  1  0
 18 21  4  0
 21 26  4  0
 22 26  4  0
M  END
$$$$

 Created by Python create_sdf_string function

 28 30  0  0  0  0  0  0  0  0999 V2000
    5.7174   -8.4529   26.7190 C   0  0  0  0  0  0  0  0  0  0  0  0
    0.3974   -7.0711   27.5149 C   0  0  0  0  0  0  0  0  0  0  0  0
    2.5338   -7.6891   16.0102 C   0  0  0  0  0  0  0  0  0  0  0  0
    4.8690   -7.4380   26.4151 C   0  0  0  0  0  0  0  0  0  0  0  0
    2.3021   -5.6726   26.0378 C   0  0  0  0  0  0  0  0  0  0  0  0
    7.0880   -4.6163   27.0010 C   0  0  0  0  0  0  0  0  0  0  0  0
    8.3117   -4.3698   27.4436 C   0  0  0  0  0  0  0  0  0  0  0  0
    1.1339   -5.0515   26.3541 C   0  0  0  0  0  0  0  0  0  0  0  0
    4.8080   -8.0362   16.7101 C   0  0  0  0  0  0  0  0  0  0  0  0
   -1.2173   -3.9294   26.9717 O   0  0  0  0  0  0  0  0  0  0  0  0
   -1.0025   -5.0942   27.4586 C   0  0  0  0  0  0  0  0  0  0  0  0
    2.2474   -8.9123   16.6273 C   0  0  0  0  0  0  0  0  0  0  0  0
    4.4957   -9.2636   17.3041 C   0  0  0  0  0  0  0  0  0  0  0  0
   -1.8070   -5.6086   28.1920 O   0  0  0  0  0  0  0  0  0  0  0  0
   10.4296   -5.1799   28.3140 C   0  0  0  0  0  0  0  0  0  0  0  0
    6.6017   -5.9004   26.9187 C   0  0  0  0  0  0  0  0  0  0  0  0
    2.4761   -6.9940   26.4111 N   0  0  0  0  0  0  0  0  0  0  0  0
    9.1353   -5.4053   27.8239 C   0  0  0  0  0  0  0  0  0  0  0  0
    0.9922   -9.3232   16.5995 O   0  0  0  0  0  0  0  0  0  0  0  0
    1.5232   -7.6869   27.1182 C   0  0  0  0  0  0  0  0  0  0  0  0
    8.6878   -6.6715   27.7262 N   0  0  0  0  0  0  0  0  0  0  0  0
    6.9911   -8.2423   27.1808 C   0  0  0  0  0  0  0  0  0  0  0  0
    3.8436   -7.2758   16.0578 C   0  0  0  0  0  0  0  0  0  0  0  0
    3.1882   -9.7190   17.2566 C   0  0  0  0  0  0  0  0  0  0  0  0
    5.3488   -6.1737   26.5092 C   0  0  0  0  0  0  0  0  0  0  0  0
    7.4567   -6.9464   27.2858 C   0  0  0  0  0  0  0  0  0  0  0  0
    0.1921   -5.7592   27.1123 C   0  0  0  0  0  0  0  0  0  0  0  0
    3.5517   -7.7407   25.9711 C   0  0  0  0  0  0  0  0  0  0  0  0
  1  4  4  0
  1 22  4  0
  2 20  4  0
  2 27  4  0
  3 12  4  0
  3 23  4  0
  4 25  4  0
  4 28  1  0
  5  8  4  0
  5 17  4  0
  6  7  4  0
  6 16  4  0
  7 18  4  0
  8 27  4  0
  9 13  4  0
  9 23  4  0
 10 11  1  0
 11 14  2  0
 11 27  1  0
 12 19  1  0
 12 24  4  0
 13 24  4  0
 15 18  1  0
 16 25  4  0
 16 26  4  0
 17 20  4  0
 17 28  1  0
 18 21  4  0
 21 26  4  0
 22 26  4  0
M  END
$$$$

 Created by Python create_sdf_string function

 28 30  0  0  0  0  0  0  0  0999 V2000
    5.7174   -8.4529   26.7190 C   0  0  0  0  0  0  0  0  0  0  0  0
    0.3974   -7.0711   27.5149 C   0  0  0  0  0  0  0  0  0  0  0  0
    2.5338   -7.6891   16.0102 C   0  0  0  0  0  0  0  0  0  0  0  0
    4.8690   -7.4380   26.4151 C   0  0  0  0  0  0  0  0  0  0  0  0
    2.3021   -5.6726   26.0378 C   0  0  0  0  0  0  0  0  0  0  0  0
    7.0880   -4.6163   27.0010 C   0  0  0  0  0  0  0  0  0  0  0  0
    8.3117   -4.3698   27.4436 C   0  0  0  0  0  0  0  0  0  0  0  0
    1.1339   -5.0515   26.3541 C   0  0  0  0  0  0  0  0  0  0  0  0
    4.8080   -8.0362   16.7101 C   0  0  0  0  0  0  0  0  0  0  0  0
   -1.2173   -3.9294   26.9717 O   0  0  0  0  0  0  0  0  0  0  0  0
   -1.0025   -5.0942   27.4586 C   0  0  0  0  0  0  0  0  0  0  0  0
    2.2474   -8.9123   16.6273 C   0  0  0  0  0  0  0  0  0  0  0  0
    4.4957   -9.2636   17.3041 C   0  0  0  0  0  0  0  0  0  0  0  0
   -1.8070   -5.6086   28.1920 O   0  0  0  0  0  0  0  0  0  0  0  0
   10.4296   -5.1799   28.3140 C   0  0  0  0  0  0  0  0  0  0  0  0
    6.6017   -5.9004   26.9187 C   0  0  0  0  0  0  0  0  0  0  0  0
    2.4761   -6.9940   26.4111 N   0  0  0  0  0  0  0  0  0  0  0  0
    9.1353   -5.4053   27.8239 C   0  0  0  0  0  0  0  0  0  0  0  0
    0.9922   -9.3232   16.5995 O   0  0  0  0  0  0  0  0  0  0  0  0
    1.5232   -7.6869   27.1182 C   0  0  0  0  0  0  0  0  0  0  0  0
    8.6878   -6.6715   27.7262 N   0  0  0  0  0  0  0  0  0  0  0  0
    6.9911   -8.2423   27.1808 C   0  0  0  0  0  0  0  0  0  0  0  0
    3.8436   -7.2758   16.0578 C   0  0  0  0  0  0  0  0  0  0  0  0
    3.1882   -9.7190   17.2566 C   0  0  0  0  0  0  0  0  0  0  0  0
    5.3488   -6.1737   26.5092 C   0  0  0  0  0  0  0  0  0  0  0  0
    7.4567   -6.9464   27.2858 C   0  0  0  0  0  0  0  0  0  0  0  0
    0.1921   -5.7592   27.1123 C   0  0  0  0  0  0  0  0  0  0  0  0
    3.5517   -7.7407   25.9711 C   0  0  0  0  0  0  0  0  0  0  0  0
  1  4  4  0
  1 22  4  0
  2 20  4  0
  2 27  4  0
  3 12  4  0
  3 23  4  0
  4 25  4  0
  4 28  1  0
  5  8  4  0
  5 17  4  0
  6  7  4  0
  6 16  4  0
  7 18  4  0
  8 27  4  0
  9 13  4  0
  9 23  4  0
 10 11  1  0
 11 14  2  0
 11 27  1  0
 12 19  1  0
 12 24  4  0
 13 24  4  0
 15 18  1  0
 16 25  4  0
 16 26  4  0
 17 20  4  0
 17 28  1  0
 18 21  4  0
 21 26  4  0
 22 26  4  0
M  END
$$$$

 Created by Python create_sdf_string function

 28 30  0  0  0  0  0  0  0  0999 V2000
    5.7174   -8.4529   26.7190 C   0  0  0  0  0  0  0  0  0  0  0  0
    0.3974   -7.0711   27.5149 C   0  0  0  0  0  0  0  0  0  0  0  0
    2.5338   -7.6891   16.0102 C   0  0  0  0  0  0  0  0  0  0  0  0
    4.8690   -7.4380   26.4151 C   0  0  0  0  0  0  0  0  0  0  0  0
    2.3021   -5.6726   26.0378 C   0  0  0  0  0  0  0  0  0  0  0  0
    7.0880   -4.6163   27.0010 C   0  0  0  0  0  0  0  0  0  0  0  0
    8.3117   -4.3698   27.4436 C   0  0  0  0  0  0  0  0  0  0  0  0
    1.1339   -5.0515   26.3541 C   0  0  0  0  0  0  0  0  0  0  0  0
    4.8080   -8.0362   16.7101 C   0  0  0  0  0  0  0  0  0  0  0  0
   -1.2173   -3.9294   26.9717 O   0  0  0  0  0  0  0  0  0  0  0  0
   -1.0025   -5.0942   27.4586 C   0  0  0  0  0  0  0  0  0  0  0  0
    2.2474   -8.9123   16.6273 C   0  0  0  0  0  0  0  0  0  0  0  0
    4.4957   -9.2636   17.3041 C   0  0  0  0  0  0  0  0  0  0  0  0
   -1.8070   -5.6086   28.1920 O   0  0  0  0  0  0  0  0  0  0  0  0
   10.4296   -5.1799   28.3140 C   0  0  0  0  0  0  0  0  0  0  0  0
    6.6017   -5.9004   26.9187 C   0  0  0  0  0  0  0  0  0  0  0  0
    2.4761   -6.9940   26.4111 N   0  0  0  0  0  0  0  0  0  0  0  0
    9.1353   -5.4053   27.8239 C   0  0  0  0  0  0  0  0  0  0  0  0
    0.9922   -9.3232   16.5995 O   0  0  0  0  0  0  0  0  0  0  0  0
    1.5232   -7.6869   27.1182 C   0  0  0  0  0  0  0  0  0  0  0  0
    8.6878   -6.6715   27.7262 N   0  0  0  0  0  0  0  0  0  0  0  0
    6.9911   -8.2423   27.1808 C   0  0  0  0  0  0  0  0  0  0  0  0
    3.8436   -7.2758   16.0578 C   0  0  0  0  0  0  0  0  0  0  0  0
    3.1882   -9.7190   17.2566 C   0  0  0  0  0  0  0  0  0  0  0  0
    5.3488   -6.1737   26.5092 C   0  0  0  0  0  0  0  0  0  0  0  0
    7.4567   -6.9464   27.2858 C   0  0  0  0  0  0  0  0  0  0  0  0
    0.1921   -5.7592   27.1123 C   0  0  0  0  0  0  0  0  0  0  0  0
    3.5517   -7.7407   25.9711 C   0  0  0  0  0  0  0  0  0  0  0  0
  1  4  4  0
  1 22  4  0
  2 20  4  0
  2 27  4  0
  3 12  4  0
  3 23  4  0
  4 25  4  0
  4 28  1  0
  5  8  4  0
  5 17  4  0
  6  7  4  0
  6 16  4  0
  7 18  4  0
  8 27  4  0
  9 13  4  0
  9 23  4  0
 10 11  1  0
 11 14  2  0
 11 27  1  0
 12 19  1  0
 12 24  4  0
 13 24  4  0
 15 18  1  0
 16 25  4  0
 16 26  4  0
 17 20  4  0
 17 28  1  0
 18 21  4  0
 21 26  4  0
 22 26  4  0
M  END
$$$$

 Created by Python create_sdf_string function

 28 30  0  0  0  0  0  0  0  0999 V2000
    5.7174   -8.4529   26.7190 C   0  0  0  0  0  0  0  0  0  0  0  0
    0.3974   -7.0711   27.5149 C   0  0  0  0  0  0  0  0  0  0  0  0
    2.5338   -7.6891   16.0102 C   0  0  0  0  0  0  0  0  0  0  0  0
    4.8690   -7.4380   26.4151 C   0  0  0  0  0  0  0  0  0  0  0  0
    2.3021   -5.6726   26.0378 C   0  0  0  0  0  0  0  0  0  0  0  0
    7.0880   -4.6163   27.0010 C   0  0  0  0  0  0  0  0  0  0  0  0
    8.3117   -4.3698   27.4436 C   0  0  0  0  0  0  0  0  0  0  0  0
    1.1339   -5.0515   26.3541 C   0  0  0  0  0  0  0  0  0  0  0  0
    4.8080   -8.0362   16.7101 C   0  0  0  0  0  0  0  0  0  0  0  0
   -1.2173   -3.9294   26.9717 O   0  0  0  0  0  0  0  0  0  0  0  0
   -1.0025   -5.0942   27.4586 C   0  0  0  0  0  0  0  0  0  0  0  0
    2.2474   -8.9123   16.6273 C   0  0  0  0  0  0  0  0  0  0  0  0
    4.4957   -9.2636   17.3041 C   0  0  0  0  0  0  0  0  0  0  0  0
   -1.8070   -5.6086   28.1920 O   0  0  0  0  0  0  0  0  0  0  0  0
   10.4296   -5.1799   28.3140 C   0  0  0  0  0  0  0  0  0  0  0  0
    6.6017   -5.9004   26.9187 C   0  0  0  0  0  0  0  0  0  0  0  0
    2.4761   -6.9940   26.4111 N   0  0  0  0  0  0  0  0  0  0  0  0
    9.1353   -5.4053   27.8239 C   0  0  0  0  0  0  0  0  0  0  0  0
    0.9922   -9.3232   16.5995 O   0  0  0  0  0  0  0  0  0  0  0  0
    1.5232   -7.6869   27.1182 C   0  0  0  0  0  0  0  0  0  0  0  0
    8.6878   -6.6715   27.7262 N   0  0  0  0  0  0  0  0  0  0  0  0
    6.9911   -8.2423   27.1808 C   0  0  0  0  0  0  0  0  0  0  0  0
    3.8436   -7.2758   16.0578 C   0  0  0  0  0  0  0  0  0  0  0  0
    3.1882   -9.7190   17.2566 C   0  0  0  0  0  0  0  0  0  0  0  0
    5.3488   -6.1737   26.5092 C   0  0  0  0  0  0  0  0  0  0  0  0
    7.4567   -6.9464   27.2858 C   0  0  0  0  0  0  0  0  0  0  0  0
    0.1921   -5.7592   27.1123 C   0  0  0  0  0  0  0  0  0  0  0  0
    3.5517   -7.7407   25.9711 C   0  0  0  0  0  0  0  0  0  0  0  0
  1  4  4  0
  1 22  4  0
  2 20  4  0
  2 27  4  0
  3 12  4  0
  3 23  4  0
  4 25  4  0
  4 28  1  0
  5  8  4  0
  5 17  4  0
  6  7  4  0
  6 16  4  0
  7 18  4  0
  8 27  4  0
  9 13  4  0
  9 23  4  0
 10 11  1  0
 11 14  2  0
 11 27  1  0
 12 19  1  0
 12 24  4  0
 13 24  4  0
 15 18  1  0
 16 25  4  0
 16 26  4  0
 17 20  4  0
 17 28  1  0
 18 21  4  0
 21 26  4  0
 22 26  4  0
M  END
$$$$

 Created by Python create_sdf_string function

 28 30  0  0  0  0  0  0  0  0999 V2000
    5.7174   -8.4529   26.7190 C   0  0  0  0  0  0  0  0  0  0  0  0
    0.3974   -7.0711   27.5149 C   0  0  0  0  0  0  0  0  0  0  0  0
    2.5338   -7.6891   16.0102 C   0  0  0  0  0  0  0  0  0  0  0  0
    4.8690   -7.4380   26.4151 C   0  0  0  0  0  0  0  0  0  0  0  0
    2.3021   -5.6726   26.0378 C   0  0  0  0  0  0  0  0  0  0  0  0
    7.0880   -4.6163   27.0010 C   0  0  0  0  0  0  0  0  0  0  0  0
    8.3117   -4.3698   27.4436 C   0  0  0  0  0  0  0  0  0  0  0  0
    1.1339   -5.0515   26.3541 C   0  0  0  0  0  0  0  0  0  0  0  0
    4.8080   -8.0362   16.7101 C   0  0  0  0  0  0  0  0  0  0  0  0
   -1.2173   -3.9294   26.9717 O   0  0  0  0  0  0  0  0  0  0  0  0
   -1.0025   -5.0942   27.4586 C   0  0  0  0  0  0  0  0  0  0  0  0
    2.2474   -8.9123   16.6273 C   0  0  0  0  0  0  0  0  0  0  0  0
    4.4957   -9.2636   17.3041 C   0  0  0  0  0  0  0  0  0  0  0  0
   -1.8070   -5.6086   28.1920 O   0  0  0  0  0  0  0  0  0  0  0  0
   10.4296   -5.1799   28.3140 C   0  0  0  0  0  0  0  0  0  0  0  0
    6.6017   -5.9004   26.9187 C   0  0  0  0  0  0  0  0  0  0  0  0
    2.4761   -6.9940   26.4111 N   0  0  0  0  0  0  0  0  0  0  0  0
    9.1353   -5.4053   27.8239 C   0  0  0  0  0  0  0  0  0  0  0  0
    0.9922   -9.3232   16.5995 O   0  0  0  0  0  0  0  0  0  0  0  0
    1.5232   -7.6869   27.1182 C   0  0  0  0  0  0  0  0  0  0  0  0
    8.6878   -6.6715   27.7262 N   0  0  0  0  0  0  0  0  0  0  0  0
    6.9911   -8.2423   27.1808 C   0  0  0  0  0  0  0  0  0  0  0  0
    3.8436   -7.2758   16.0578 C   0  0  0  0  0  0  0  0  0  0  0  0
    3.1882   -9.7190   17.2566 C   0  0  0  0  0  0  0  0  0  0  0  0
    5.3488   -6.1737   26.5092 C   0  0  0  0  0  0  0  0  0  0  0  0
    7.4567   -6.9464   27.2858 C   0  0  0  0  0  0  0  0  0  0  0  0
    0.1921   -5.7592   27.1123 C   0  0  0  0  0  0  0  0  0  0  0  0
    3.5517   -7.7407   25.9711 C   0  0  0  0  0  0  0  0  0  0  0  0
  1  4  4  0
  1 22  4  0
  2 20  4  0
  2 27  4  0
  3 12  4  0
  3 23  4  0
  4 25  4  0
  4 28  1  0
  5  8  4  0
  5 17  4  0
  6  7  4  0
  6 16  4  0
  7 18  4  0
  8 27  4  0
  9 13  4  0
  9 23  4  0
 10 11  1  0
 11 14  2  0
 11 27  1  0
 12 19  1  0
 12 24  4  0
 13 24  4  0
 15 18  1  0
 16 25  4  0
 16 26  4  0
 17 20  4  0
 17 28  1  0
 18 21  4  0
 21 26  4  0
 22 26  4  0
M  END
$$$$

 Created by Python create_sdf_string function

 28 30  0  0  0  0  0  0  0  0999 V2000
    5.7174   -8.4529   26.7190 C   0  0  0  0  0  0  0  0  0  0  0  0
    0.3974   -7.0711   27.5149 C   0  0  0  0  0  0  0  0  0  0  0  0
    2.5338   -7.6891   16.0102 C   0  0  0  0  0  0  0  0  0  0  0  0
    4.8690   -7.4380   26.4151 C   0  0  0  0  0  0  0  0  0  0  0  0
    2.3021   -5.6726   26.0378 C   0  0  0  0  0  0  0  0  0  0  0  0
    7.0880   -4.6163   27.0010 C   0  0  0  0  0  0  0  0  0  0  0  0
    8.3117   -4.3698   27.4436 C   0  0  0  0  0  0  0  0  0  0  0  0
    1.1339   -5.0515   26.3541 C   0  0  0  0  0  0  0  0  0  0  0  0
    4.8080   -8.0362   16.7101 C   0  0  0  0  0  0  0  0  0  0  0  0
   -1.2173   -3.9294   26.9717 O   0  0  0  0  0  0  0  0  0  0  0  0
   -1.0025   -5.0942   27.4586 C   0  0  0  0  0  0  0  0  0  0  0  0
    2.2474   -8.9123   16.6273 C   0  0  0  0  0  0  0  0  0  0  0  0
    4.4957   -9.2636   17.3041 C   0  0  0  0  0  0  0  0  0  0  0  0
   -1.8070   -5.6086   28.1920 O   0  0  0  0  0  0  0  0  0  0  0  0
   10.4296   -5.1799   28.3140 C   0  0  0  0  0  0  0  0  0  0  0  0
    6.6017   -5.9004   26.9187 C   0  0  0  0  0  0  0  0  0  0  0  0
    2.4761   -6.9940   26.4111 N   0  0  0  0  0  0  0  0  0  0  0  0
    9.1353   -5.4053   27.8239 C   0  0  0  0  0  0  0  0  0  0  0  0
    0.9922   -9.3232   16.5995 O   0  0  0  0  0  0  0  0  0  0  0  0
    1.5232   -7.6869   27.1182 C   0  0  0  0  0  0  0  0  0  0  0  0
    8.6878   -6.6715   27.7262 N   0  0  0  0  0  0  0  0  0  0  0  0
    6.9911   -8.2423   27.1808 C   0  0  0  0  0  0  0  0  0  0  0  0
    3.8436   -7.2758   16.0578 C   0  0  0  0  0  0  0  0  0  0  0  0
    3.1882   -9.7190   17.2566 C   0  0  0  0  0  0  0  0  0  0  0  0
    5.3488   -6.1737   26.5092 C   0  0  0  0  0  0  0  0  0  0  0  0
    7.4567   -6.9464   27.2858 C   0  0  0  0  0  0  0  0  0  0  0  0
    0.1921   -5.7592   27.1123 C   0  0  0  0  0  0  0  0  0  0  0  0
    3.5517   -7.7407   25.9711 C   0  0  0  0  0  0  0  0  0  0  0  0
  1  4  4  0
  1 22  4  0
  2 20  4  0
  2 27  4  0
  3 12  4  0
  3 23  4  0
  4 25  4  0
  4 28  1  0
  5  8  4  0
  5 17  4  0
  6  7  4  0
  6 16  4  0
  7 18  4  0
  8 27  4  0
  9 13  4  0
  9 23  4  0
 10 11  1  0
 11 14  2  0
 11 27  1  0
 12 19  1  0
 12 24  4  0
 13 24  4  0
 15 18  1  0
 16 25  4  0
 16 26  4  0
 17 20  4  0
 17 28  1  0
 18 21  4  0
 21 26  4  0
 22 26  4  0
M  END
$$$$

 Created by Python create_sdf_string function

 28 30  0  0  0  0  0  0  0  0999 V2000
    5.7174   -8.4529   26.7190 C   0  0  0  0  0  0  0  0  0  0  0  0
    0.3974   -7.0711   27.5149 C   0  0  0  0  0  0  0  0  0  0  0  0
    2.5338   -7.6891   16.0102 C   0  0  0  0  0  0  0  0  0  0  0  0
    4.8690   -7.4380   26.4151 C   0  0  0  0  0  0  0  0  0  0  0  0
    2.3021   -5.6726   26.0378 C   0  0  0  0  0  0  0  0  0  0  0  0
    7.0880   -4.6163   27.0010 C   0  0  0  0  0  0  0  0  0  0  0  0
    8.3117   -4.3698   27.4436 C   0  0  0  0  0  0  0  0  0  0  0  0
    1.1339   -5.0515   26.3541 C   0  0  0  0  0  0  0  0  0  0  0  0
    4.8080   -8.0362   16.7101 C   0  0  0  0  0  0  0  0  0  0  0  0
   -1.2173   -3.9294   26.9717 O   0  0  0  0  0  0  0  0  0  0  0  0
   -1.0025   -5.0942   27.4586 C   0  0  0  0  0  0  0  0  0  0  0  0
    2.2474   -8.9123   16.6273 C   0  0  0  0  0  0  0  0  0  0  0  0
    4.4957   -9.2636   17.3041 C   0  0  0  0  0  0  0  0  0  0  0  0
   -1.8070   -5.6086   28.1920 O   0  0  0  0  0  0  0  0  0  0  0  0
   10.4296   -5.1799   28.3140 C   0  0  0  0  0  0  0  0  0  0  0  0
    6.6017   -5.9004   26.9187 C   0  0  0  0  0  0  0  0  0  0  0  0
    2.4761   -6.9940   26.4111 N   0  0  0  0  0  0  0  0  0  0  0  0
    9.1353   -5.4053   27.8239 C   0  0  0  0  0  0  0  0  0  0  0  0
    0.9922   -9.3232   16.5995 O   0  0  0  0  0  0  0  0  0  0  0  0
    1.5232   -7.6869   27.1182 C   0  0  0  0  0  0  0  0  0  0  0  0
    8.6878   -6.6715   27.7262 N   0  0  0  0  0  0  0  0  0  0  0  0
    6.9911   -8.2423   27.1808 C   0  0  0  0  0  0  0  0  0  0  0  0
    3.8436   -7.2758   16.0578 C   0  0  0  0  0  0  0  0  0  0  0  0
    3.1882   -9.7190   17.2566 C   0  0  0  0  0  0  0  0  0  0  0  0
    5.3488   -6.1737   26.5092 C   0  0  0  0  0  0  0  0  0  0  0  0
    7.4567   -6.9464   27.2858 C   0  0  0  0  0  0  0  0  0  0  0  0
    0.1921   -5.7592   27.1123 C   0  0  0  0  0  0  0  0  0  0  0  0
    3.5517   -7.7407   25.9711 C   0  0  0  0  0  0  0  0  0  0  0  0
  1  4  4  0
  1 22  4  0
  2 20  4  0
  2 27  4  0
  3 12  4  0
  3 23  4  0
  4 25  4  0
  4 28  1  0
  5  8  4  0
  5 17  4  0
  6  7  4  0
  6 16  4  0
  7 18  4  0
  8 27  4  0
  9 13  4  0
  9 23  4  0
 10 11  1  0
 11 14  2  0
 11 27  1  0
 12 19  1  0
 12 24  4  0
 13 24  4  0
 15 18  1  0
 16 25  4  0
 16 26  4  0
 17 20  4  0
 17 28  1  0
 18 21  4  0
 21 26  4  0
 22 26  4  0
M  END
$$$$

 Created by Python create_sdf_string function

 28 30  0  0  0  0  0  0  0  0999 V2000
    5.7174   -8.4529   26.7190 C   0  0  0  0  0  0  0  0  0  0  0  0
    0.3974   -7.0711   27.5149 C   0  0  0  0  0  0  0  0  0  0  0  0
    2.5338   -7.6891   16.0102 C   0  0  0  0  0  0  0  0  0  0  0  0
    4.8690   -7.4380   26.4151 C   0  0  0  0  0  0  0  0  0  0  0  0
    2.3021   -5.6726   26.0378 C   0  0  0  0  0  0  0  0  0  0  0  0
    7.0880   -4.6163   27.0010 C   0  0  0  0  0  0  0  0  0  0  0  0
    8.3117   -4.3698   27.4436 C   0  0  0  0  0  0  0  0  0  0  0  0
    1.1339   -5.0515   26.3541 C   0  0  0  0  0  0  0  0  0  0  0  0
    4.8080   -8.0362   16.7101 C   0  0  0  0  0  0  0  0  0  0  0  0
   -1.2173   -3.9294   26.9717 O   0  0  0  0  0  0  0  0  0  0  0  0
   -1.0025   -5.0942   27.4586 C   0  0  0  0  0  0  0  0  0  0  0  0
    2.2474   -8.9123   16.6273 C   0  0  0  0  0  0  0  0  0  0  0  0
    4.4957   -9.2636   17.3041 C   0  0  0  0  0  0  0  0  0  0  0  0
   -1.8070   -5.6086   28.1920 O   0  0  0  0  0  0  0  0  0  0  0  0
   10.4296   -5.1799   28.3140 C   0  0  0  0  0  0  0  0  0  0  0  0
    6.6017   -5.9004   26.9187 C   0  0  0  0  0  0  0  0  0  0  0  0
    2.4761   -6.9940   26.4111 N   0  0  0  0  0  0  0  0  0  0  0  0
    9.1353   -5.4053   27.8239 C   0  0  0  0  0  0  0  0  0  0  0  0
    0.9922   -9.3232   16.5995 O   0  0  0  0  0  0  0  0  0  0  0  0
    1.5232   -7.6869   27.1182 C   0  0  0  0  0  0  0  0  0  0  0  0
    8.6878   -6.6715   27.7262 N   0  0  0  0  0  0  0  0  0  0  0  0
    6.9911   -8.2423   27.1808 C   0  0  0  0  0  0  0  0  0  0  0  0
    3.8436   -7.2758   16.0578 C   0  0  0  0  0  0  0  0  0  0  0  0
    3.1882   -9.7190   17.2566 C   0  0  0  0  0  0  0  0  0  0  0  0
    5.3488   -6.1737   26.5092 C   0  0  0  0  0  0  0  0  0  0  0  0
    7.4567   -6.9464   27.2858 C   0  0  0  0  0  0  0  0  0  0  0  0
    0.1921   -5.7592   27.1123 C   0  0  0  0  0  0  0  0  0  0  0  0
    3.5517   -7.7407   25.9711 C   0  0  0  0  0  0  0  0  0  0  0  0
  1  4  4  0
  1 22  4  0
  2 20  4  0
  2 27  4  0
  3 12  4  0
  3 23  4  0
  4 25  4  0
  4 28  1  0
  5  8  4  0
  5 17  4  0
  6  7  4  0
  6 16  4  0
  7 18  4  0
  8 27  4  0
  9 13  4  0
  9 23  4  0
 10 11  1  0
 11 14  2  0
 11 27  1  0
 12 19  1  0
 12 24  4  0
 13 24  4  0
 15 18  1  0
 16 25  4  0
 16 26  4  0
 17 20  4  0
 17 28  1  0
 18 21  4  0
 21 26  4  0
 22 26  4  0
M  END
$$$$

 Created by Python create_sdf_string function

 28 30  0  0  0  0  0  0  0  0999 V2000
    5.7174   -8.4529   26.7190 C   0  0  0  0  0  0  0  0  0  0  0  0
    0.3974   -7.0711   27.5149 C   0  0  0  0  0  0  0  0  0  0  0  0
    2.5338   -7.6891   16.0102 C   0  0  0  0  0  0  0  0  0  0  0  0
    4.8690   -7.4380   26.4151 C   0  0  0  0  0  0  0  0  0  0  0  0
    2.3021   -5.6726   26.0378 C   0  0  0  0  0  0  0  0  0  0  0  0
    7.0880   -4.6163   27.0010 C   0  0  0  0  0  0  0  0  0  0  0  0
    8.3117   -4.3698   27.4436 C   0  0  0  0  0  0  0  0  0  0  0  0
    1.1339   -5.0515   26.3541 C   0  0  0  0  0  0  0  0  0  0  0  0
    4.8080   -8.0362   16.7101 C   0  0  0  0  0  0  0  0  0  0  0  0
   -1.2173   -3.9294   26.9717 O   0  0  0  0  0  0  0  0  0  0  0  0
   -1.0025   -5.0942   27.4586 C   0  0  0  0  0  0  0  0  0  0  0  0
    2.2474   -8.9123   16.6273 C   0  0  0  0  0  0  0  0  0  0  0  0
    4.4957   -9.2636   17.3041 C   0  0  0  0  0  0  0  0  0  0  0  0
   -1.8070   -5.6086   28.1920 O   0  0  0  0  0  0  0  0  0  0  0  0
   10.4296   -5.1799   28.3140 C   0  0  0  0  0  0  0  0  0  0  0  0
    6.6017   -5.9004   26.9187 C   0  0  0  0  0  0  0  0  0  0  0  0
    2.4761   -6.9940   26.4111 N   0  0  0  0  0  0  0  0  0  0  0  0
    9.1353   -5.4053   27.8239 C   0  0  0  0  0  0  0  0  0  0  0  0
    0.9922   -9.3232   16.5995 O   0  0  0  0  0  0  0  0  0  0  0  0
    1.5232   -7.6869   27.1182 C   0  0  0  0  0  0  0  0  0  0  0  0
    8.6878   -6.6715   27.7262 N   0  0  0  0  0  0  0  0  0  0  0  0
    6.9911   -8.2423   27.1808 C   0  0  0  0  0  0  0  0  0  0  0  0
    3.8436   -7.2758   16.0578 C   0  0  0  0  0  0  0  0  0  0  0  0
    3.1882   -9.7190   17.2566 C   0  0  0  0  0  0  0  0  0  0  0  0
    5.3488   -6.1737   26.5092 C   0  0  0  0  0  0  0  0  0  0  0  0
    7.4567   -6.9464   27.2858 C   0  0  0  0  0  0  0  0  0  0  0  0
    0.1921   -5.7592   27.1123 C   0  0  0  0  0  0  0  0  0  0  0  0
    3.5517   -7.7407   25.9711 C   0  0  0  0  0  0  0  0  0  0  0  0
  1  4  4  0
  1 22  4  0
  2 20  4  0
  2 27  4  0
  3 12  4  0
  3 23  4  0
  4 25  4  0
  4 28  1  0
  5  8  4  0
  5 17  4  0
  6  7  4  0
  6 16  4  0
  7 18  4  0
  8 27  4  0
  9 13  4  0
  9 23  4  0
 10 11  1  0
 11 14  2  0
 11 27  1  0
 12 19  1  0
 12 24  4  0
 13 24  4  0
 15 18  1  0
 16 25  4  0
 16 26  4  0
 17 20  4  0
 17 28  1  0
 18 21  4  0
 21 26  4  0
 22 26  4  0
M  END
$$$$

 Created by Python create_sdf_string function

 28 30  0  0  0  0  0  0  0  0999 V2000
    5.7174   -8.4529   26.7190 C   0  0  0  0  0  0  0  0  0  0  0  0
    0.3974   -7.0711   27.5149 C   0  0  0  0  0  0  0  0  0  0  0  0
    2.5338   -7.6891   16.0102 C   0  0  0  0  0  0  0  0  0  0  0  0
    4.8690   -7.4380   26.4151 C   0  0  0  0  0  0  0  0  0  0  0  0
    2.3021   -5.6726   26.0378 C   0  0  0  0  0  0  0  0  0  0  0  0
    7.0880   -4.6163   27.0010 C   0  0  0  0  0  0  0  0  0  0  0  0
    8.3117   -4.3698   27.4436 C   0  0  0  0  0  0  0  0  0  0  0  0
    1.1339   -5.0515   26.3541 C   0  0  0  0  0  0  0  0  0  0  0  0
    4.8080   -8.0362   16.7101 C   0  0  0  0  0  0  0  0  0  0  0  0
   -1.2173   -3.9294   26.9717 O   0  0  0  0  0  0  0  0  0  0  0  0
   -1.0025   -5.0942   27.4586 C   0  0  0  0  0  0  0  0  0  0  0  0
    2.2474   -8.9123   16.6273 C   0  0  0  0  0  0  0  0  0  0  0  0
    4.4957   -9.2636   17.3041 C   0  0  0  0  0  0  0  0  0  0  0  0
   -1.8070   -5.6086   28.1920 O   0  0  0  0  0  0  0  0  0  0  0  0
   10.4296   -5.1799   28.3140 C   0  0  0  0  0  0  0  0  0  0  0  0
    6.6017   -5.9004   26.9187 C   0  0  0  0  0  0  0  0  0  0  0  0
    2.4761   -6.9940   26.4111 N   0  0  0  0  0  0  0  0  0  0  0  0
    9.1353   -5.4053   27.8239 C   0  0  0  0  0  0  0  0  0  0  0  0
    0.9922   -9.3232   16.5995 O   0  0  0  0  0  0  0  0  0  0  0  0
    1.5232   -7.6869   27.1182 C   0  0  0  0  0  0  0  0  0  0  0  0
    8.6878   -6.6715   27.7262 N   0  0  0  0  0  0  0  0  0  0  0  0
    6.9911   -8.2423   27.1808 C   0  0  0  0  0  0  0  0  0  0  0  0
    3.8436   -7.2758   16.0578 C   0  0  0  0  0  0  0  0  0  0  0  0
    3.1882   -9.7190   17.2566 C   0  0  0  0  0  0  0  0  0  0  0  0
    5.3488   -6.1737   26.5092 C   0  0  0  0  0  0  0  0  0  0  0  0
    7.4567   -6.9464   27.2858 C   0  0  0  0  0  0  0  0  0  0  0  0
    0.1921   -5.7592   27.1123 C   0  0  0  0  0  0  0  0  0  0  0  0
    3.5517   -7.7407   25.9711 C   0  0  0  0  0  0  0  0  0  0  0  0
  1  4  4  0
  1 22  4  0
  2 20  4  0
  2 27  4  0
  3 12  4  0
  3 23  4  0
  4 25  4  0
  4 28  1  0
  5  8  4  0
  5 17  4  0
  6  7  4  0
  6 16  4  0
  7 18  4  0
  8 27  4  0
  9 13  4  0
  9 23  4  0
 10 11  1  0
 11 14  2  0
 11 27  1  0
 12 19  1  0
 12 24  4  0
 13 24  4  0
 15 18  1  0
 16 25  4  0
 16 26  4  0
 17 20  4  0
 17 28  1  0
 18 21  4  0
 21 26  4  0
 22 26  4  0
M  END
$$$$

 Created by Python create_sdf_string function

 28 30  0  0  0  0  0  0  0  0999 V2000
    5.7174   -8.4529   26.7190 C   0  0  0  0  0  0  0  0  0  0  0  0
    0.3974   -7.0711   27.5149 C   0  0  0  0  0  0  0  0  0  0  0  0
    2.5338   -7.6891   16.0102 C   0  0  0  0  0  0  0  0  0  0  0  0
    4.8690   -7.4380   26.4151 C   0  0  0  0  0  0  0  0  0  0  0  0
    2.3021   -5.6726   26.0378 C   0  0  0  0  0  0  0  0  0  0  0  0
    7.0880   -4.6163   27.0010 C   0  0  0  0  0  0  0  0  0  0  0  0
    8.3117   -4.3698   27.4436 C   0  0  0  0  0  0  0  0  0  0  0  0
    1.1339   -5.0515   26.3541 C   0  0  0  0  0  0  0  0  0  0  0  0
    4.8080   -8.0362   16.7101 C   0  0  0  0  0  0  0  0  0  0  0  0
   -1.2173   -3.9294   26.9717 O   0  0  0  0  0  0  0  0  0  0  0  0
   -1.0025   -5.0942   27.4586 C   0  0  0  0  0  0  0  0  0  0  0  0
    2.2474   -8.9123   16.6273 C   0  0  0  0  0  0  0  0  0  0  0  0
    4.4957   -9.2636   17.3041 C   0  0  0  0  0  0  0  0  0  0  0  0
   -1.8070   -5.6086   28.1920 O   0  0  0  0  0  0  0  0  0  0  0  0
   10.4296   -5.1799   28.3140 C   0  0  0  0  0  0  0  0  0  0  0  0
    6.6017   -5.9004   26.9187 C   0  0  0  0  0  0  0  0  0  0  0  0
    2.4761   -6.9940   26.4111 N   0  0  0  0  0  0  0  0  0  0  0  0
    9.1353   -5.4053   27.8239 C   0  0  0  0  0  0  0  0  0  0  0  0
    0.9922   -9.3232   16.5995 O   0  0  0  0  0  0  0  0  0  0  0  0
    1.5232   -7.6869   27.1182 C   0  0  0  0  0  0  0  0  0  0  0  0
    8.6878   -6.6715   27.7262 N   0  0  0  0  0  0  0  0  0  0  0  0
    6.9911   -8.2423   27.1808 C   0  0  0  0  0  0  0  0  0  0  0  0
    3.8436   -7.2758   16.0578 C   0  0  0  0  0  0  0  0  0  0  0  0
    3.1882   -9.7190   17.2566 C   0  0  0  0  0  0  0  0  0  0  0  0
    5.3488   -6.1737   26.5092 C   0  0  0  0  0  0  0  0  0  0  0  0
    7.4567   -6.9464   27.2858 C   0  0  0  0  0  0  0  0  0  0  0  0
    0.1921   -5.7592   27.1123 C   0  0  0  0  0  0  0  0  0  0  0  0
    3.5517   -7.7407   25.9711 C   0  0  0  0  0  0  0  0  0  0  0  0
  1  4  4  0
  1 22  4  0
  2 20  4  0
  2 27  4  0
  3 12  4  0
  3 23  4  0
  4 25  4  0
  4 28  1  0
  5  8  4  0
  5 17  4  0
  6  7  4  0
  6 16  4  0
  7 18  4  0
  8 27  4  0
  9 13  4  0
  9 23  4  0
 10 11  1  0
 11 14  2  0
 11 27  1  0
 12 19  1  0
 12 24  4  0
 13 24  4  0
 15 18  1  0
 16 25  4  0
 16 26  4  0
 17 20  4  0
 17 28  1  0
 18 21  4  0
 21 26  4  0
 22 26  4  0
M  END
$$$$

 Created by Python create_sdf_string function

 28 30  0  0  0  0  0  0  0  0999 V2000
    5.7174   -8.4529   26.7190 C   0  0  0  0  0  0  0  0  0  0  0  0
    0.3974   -7.0711   27.5149 C   0  0  0  0  0  0  0  0  0  0  0  0
    2.5338   -7.6891   16.0102 C   0  0  0  0  0  0  0  0  0  0  0  0
    4.8690   -7.4380   26.4151 C   0  0  0  0  0  0  0  0  0  0  0  0
    2.3021   -5.6726   26.0378 C   0  0  0  0  0  0  0  0  0  0  0  0
    7.0880   -4.6163   27.0010 C   0  0  0  0  0  0  0  0  0  0  0  0
    8.3117   -4.3698   27.4436 C   0  0  0  0  0  0  0  0  0  0  0  0
    1.1339   -5.0515   26.3541 C   0  0  0  0  0  0  0  0  0  0  0  0
    4.8080   -8.0362   16.7101 C   0  0  0  0  0  0  0  0  0  0  0  0
   -1.2173   -3.9294   26.9717 O   0  0  0  0  0  0  0  0  0  0  0  0
   -1.0025   -5.0942   27.4586 C   0  0  0  0  0  0  0  0  0  0  0  0
    2.2474   -8.9123   16.6273 C   0  0  0  0  0  0  0  0  0  0  0  0
    4.4957   -9.2636   17.3041 C   0  0  0  0  0  0  0  0  0  0  0  0
   -1.8070   -5.6086   28.1920 O   0  0  0  0  0  0  0  0  0  0  0  0
   10.4296   -5.1799   28.3140 C   0  0  0  0  0  0  0  0  0  0  0  0
    6.6017   -5.9004   26.9187 C   0  0  0  0  0  0  0  0  0  0  0  0
    2.4761   -6.9940   26.4111 N   0  0  0  0  0  0  0  0  0  0  0  0
    9.1353   -5.4053   27.8239 C   0  0  0  0  0  0  0  0  0  0  0  0
    0.9922   -9.3232   16.5995 O   0  0  0  0  0  0  0  0  0  0  0  0
    1.5232   -7.6869   27.1182 C   0  0  0  0  0  0  0  0  0  0  0  0
    8.6878   -6.6715   27.7262 N   0  0  0  0  0  0  0  0  0  0  0  0
    6.9911   -8.2423   27.1808 C   0  0  0  0  0  0  0  0  0  0  0  0
    3.8436   -7.2758   16.0578 C   0  0  0  0  0  0  0  0  0  0  0  0
    3.1882   -9.7190   17.2566 C   0  0  0  0  0  0  0  0  0  0  0  0
    5.3488   -6.1737   26.5092 C   0  0  0  0  0  0  0  0  0  0  0  0
    7.4567   -6.9464   27.2858 C   0  0  0  0  0  0  0  0  0  0  0  0
    0.1921   -5.7592   27.1123 C   0  0  0  0  0  0  0  0  0  0  0  0
    3.5517   -7.7407   25.9711 C   0  0  0  0  0  0  0  0  0  0  0  0
  1  4  4  0
  1 22  4  0
  2 20  4  0
  2 27  4  0
  3 12  4  0
  3 23  4  0
  4 25  4  0
  4 28  1  0
  5  8  4  0
  5 17  4  0
  6  7  4  0
  6 16  4  0
  7 18  4  0
  8 27  4  0
  9 13  4  0
  9 23  4  0
 10 11  1  0
 11 14  2  0
 11 27  1  0
 12 19  1  0
 12 24  4  0
 13 24  4  0
 15 18  1  0
 16 25  4  0
 16 26  4  0
 17 20  4  0
 17 28  1  0
 18 21  4  0
 21 26  4  0
 22 26  4  0
M  END
$$$$

 Created by Python create_sdf_string function

 28 30  0  0  0  0  0  0  0  0999 V2000
    5.7174   -8.4529   26.7190 C   0  0  0  0  0  0  0  0  0  0  0  0
    0.3974   -7.0711   27.5149 C   0  0  0  0  0  0  0  0  0  0  0  0
    2.5338   -7.6891   16.0102 C   0  0  0  0  0  0  0  0  0  0  0  0
    4.8690   -7.4380   26.4151 C   0  0  0  0  0  0  0  0  0  0  0  0
    2.3021   -5.6726   26.0378 C   0  0  0  0  0  0  0  0  0  0  0  0
    7.0880   -4.6163   27.0010 C   0  0  0  0  0  0  0  0  0  0  0  0
    8.3117   -4.3698   27.4436 C   0  0  0  0  0  0  0  0  0  0  0  0
    1.1339   -5.0515   26.3541 C   0  0  0  0  0  0  0  0  0  0  0  0
    4.8080   -8.0362   16.7101 C   0  0  0  0  0  0  0  0  0  0  0  0
   -1.2173   -3.9294   26.9717 O   0  0  0  0  0  0  0  0  0  0  0  0
   -1.0025   -5.0942   27.4586 C   0  0  0  0  0  0  0  0  0  0  0  0
    2.2474   -8.9123   16.6273 C   0  0  0  0  0  0  0  0  0  0  0  0
    4.4957   -9.2636   17.3041 C   0  0  0  0  0  0  0  0  0  0  0  0
   -1.8070   -5.6086   28.1920 O   0  0  0  0  0  0  0  0  0  0  0  0
   10.4296   -5.1799   28.3140 C   0  0  0  0  0  0  0  0  0  0  0  0
    6.6017   -5.9004   26.9187 C   0  0  0  0  0  0  0  0  0  0  0  0
    2.4761   -6.9940   26.4111 N   0  0  0  0  0  0  0  0  0  0  0  0
    9.1353   -5.4053   27.8239 C   0  0  0  0  0  0  0  0  0  0  0  0
    0.9922   -9.3232   16.5995 O   0  0  0  0  0  0  0  0  0  0  0  0
    1.5232   -7.6869   27.1182 C   0  0  0  0  0  0  0  0  0  0  0  0
    8.6878   -6.6715   27.7262 N   0  0  0  0  0  0  0  0  0  0  0  0
    6.9911   -8.2423   27.1808 C   0  0  0  0  0  0  0  0  0  0  0  0
    3.8436   -7.2758   16.0578 C   0  0  0  0  0  0  0  0  0  0  0  0
    3.1882   -9.7190   17.2566 C   0  0  0  0  0  0  0  0  0  0  0  0
    5.3488   -6.1737   26.5092 C   0  0  0  0  0  0  0  0  0  0  0  0
    7.4567   -6.9464   27.2858 C   0  0  0  0  0  0  0  0  0  0  0  0
    0.1921   -5.7592   27.1123 C   0  0  0  0  0  0  0  0  0  0  0  0
    3.5517   -7.7407   25.9711 C   0  0  0  0  0  0  0  0  0  0  0  0
  1  4  4  0
  1 22  4  0
  2 20  4  0
  2 27  4  0
  3 12  4  0
  3 23  4  0
  4 25  4  0
  4 28  1  0
  5  8  4  0
  5 17  4  0
  6  7  4  0
  6 16  4  0
  7 18  4  0
  8 27  4  0
  9 13  4  0
  9 23  4  0
 10 11  1  0
 11 14  2  0
 11 27  1  0
 12 19  1  0
 12 24  4  0
 13 24  4  0
 15 18  1  0
 16 25  4  0
 16 26  4  0
 17 20  4  0
 17 28  1  0
 18 21  4  0
 21 26  4  0
 22 26  4  0
M  END
$$$$

 Created by Python create_sdf_string function

 28 30  0  0  0  0  0  0  0  0999 V2000
    5.7174   -8.4529   26.7190 C   0  0  0  0  0  0  0  0  0  0  0  0
    0.3974   -7.0711   27.5149 C   0  0  0  0  0  0  0  0  0  0  0  0
    2.5338   -7.6891   16.0102 C   0  0  0  0  0  0  0  0  0  0  0  0
    4.8690   -7.4380   26.4151 C   0  0  0  0  0  0  0  0  0  0  0  0
    2.3021   -5.6726   26.0378 C   0  0  0  0  0  0  0  0  0  0  0  0
    7.0880   -4.6163   27.0010 C   0  0  0  0  0  0  0  0  0  0  0  0
    8.3117   -4.3698   27.4436 C   0  0  0  0  0  0  0  0  0  0  0  0
    1.1339   -5.0515   26.3541 C   0  0  0  0  0  0  0  0  0  0  0  0
    4.8080   -8.0362   16.7101 C   0  0  0  0  0  0  0  0  0  0  0  0
   -1.2173   -3.9294   26.9717 O   0  0  0  0  0  0  0  0  0  0  0  0
   -1.0025   -5.0942   27.4586 C   0  0  0  0  0  0  0  0  0  0  0  0
    2.2474   -8.9123   16.6273 C   0  0  0  0  0  0  0  0  0  0  0  0
    4.4957   -9.2636   17.3041 C   0  0  0  0  0  0  0  0  0  0  0  0
   -1.8070   -5.6086   28.1920 O   0  0  0  0  0  0  0  0  0  0  0  0
   10.4296   -5.1799   28.3140 C   0  0  0  0  0  0  0  0  0  0  0  0
    6.6017   -5.9004   26.9187 C   0  0  0  0  0  0  0  0  0  0  0  0
    2.4761   -6.9940   26.4111 N   0  0  0  0  0  0  0  0  0  0  0  0
    9.1353   -5.4053   27.8239 C   0  0  0  0  0  0  0  0  0  0  0  0
    0.9922   -9.3232   16.5995 O   0  0  0  0  0  0  0  0  0  0  0  0
    1.5232   -7.6869   27.1182 C   0  0  0  0  0  0  0  0  0  0  0  0
    8.6878   -6.6715   27.7262 N   0  0  0  0  0  0  0  0  0  0  0  0
    6.9911   -8.2423   27.1808 C   0  0  0  0  0  0  0  0  0  0  0  0
    3.8436   -7.2758   16.0578 C   0  0  0  0  0  0  0  0  0  0  0  0
    3.1882   -9.7190   17.2566 C   0  0  0  0  0  0  0  0  0  0  0  0
    5.3488   -6.1737   26.5092 C   0  0  0  0  0  0  0  0  0  0  0  0
    7.4567   -6.9464   27.2858 C   0  0  0  0  0  0  0  0  0  0  0  0
    0.1921   -5.7592   27.1123 C   0  0  0  0  0  0  0  0  0  0  0  0
    3.5517   -7.7407   25.9711 C   0  0  0  0  0  0  0  0  0  0  0  0
  1  4  4  0
  1 22  4  0
  2 20  4  0
  2 27  4  0
  3 12  4  0
  3 23  4  0
  4 25  4  0
  4 28  1  0
  5  8  4  0
  5 17  4  0
  6  7  4  0
  6 16  4  0
  7 18  4  0
  8 27  4  0
  9 13  4  0
  9 23  4  0
 10 11  1  0
 11 14  2  0
 11 27  1  0
 12 19  1  0
 12 24  4  0
 13 24  4  0
 15 18  1  0
 16 25  4  0
 16 26  4  0
 17 20  4  0
 17 28  1  0
 18 21  4  0
 21 26  4  0
 22 26  4  0
M  END
$$$$

 Created by Python create_sdf_string function

 28 30  0  0  0  0  0  0  0  0999 V2000
    5.7174   -8.4529   26.7190 C   0  0  0  0  0  0  0  0  0  0  0  0
    0.3974   -7.0711   27.5149 C   0  0  0  0  0  0  0  0  0  0  0  0
    2.5338   -7.6891   16.0102 C   0  0  0  0  0  0  0  0  0  0  0  0
    4.8690   -7.4380   26.4151 C   0  0  0  0  0  0  0  0  0  0  0  0
    2.3021   -5.6726   26.0378 C   0  0  0  0  0  0  0  0  0  0  0  0
    7.0880   -4.6163   27.0010 C   0  0  0  0  0  0  0  0  0  0  0  0
    8.3117   -4.3698   27.4436 C   0  0  0  0  0  0  0  0  0  0  0  0
    1.1339   -5.0515   26.3541 C   0  0  0  0  0  0  0  0  0  0  0  0
    4.8080   -8.0362   16.7101 C   0  0  0  0  0  0  0  0  0  0  0  0
   -1.2173   -3.9294   26.9717 O   0  0  0  0  0  0  0  0  0  0  0  0
   -1.0025   -5.0942   27.4586 C   0  0  0  0  0  0  0  0  0  0  0  0
    2.2474   -8.9123   16.6273 C   0  0  0  0  0  0  0  0  0  0  0  0
    4.4957   -9.2636   17.3041 C   0  0  0  0  0  0  0  0  0  0  0  0
   -1.8070   -5.6086   28.1920 O   0  0  0  0  0  0  0  0  0  0  0  0
   10.4296   -5.1799   28.3140 C   0  0  0  0  0  0  0  0  0  0  0  0
    6.6017   -5.9004   26.9187 C   0  0  0  0  0  0  0  0  0  0  0  0
    2.4761   -6.9940   26.4111 N   0  0  0  0  0  0  0  0  0  0  0  0
    9.1353   -5.4053   27.8239 C   0  0  0  0  0  0  0  0  0  0  0  0
    0.9922   -9.3232   16.5995 O   0  0  0  0  0  0  0  0  0  0  0  0
    1.5232   -7.6869   27.1182 C   0  0  0  0  0  0  0  0  0  0  0  0
    8.6878   -6.6715   27.7262 N   0  0  0  0  0  0  0  0  0  0  0  0
    6.9911   -8.2423   27.1808 C   0  0  0  0  0  0  0  0  0  0  0  0
    3.8436   -7.2758   16.0578 C   0  0  0  0  0  0  0  0  0  0  0  0
    3.1882   -9.7190   17.2566 C   0  0  0  0  0  0  0  0  0  0  0  0
    5.3488   -6.1737   26.5092 C   0  0  0  0  0  0  0  0  0  0  0  0
    7.4567   -6.9464   27.2858 C   0  0  0  0  0  0  0  0  0  0  0  0
    0.1921   -5.7592   27.1123 C   0  0  0  0  0  0  0  0  0  0  0  0
    3.5517   -7.7407   25.9711 C   0  0  0  0  0  0  0  0  0  0  0  0
  1  4  4  0
  1 22  4  0
  2 20  4  0
  2 27  4  0
  3 12  4  0
  3 23  4  0
  4 25  4  0
  4 28  1  0
  5  8  4  0
  5 17  4  0
  6  7  4  0
  6 16  4  0
  7 18  4  0
  8 27  4  0
  9 13  4  0
  9 23  4  0
 10 11  1  0
 11 14  2  0
 11 27  1  0
 12 19  1  0
 12 24  4  0
 13 24  4  0
 15 18  1  0
 16 25  4  0
 16 26  4  0
 17 20  4  0
 17 28  1  0
 18 21  4  0
 21 26  4  0
 22 26  4  0
M  END
$$$$

 Created by Python create_sdf_string function

 28 30  0  0  0  0  0  0  0  0999 V2000
    5.7174   -8.4529   26.7190 C   0  0  0  0  0  0  0  0  0  0  0  0
    0.3974   -7.0711   27.5149 C   0  0  0  0  0  0  0  0  0  0  0  0
    2.5338   -7.6891   16.0102 C   0  0  0  0  0  0  0  0  0  0  0  0
    4.8690   -7.4380   26.4151 C   0  0  0  0  0  0  0  0  0  0  0  0
    2.3021   -5.6726   26.0378 C   0  0  0  0  0  0  0  0  0  0  0  0
    7.0880   -4.6163   27.0010 C   0  0  0  0  0  0  0  0  0  0  0  0
    8.3117   -4.3698   27.4436 C   0  0  0  0  0  0  0  0  0  0  0  0
    1.1339   -5.0515   26.3541 C   0  0  0  0  0  0  0  0  0  0  0  0
    4.8080   -8.0362   16.7101 C   0  0  0  0  0  0  0  0  0  0  0  0
   -1.2173   -3.9294   26.9717 O   0  0  0  0  0  0  0  0  0  0  0  0
   -1.0025   -5.0942   27.4586 C   0  0  0  0  0  0  0  0  0  0  0  0
    2.2474   -8.9123   16.6273 C   0  0  0  0  0  0  0  0  0  0  0  0
    4.4957   -9.2636   17.3041 C   0  0  0  0  0  0  0  0  0  0  0  0
   -1.8070   -5.6086   28.1920 O   0  0  0  0  0  0  0  0  0  0  0  0
   10.4296   -5.1799   28.3140 C   0  0  0  0  0  0  0  0  0  0  0  0
    6.6017   -5.9004   26.9187 C   0  0  0  0  0  0  0  0  0  0  0  0
    2.4761   -6.9940   26.4111 N   0  0  0  0  0  0  0  0  0  0  0  0
    9.1353   -5.4053   27.8239 C   0  0  0  0  0  0  0  0  0  0  0  0
    0.9922   -9.3232   16.5995 O   0  0  0  0  0  0  0  0  0  0  0  0
    1.5232   -7.6869   27.1182 C   0  0  0  0  0  0  0  0  0  0  0  0
    8.6878   -6.6715   27.7262 N   0  0  0  0  0  0  0  0  0  0  0  0
    6.9911   -8.2423   27.1808 C   0  0  0  0  0  0  0  0  0  0  0  0
    3.8436   -7.2758   16.0578 C   0  0  0  0  0  0  0  0  0  0  0  0
    3.1882   -9.7190   17.2566 C   0  0  0  0  0  0  0  0  0  0  0  0
    5.3488   -6.1737   26.5092 C   0  0  0  0  0  0  0  0  0  0  0  0
    7.4567   -6.9464   27.2858 C   0  0  0  0  0  0  0  0  0  0  0  0
    0.1921   -5.7592   27.1123 C   0  0  0  0  0  0  0  0  0  0  0  0
    3.5517   -7.7407   25.9711 C   0  0  0  0  0  0  0  0  0  0  0  0
  1  4  4  0
  1 22  4  0
  2 20  4  0
  2 27  4  0
  3 12  4  0
  3 23  4  0
  4 25  4  0
  4 28  1  0
  5  8  4  0
  5 17  4  0
  6  7  4  0
  6 16  4  0
  7 18  4  0
  8 27  4  0
  9 13  4  0
  9 23  4  0
 10 11  1  0
 11 14  2  0
 11 27  1  0
 12 19  1  0
 12 24  4  0
 13 24  4  0
 15 18  1  0
 16 25  4  0
 16 26  4  0
 17 20  4  0
 17 28  1  0
 18 21  4  0
 21 26  4  0
 22 26  4  0
M  END
$$$$

 Created by Python create_sdf_string function

 28 30  0  0  0  0  0  0  0  0999 V2000
    5.7174   -8.4529   26.7190 C   0  0  0  0  0  0  0  0  0  0  0  0
    0.3974   -7.0711   27.5149 C   0  0  0  0  0  0  0  0  0  0  0  0
    2.5338   -7.6891   16.0102 C   0  0  0  0  0  0  0  0  0  0  0  0
    4.8690   -7.4380   26.4151 C   0  0  0  0  0  0  0  0  0  0  0  0
    2.3021   -5.6726   26.0378 C   0  0  0  0  0  0  0  0  0  0  0  0
    7.0880   -4.6163   27.0010 C   0  0  0  0  0  0  0  0  0  0  0  0
    8.3117   -4.3698   27.4436 C   0  0  0  0  0  0  0  0  0  0  0  0
    1.1339   -5.0515   26.3541 C   0  0  0  0  0  0  0  0  0  0  0  0
    4.8080   -8.0362   16.7101 C   0  0  0  0  0  0  0  0  0  0  0  0
   -1.2173   -3.9294   26.9717 O   0  0  0  0  0  0  0  0  0  0  0  0
   -1.0025   -5.0942   27.4586 C   0  0  0  0  0  0  0  0  0  0  0  0
    2.2474   -8.9123   16.6273 C   0  0  0  0  0  0  0  0  0  0  0  0
    4.4957   -9.2636   17.3041 C   0  0  0  0  0  0  0  0  0  0  0  0
   -1.8070   -5.6086   28.1920 O   0  0  0  0  0  0  0  0  0  0  0  0
   10.4296   -5.1799   28.3140 C   0  0  0  0  0  0  0  0  0  0  0  0
    6.6017   -5.9004   26.9187 C   0  0  0  0  0  0  0  0  0  0  0  0
    2.4761   -6.9940   26.4111 N   0  0  0  0  0  0  0  0  0  0  0  0
    9.1353   -5.4053   27.8239 C   0  0  0  0  0  0  0  0  0  0  0  0
    0.9922   -9.3232   16.5995 O   0  0  0  0  0  0  0  0  0  0  0  0
    1.5232   -7.6869   27.1182 C   0  0  0  0  0  0  0  0  0  0  0  0
    8.6878   -6.6715   27.7262 N   0  0  0  0  0  0  0  0  0  0  0  0
    6.9911   -8.2423   27.1808 C   0  0  0  0  0  0  0  0  0  0  0  0
    3.8436   -7.2758   16.0578 C   0  0  0  0  0  0  0  0  0  0  0  0
    3.1882   -9.7190   17.2566 C   0  0  0  0  0  0  0  0  0  0  0  0
    5.3488   -6.1737   26.5092 C   0  0  0  0  0  0  0  0  0  0  0  0
    7.4567   -6.9464   27.2858 C   0  0  0  0  0  0  0  0  0  0  0  0
    0.1921   -5.7592   27.1123 C   0  0  0  0  0  0  0  0  0  0  0  0
    3.5517   -7.7407   25.9711 C   0  0  0  0  0  0  0  0  0  0  0  0
  1  4  4  0
  1 22  4  0
  2 20  4  0
  2 27  4  0
  3 12  4  0
  3 23  4  0
  4 25  4  0
  4 28  1  0
  5  8  4  0
  5 17  4  0
  6  7  4  0
  6 16  4  0
  7 18  4  0
  8 27  4  0
  9 13  4  0
  9 23  4  0
 10 11  1  0
 11 14  2  0
 11 27  1  0
 12 19  1  0
 12 24  4  0
 13 24  4  0
 15 18  1  0
 16 25  4  0
 16 26  4  0
 17 20  4  0
 17 28  1  0
 18 21  4  0
 21 26  4  0
 22 26  4  0
M  END
$$$$

 Created by Python create_sdf_string function

 28 30  0  0  0  0  0  0  0  0999 V2000
    5.7174   -8.4529   26.7190 C   0  0  0  0  0  0  0  0  0  0  0  0
    0.3974   -7.0711   27.5149 C   0  0  0  0  0  0  0  0  0  0  0  0
    2.5338   -7.6891   16.0102 C   0  0  0  0  0  0  0  0  0  0  0  0
    4.8690   -7.4380   26.4151 C   0  0  0  0  0  0  0  0  0  0  0  0
    2.3021   -5.6726   26.0378 C   0  0  0  0  0  0  0  0  0  0  0  0
    7.0880   -4.6163   27.0010 C   0  0  0  0  0  0  0  0  0  0  0  0
    8.3117   -4.3698   27.4436 C   0  0  0  0  0  0  0  0  0  0  0  0
    1.1339   -5.0515   26.3541 C   0  0  0  0  0  0  0  0  0  0  0  0
    4.8080   -8.0362   16.7101 C   0  0  0  0  0  0  0  0  0  0  0  0
   -1.2173   -3.9294   26.9717 O   0  0  0  0  0  0  0  0  0  0  0  0
   -1.0025   -5.0942   27.4586 C   0  0  0  0  0  0  0  0  0  0  0  0
    2.2474   -8.9123   16.6273 C   0  0  0  0  0  0  0  0  0  0  0  0
    4.4957   -9.2636   17.3041 C   0  0  0  0  0  0  0  0  0  0  0  0
   -1.8070   -5.6086   28.1920 O   0  0  0  0  0  0  0  0  0  0  0  0
   10.4296   -5.1799   28.3140 C   0  0  0  0  0  0  0  0  0  0  0  0
    6.6017   -5.9004   26.9187 C   0  0  0  0  0  0  0  0  0  0  0  0
    2.4761   -6.9940   26.4111 N   0  0  0  0  0  0  0  0  0  0  0  0
    9.1353   -5.4053   27.8239 C   0  0  0  0  0  0  0  0  0  0  0  0
    0.9922   -9.3232   16.5995 O   0  0  0  0  0  0  0  0  0  0  0  0
    1.5232   -7.6869   27.1182 C   0  0  0  0  0  0  0  0  0  0  0  0
    8.6878   -6.6715   27.7262 N   0  0  0  0  0  0  0  0  0  0  0  0
    6.9911   -8.2423   27.1808 C   0  0  0  0  0  0  0  0  0  0  0  0
    3.8436   -7.2758   16.0578 C   0  0  0  0  0  0  0  0  0  0  0  0
    3.1882   -9.7190   17.2566 C   0  0  0  0  0  0  0  0  0  0  0  0
    5.3488   -6.1737   26.5092 C   0  0  0  0  0  0  0  0  0  0  0  0
    7.4567   -6.9464   27.2858 C   0  0  0  0  0  0  0  0  0  0  0  0
    0.1921   -5.7592   27.1123 C   0  0  0  0  0  0  0  0  0  0  0  0
    3.5517   -7.7407   25.9711 C   0  0  0  0  0  0  0  0  0  0  0  0
  1  4  4  0
  1 22  4  0
  2 20  4  0
  2 27  4  0
  3 12  4  0
  3 23  4  0
  4 25  4  0
  4 28  1  0
  5  8  4  0
  5 17  4  0
  6  7  4  0
  6 16  4  0
  7 18  4  0
  8 27  4  0
  9 13  4  0
  9 23  4  0
 10 11  1  0
 11 14  2  0
 11 27  1  0
 12 19  1  0
 12 24  4  0
 13 24  4  0
 15 18  1  0
 16 25  4  0
 16 26  4  0
 17 20  4  0
 17 28  1  0
 18 21  4  0
 21 26  4  0
 22 26  4  0
M  END
$$$$

 Created by Python create_sdf_string function

 28 30  0  0  0  0  0  0  0  0999 V2000
    5.7174   -8.4529   26.7190 C   0  0  0  0  0  0  0  0  0  0  0  0
    0.3974   -7.0711   27.5149 C   0  0  0  0  0  0  0  0  0  0  0  0
    2.5338   -7.6891   16.0102 C   0  0  0  0  0  0  0  0  0  0  0  0
    4.8690   -7.4380   26.4151 C   0  0  0  0  0  0  0  0  0  0  0  0
    2.3021   -5.6726   26.0378 C   0  0  0  0  0  0  0  0  0  0  0  0
    7.0880   -4.6163   27.0010 C   0  0  0  0  0  0  0  0  0  0  0  0
    8.3117   -4.3698   27.4436 C   0  0  0  0  0  0  0  0  0  0  0  0
    1.1339   -5.0515   26.3541 C   0  0  0  0  0  0  0  0  0  0  0  0
    4.8080   -8.0362   16.7101 C   0  0  0  0  0  0  0  0  0  0  0  0
   -1.2173   -3.9294   26.9717 O   0  0  0  0  0  0  0  0  0  0  0  0
   -1.0025   -5.0942   27.4586 C   0  0  0  0  0  0  0  0  0  0  0  0
    2.2474   -8.9123   16.6273 C   0  0  0  0  0  0  0  0  0  0  0  0
    4.4957   -9.2636   17.3041 C   0  0  0  0  0  0  0  0  0  0  0  0
   -1.8070   -5.6086   28.1920 O   0  0  0  0  0  0  0  0  0  0  0  0
   10.4296   -5.1799   28.3140 C   0  0  0  0  0  0  0  0  0  0  0  0
    6.6017   -5.9004   26.9187 C   0  0  0  0  0  0  0  0  0  0  0  0
    2.4761   -6.9940   26.4111 N   0  0  0  0  0  0  0  0  0  0  0  0
    9.1353   -5.4053   27.8239 C   0  0  0  0  0  0  0  0  0  0  0  0
    0.9922   -9.3232   16.5995 O   0  0  0  0  0  0  0  0  0  0  0  0
    1.5232   -7.6869   27.1182 C   0  0  0  0  0  0  0  0  0  0  0  0
    8.6878   -6.6715   27.7262 N   0  0  0  0  0  0  0  0  0  0  0  0
    6.9911   -8.2423   27.1808 C   0  0  0  0  0  0  0  0  0  0  0  0
    3.8436   -7.2758   16.0578 C   0  0  0  0  0  0  0  0  0  0  0  0
    3.1882   -9.7190   17.2566 C   0  0  0  0  0  0  0  0  0  0  0  0
    5.3488   -6.1737   26.5092 C   0  0  0  0  0  0  0  0  0  0  0  0
    7.4567   -6.9464   27.2858 C   0  0  0  0  0  0  0  0  0  0  0  0
    0.1921   -5.7592   27.1123 C   0  0  0  0  0  0  0  0  0  0  0  0
    3.5517   -7.7407   25.9711 C   0  0  0  0  0  0  0  0  0  0  0  0
  1  4  4  0
  1 22  4  0
  2 20  4  0
  2 27  4  0
  3 12  4  0
  3 23  4  0
  4 25  4  0
  4 28  1  0
  5  8  4  0
  5 17  4  0
  6  7  4  0
  6 16  4  0
  7 18  4  0
  8 27  4  0
  9 13  4  0
  9 23  4  0
 10 11  1  0
 11 14  2  0
 11 27  1  0
 12 19  1  0
 12 24  4  0
 13 24  4  0
 15 18  1  0
 16 25  4  0
 16 26  4  0
 17 20  4  0
 17 28  1  0
 18 21  4  0
 21 26  4  0
 22 26  4  0
M  END
$$$$

 Created by Python create_sdf_string function

 28 30  0  0  0  0  0  0  0  0999 V2000
    5.7174   -8.4529   26.7190 C   0  0  0  0  0  0  0  0  0  0  0  0
    0.3974   -7.0711   27.5149 C   0  0  0  0  0  0  0  0  0  0  0  0
    2.5338   -7.6891   16.0102 C   0  0  0  0  0  0  0  0  0  0  0  0
    4.8690   -7.4380   26.4151 C   0  0  0  0  0  0  0  0  0  0  0  0
    2.3021   -5.6726   26.0378 C   0  0  0  0  0  0  0  0  0  0  0  0
    7.0880   -4.6163   27.0010 C   0  0  0  0  0  0  0  0  0  0  0  0
    8.3117   -4.3698   27.4436 C   0  0  0  0  0  0  0  0  0  0  0  0
    1.1339   -5.0515   26.3541 C   0  0  0  0  0  0  0  0  0  0  0  0
    4.8080   -8.0362   16.7101 C   0  0  0  0  0  0  0  0  0  0  0  0
   -1.2173   -3.9294   26.9717 O   0  0  0  0  0  0  0  0  0  0  0  0
   -1.0025   -5.0942   27.4586 C   0  0  0  0  0  0  0  0  0  0  0  0
    2.2474   -8.9123   16.6273 C   0  0  0  0  0  0  0  0  0  0  0  0
    4.4957   -9.2636   17.3041 C   0  0  0  0  0  0  0  0  0  0  0  0
   -1.8070   -5.6086   28.1920 O   0  0  0  0  0  0  0  0  0  0  0  0
   10.4296   -5.1799   28.3140 C   0  0  0  0  0  0  0  0  0  0  0  0
    6.6017   -5.9004   26.9187 C   0  0  0  0  0  0  0  0  0  0  0  0
    2.4761   -6.9940   26.4111 N   0  0  0  0  0  0  0  0  0  0  0  0
    9.1353   -5.4053   27.8239 C   0  0  0  0  0  0  0  0  0  0  0  0
    0.9922   -9.3232   16.5995 O   0  0  0  0  0  0  0  0  0  0  0  0
    1.5232   -7.6869   27.1182 C   0  0  0  0  0  0  0  0  0  0  0  0
    8.6878   -6.6715   27.7262 N   0  0  0  0  0  0  0  0  0  0  0  0
    6.9911   -8.2423   27.1808 C   0  0  0  0  0  0  0  0  0  0  0  0
    3.8436   -7.2758   16.0578 C   0  0  0  0  0  0  0  0  0  0  0  0
    3.1882   -9.7190   17.2566 C   0  0  0  0  0  0  0  0  0  0  0  0
    5.3488   -6.1737   26.5092 C   0  0  0  0  0  0  0  0  0  0  0  0
    7.4567   -6.9464   27.2858 C   0  0  0  0  0  0  0  0  0  0  0  0
    0.1921   -5.7592   27.1123 C   0  0  0  0  0  0  0  0  0  0  0  0
    3.5517   -7.7407   25.9711 C   0  0  0  0  0  0  0  0  0  0  0  0
  1  4  4  0
  1 22  4  0
  2 20  4  0
  2 27  4  0
  3 12  4  0
  3 23  4  0
  4 25  4  0
  4 28  1  0
  5  8  4  0
  5 17  4  0
  6  7  4  0
  6 16  4  0
  7 18  4  0
  8 27  4  0
  9 13  4  0
  9 23  4  0
 10 11  1  0
 11 14  2  0
 11 27  1  0
 12 19  1  0
 12 24  4  0
 13 24  4  0
 15 18  1  0
 16 25  4  0
 16 26  4  0
 17 20  4  0
 17 28  1  0
 18 21  4  0
 21 26  4  0
 22 26  4  0
M  END
$$$$

 Created by Python create_sdf_string function

 28 30  0  0  0  0  0  0  0  0999 V2000
    5.7174   -8.4529   26.7190 C   0  0  0  0  0  0  0  0  0  0  0  0
    0.3974   -7.0711   27.5149 C   0  0  0  0  0  0  0  0  0  0  0  0
    2.5338   -7.6891   16.0102 C   0  0  0  0  0  0  0  0  0  0  0  0
    4.8690   -7.4380   26.4151 C   0  0  0  0  0  0  0  0  0  0  0  0
    2.3021   -5.6726   26.0378 C   0  0  0  0  0  0  0  0  0  0  0  0
    7.0880   -4.6163   27.0010 C   0  0  0  0  0  0  0  0  0  0  0  0
    8.3117   -4.3698   27.4436 C   0  0  0  0  0  0  0  0  0  0  0  0
    1.1339   -5.0515   26.3541 C   0  0  0  0  0  0  0  0  0  0  0  0
    4.8080   -8.0362   16.7101 C   0  0  0  0  0  0  0  0  0  0  0  0
   -1.2173   -3.9294   26.9717 O   0  0  0  0  0  0  0  0  0  0  0  0
   -1.0025   -5.0942   27.4586 C   0  0  0  0  0  0  0  0  0  0  0  0
    2.2474   -8.9123   16.6273 C   0  0  0  0  0  0  0  0  0  0  0  0
    4.4957   -9.2636   17.3041 C   0  0  0  0  0  0  0  0  0  0  0  0
   -1.8070   -5.6086   28.1920 O   0  0  0  0  0  0  0  0  0  0  0  0
   10.4296   -5.1799   28.3140 C   0  0  0  0  0  0  0  0  0  0  0  0
    6.6017   -5.9004   26.9187 C   0  0  0  0  0  0  0  0  0  0  0  0
    2.4761   -6.9940   26.4111 N   0  0  0  0  0  0  0  0  0  0  0  0
    9.1353   -5.4053   27.8239 C   0  0  0  0  0  0  0  0  0  0  0  0
    0.9922   -9.3232   16.5995 O   0  0  0  0  0  0  0  0  0  0  0  0
    1.5232   -7.6869   27.1182 C   0  0  0  0  0  0  0  0  0  0  0  0
    8.6878   -6.6715   27.7262 N   0  0  0  0  0  0  0  0  0  0  0  0
    6.9911   -8.2423   27.1808 C   0  0  0  0  0  0  0  0  0  0  0  0
    3.8436   -7.2758   16.0578 C   0  0  0  0  0  0  0  0  0  0  0  0
    3.1882   -9.7190   17.2566 C   0  0  0  0  0  0  0  0  0  0  0  0
    5.3488   -6.1737   26.5092 C   0  0  0  0  0  0  0  0  0  0  0  0
    7.4567   -6.9464   27.2858 C   0  0  0  0  0  0  0  0  0  0  0  0
    0.1921   -5.7592   27.1123 C   0  0  0  0  0  0  0  0  0  0  0  0
    3.5517   -7.7407   25.9711 C   0  0  0  0  0  0  0  0  0  0  0  0
  1  4  4  0
  1 22  4  0
  2 20  4  0
  2 27  4  0
  3 12  4  0
  3 23  4  0
  4 25  4  0
  4 28  1  0
  5  8  4  0
  5 17  4  0
  6  7  4  0
  6 16  4  0
  7 18  4  0
  8 27  4  0
  9 13  4  0
  9 23  4  0
 10 11  1  0
 11 14  2  0
 11 27  1  0
 12 19  1  0
 12 24  4  0
 13 24  4  0
 15 18  1  0
 16 25  4  0
 16 26  4  0
 17 20  4  0
 17 28  1  0
 18 21  4  0
 21 26  4  0
 22 26  4  0
M  END
$$$$

 Created by Python create_sdf_string function

 28 30  0  0  0  0  0  0  0  0999 V2000
    5.7174   -8.4529   26.7190 C   0  0  0  0  0  0  0  0  0  0  0  0
    0.3974   -7.0711   27.5149 C   0  0  0  0  0  0  0  0  0  0  0  0
    2.5338   -7.6891   16.0102 C   0  0  0  0  0  0  0  0  0  0  0  0
    4.8690   -7.4380   26.4151 C   0  0  0  0  0  0  0  0  0  0  0  0
    2.3021   -5.6726   26.0378 C   0  0  0  0  0  0  0  0  0  0  0  0
    7.0880   -4.6163   27.0010 C   0  0  0  0  0  0  0  0  0  0  0  0
    8.3117   -4.3698   27.4436 C   0  0  0  0  0  0  0  0  0  0  0  0
    1.1339   -5.0515   26.3541 C   0  0  0  0  0  0  0  0  0  0  0  0
    4.8080   -8.0362   16.7101 C   0  0  0  0  0  0  0  0  0  0  0  0
   -1.2173   -3.9294   26.9717 O   0  0  0  0  0  0  0  0  0  0  0  0
   -1.0025   -5.0942   27.4586 C   0  0  0  0  0  0  0  0  0  0  0  0
    2.2474   -8.9123   16.6273 C   0  0  0  0  0  0  0  0  0  0  0  0
    4.4957   -9.2636   17.3041 C   0  0  0  0  0  0  0  0  0  0  0  0
   -1.8070   -5.6086   28.1920 O   0  0  0  0  0  0  0  0  0  0  0  0
   10.4296   -5.1799   28.3140 C   0  0  0  0  0  0  0  0  0  0  0  0
    6.6017   -5.9004   26.9187 C   0  0  0  0  0  0  0  0  0  0  0  0
    2.4761   -6.9940   26.4111 N   0  0  0  0  0  0  0  0  0  0  0  0
    9.1353   -5.4053   27.8239 C   0  0  0  0  0  0  0  0  0  0  0  0
    0.9922   -9.3232   16.5995 O   0  0  0  0  0  0  0  0  0  0  0  0
    1.5232   -7.6869   27.1182 C   0  0  0  0  0  0  0  0  0  0  0  0
    8.6878   -6.6715   27.7262 N   0  0  0  0  0  0  0  0  0  0  0  0
    6.9911   -8.2423   27.1808 C   0  0  0  0  0  0  0  0  0  0  0  0
    3.8436   -7.2758   16.0578 C   0  0  0  0  0  0  0  0  0  0  0  0
    3.1882   -9.7190   17.2566 C   0  0  0  0  0  0  0  0  0  0  0  0
    5.3488   -6.1737   26.5092 C   0  0  0  0  0  0  0  0  0  0  0  0
    7.4567   -6.9464   27.2858 C   0  0  0  0  0  0  0  0  0  0  0  0
    0.1921   -5.7592   27.1123 C   0  0  0  0  0  0  0  0  0  0  0  0
    3.5517   -7.7407   25.9711 C   0  0  0  0  0  0  0  0  0  0  0  0
  1  4  4  0
  1 22  4  0
  2 20  4  0
  2 27  4  0
  3 12  4  0
  3 23  4  0
  4 25  4  0
  4 28  1  0
  5  8  4  0
  5 17  4  0
  6  7  4  0
  6 16  4  0
  7 18  4  0
  8 27  4  0
  9 13  4  0
  9 23  4  0
 10 11  1  0
 11 14  2  0
 11 27  1  0
 12 19  1  0
 12 24  4  0
 13 24  4  0
 15 18  1  0
 16 25  4  0
 16 26  4  0
 17 20  4  0
 17 28  1  0
 18 21  4  0
 21 26  4  0
 22 26  4  0
M  END
$$$$

 Created by Python create_sdf_string function

 28 30  0  0  0  0  0  0  0  0999 V2000
    5.7174   -8.4529   26.7190 C   0  0  0  0  0  0  0  0  0  0  0  0
    0.3974   -7.0711   27.5149 C   0  0  0  0  0  0  0  0  0  0  0  0
    2.5338   -7.6891   16.0102 C   0  0  0  0  0  0  0  0  0  0  0  0
    4.8690   -7.4380   26.4151 C   0  0  0  0  0  0  0  0  0  0  0  0
    2.3021   -5.6726   26.0378 C   0  0  0  0  0  0  0  0  0  0  0  0
    7.0880   -4.6163   27.0010 C   0  0  0  0  0  0  0  0  0  0  0  0
    8.3117   -4.3698   27.4436 C   0  0  0  0  0  0  0  0  0  0  0  0
    1.1339   -5.0515   26.3541 C   0  0  0  0  0  0  0  0  0  0  0  0
    4.8080   -8.0362   16.7101 C   0  0  0  0  0  0  0  0  0  0  0  0
   -1.2173   -3.9294   26.9717 O   0  0  0  0  0  0  0  0  0  0  0  0
   -1.0025   -5.0942   27.4586 C   0  0  0  0  0  0  0  0  0  0  0  0
    2.2474   -8.9123   16.6273 C   0  0  0  0  0  0  0  0  0  0  0  0
    4.4957   -9.2636   17.3041 C   0  0  0  0  0  0  0  0  0  0  0  0
   -1.8070   -5.6086   28.1920 O   0  0  0  0  0  0  0  0  0  0  0  0
   10.4296   -5.1799   28.3140 C   0  0  0  0  0  0  0  0  0  0  0  0
    6.6017   -5.9004   26.9187 C   0  0  0  0  0  0  0  0  0  0  0  0
    2.4761   -6.9940   26.4111 N   0  0  0  0  0  0  0  0  0  0  0  0
    9.1353   -5.4053   27.8239 C   0  0  0  0  0  0  0  0  0  0  0  0
    0.9922   -9.3232   16.5995 O   0  0  0  0  0  0  0  0  0  0  0  0
    1.5232   -7.6869   27.1182 C   0  0  0  0  0  0  0  0  0  0  0  0
    8.6878   -6.6715   27.7262 N   0  0  0  0  0  0  0  0  0  0  0  0
    6.9911   -8.2423   27.1808 C   0  0  0  0  0  0  0  0  0  0  0  0
    3.8436   -7.2758   16.0578 C   0  0  0  0  0  0  0  0  0  0  0  0
    3.1882   -9.7190   17.2566 C   0  0  0  0  0  0  0  0  0  0  0  0
    5.3488   -6.1737   26.5092 C   0  0  0  0  0  0  0  0  0  0  0  0
    7.4567   -6.9464   27.2858 C   0  0  0  0  0  0  0  0  0  0  0  0
    0.1921   -5.7592   27.1123 C   0  0  0  0  0  0  0  0  0  0  0  0
    3.5517   -7.7407   25.9711 C   0  0  0  0  0  0  0  0  0  0  0  0
  1  4  4  0
  1 22  4  0
  2 20  4  0
  2 27  4  0
  3 12  4  0
  3 23  4  0
  4 25  4  0
  4 28  1  0
  5  8  4  0
  5 17  4  0
  6  7  4  0
  6 16  4  0
  7 18  4  0
  8 27  4  0
  9 13  4  0
  9 23  4  0
 10 11  1  0
 11 14  2  0
 11 27  1  0
 12 19  1  0
 12 24  4  0
 13 24  4  0
 15 18  1  0
 16 25  4  0
 16 26  4  0
 17 20  4  0
 17 28  1  0
 18 21  4  0
 21 26  4  0
 22 26  4  0
M  END
$$$$

 Created by Python create_sdf_string function

 28 30  0  0  0  0  0  0  0  0999 V2000
    5.7174   -8.4529   26.7190 C   0  0  0  0  0  0  0  0  0  0  0  0
    0.3974   -7.0711   27.5149 C   0  0  0  0  0  0  0  0  0  0  0  0
    2.5338   -7.6891   16.0102 C   0  0  0  0  0  0  0  0  0  0  0  0
    4.8690   -7.4380   26.4151 C   0  0  0  0  0  0  0  0  0  0  0  0
    2.3021   -5.6726   26.0378 C   0  0  0  0  0  0  0  0  0  0  0  0
    7.0880   -4.6163   27.0010 C   0  0  0  0  0  0  0  0  0  0  0  0
    8.3117   -4.3698   27.4436 C   0  0  0  0  0  0  0  0  0  0  0  0
    1.1339   -5.0515   26.3541 C   0  0  0  0  0  0  0  0  0  0  0  0
    4.8080   -8.0362   16.7101 C   0  0  0  0  0  0  0  0  0  0  0  0
   -1.2173   -3.9294   26.9717 O   0  0  0  0  0  0  0  0  0  0  0  0
   -1.0025   -5.0942   27.4586 C   0  0  0  0  0  0  0  0  0  0  0  0
    2.2474   -8.9123   16.6273 C   0  0  0  0  0  0  0  0  0  0  0  0
    4.4957   -9.2636   17.3041 C   0  0  0  0  0  0  0  0  0  0  0  0
   -1.8070   -5.6086   28.1920 O   0  0  0  0  0  0  0  0  0  0  0  0
   10.4296   -5.1799   28.3140 C   0  0  0  0  0  0  0  0  0  0  0  0
    6.6017   -5.9004   26.9187 C   0  0  0  0  0  0  0  0  0  0  0  0
    2.4761   -6.9940   26.4111 N   0  0  0  0  0  0  0  0  0  0  0  0
    9.1353   -5.4053   27.8239 C   0  0  0  0  0  0  0  0  0  0  0  0
    0.9922   -9.3232   16.5995 O   0  0  0  0  0  0  0  0  0  0  0  0
    1.5232   -7.6869   27.1182 C   0  0  0  0  0  0  0  0  0  0  0  0
    8.6878   -6.6715   27.7262 N   0  0  0  0  0  0  0  0  0  0  0  0
    6.9911   -8.2423   27.1808 C   0  0  0  0  0  0  0  0  0  0  0  0
    3.8436   -7.2758   16.0578 C   0  0  0  0  0  0  0  0  0  0  0  0
    3.1882   -9.7190   17.2566 C   0  0  0  0  0  0  0  0  0  0  0  0
    5.3488   -6.1737   26.5092 C   0  0  0  0  0  0  0  0  0  0  0  0
    7.4567   -6.9464   27.2858 C   0  0  0  0  0  0  0  0  0  0  0  0
    0.1921   -5.7592   27.1123 C   0  0  0  0  0  0  0  0  0  0  0  0
    3.5517   -7.7407   25.9711 C   0  0  0  0  0  0  0  0  0  0  0  0
  1  4  4  0
  1 22  4  0
  2 20  4  0
  2 27  4  0
  3 12  4  0
  3 23  4  0
  4 25  4  0
  4 28  1  0
  5  8  4  0
  5 17  4  0
  6  7  4  0
  6 16  4  0
  7 18  4  0
  8 27  4  0
  9 13  4  0
  9 23  4  0
 10 11  1  0
 11 14  2  0
 11 27  1  0
 12 19  1  0
 12 24  4  0
 13 24  4  0
 15 18  1  0
 16 25  4  0
 16 26  4  0
 17 20  4  0
 17 28  1  0
 18 21  4  0
 21 26  4  0
 22 26  4  0
M  END
$$$$

 Created by Python create_sdf_string function

 28 30  0  0  0  0  0  0  0  0999 V2000
    5.7174   -8.4529   26.7190 C   0  0  0  0  0  0  0  0  0  0  0  0
    0.3974   -7.0711   27.5149 C   0  0  0  0  0  0  0  0  0  0  0  0
    2.5338   -7.6891   16.0102 C   0  0  0  0  0  0  0  0  0  0  0  0
    4.8690   -7.4380   26.4151 C   0  0  0  0  0  0  0  0  0  0  0  0
    2.3021   -5.6726   26.0378 C   0  0  0  0  0  0  0  0  0  0  0  0
    7.0880   -4.6163   27.0010 C   0  0  0  0  0  0  0  0  0  0  0  0
    8.3117   -4.3698   27.4436 C   0  0  0  0  0  0  0  0  0  0  0  0
    1.1339   -5.0515   26.3541 C   0  0  0  0  0  0  0  0  0  0  0  0
    4.8080   -8.0362   16.7101 C   0  0  0  0  0  0  0  0  0  0  0  0
   -1.2173   -3.9294   26.9717 O   0  0  0  0  0  0  0  0  0  0  0  0
   -1.0025   -5.0942   27.4586 C   0  0  0  0  0  0  0  0  0  0  0  0
    2.2474   -8.9123   16.6273 C   0  0  0  0  0  0  0  0  0  0  0  0
    4.4957   -9.2636   17.3041 C   0  0  0  0  0  0  0  0  0  0  0  0
   -1.8070   -5.6086   28.1920 O   0  0  0  0  0  0  0  0  0  0  0  0
   10.4296   -5.1799   28.3140 C   0  0  0  0  0  0  0  0  0  0  0  0
    6.6017   -5.9004   26.9187 C   0  0  0  0  0  0  0  0  0  0  0  0
    2.4761   -6.9940   26.4111 N   0  0  0  0  0  0  0  0  0  0  0  0
    9.1353   -5.4053   27.8239 C   0  0  0  0  0  0  0  0  0  0  0  0
    0.9922   -9.3232   16.5995 O   0  0  0  0  0  0  0  0  0  0  0  0
    1.5232   -7.6869   27.1182 C   0  0  0  0  0  0  0  0  0  0  0  0
    8.6878   -6.6715   27.7262 N   0  0  0  0  0  0  0  0  0  0  0  0
    6.9911   -8.2423   27.1808 C   0  0  0  0  0  0  0  0  0  0  0  0
    3.8436   -7.2758   16.0578 C   0  0  0  0  0  0  0  0  0  0  0  0
    3.1882   -9.7190   17.2566 C   0  0  0  0  0  0  0  0  0  0  0  0
    5.3488   -6.1737   26.5092 C   0  0  0  0  0  0  0  0  0  0  0  0
    7.4567   -6.9464   27.2858 C   0  0  0  0  0  0  0  0  0  0  0  0
    0.1921   -5.7592   27.1123 C   0  0  0  0  0  0  0  0  0  0  0  0
    3.5517   -7.7407   25.9711 C   0  0  0  0  0  0  0  0  0  0  0  0
  1  4  4  0
  1 22  4  0
  2 20  4  0
  2 27  4  0
  3 12  4  0
  3 23  4  0
  4 25  4  0
  4 28  1  0
  5  8  4  0
  5 17  4  0
  6  7  4  0
  6 16  4  0
  7 18  4  0
  8 27  4  0
  9 13  4  0
  9 23  4  0
 10 11  1  0
 11 14  2  0
 11 27  1  0
 12 19  1  0
 12 24  4  0
 13 24  4  0
 15 18  1  0
 16 25  4  0
 16 26  4  0
 17 20  4  0
 17 28  1  0
 18 21  4  0
 21 26  4  0
 22 26  4  0
M  END
$$$$

 Created by Python create_sdf_string function

 28 30  0  0  0  0  0  0  0  0999 V2000
    5.7174   -8.4529   26.7190 C   0  0  0  0  0  0  0  0  0  0  0  0
    0.3974   -7.0711   27.5149 C   0  0  0  0  0  0  0  0  0  0  0  0
    2.5338   -7.6891   16.0102 C   0  0  0  0  0  0  0  0  0  0  0  0
    4.8690   -7.4380   26.4151 C   0  0  0  0  0  0  0  0  0  0  0  0
    2.3021   -5.6726   26.0378 C   0  0  0  0  0  0  0  0  0  0  0  0
    7.0880   -4.6163   27.0010 C   0  0  0  0  0  0  0  0  0  0  0  0
    8.3117   -4.3698   27.4436 C   0  0  0  0  0  0  0  0  0  0  0  0
    1.1339   -5.0515   26.3541 C   0  0  0  0  0  0  0  0  0  0  0  0
    4.8080   -8.0362   16.7101 C   0  0  0  0  0  0  0  0  0  0  0  0
   -1.2173   -3.9294   26.9717 O   0  0  0  0  0  0  0  0  0  0  0  0
   -1.0025   -5.0942   27.4586 C   0  0  0  0  0  0  0  0  0  0  0  0
    2.2474   -8.9123   16.6273 C   0  0  0  0  0  0  0  0  0  0  0  0
    4.4957   -9.2636   17.3041 C   0  0  0  0  0  0  0  0  0  0  0  0
   -1.8070   -5.6086   28.1920 O   0  0  0  0  0  0  0  0  0  0  0  0
   10.4296   -5.1799   28.3140 C   0  0  0  0  0  0  0  0  0  0  0  0
    6.6017   -5.9004   26.9187 C   0  0  0  0  0  0  0  0  0  0  0  0
    2.4761   -6.9940   26.4111 N   0  0  0  0  0  0  0  0  0  0  0  0
    9.1353   -5.4053   27.8239 C   0  0  0  0  0  0  0  0  0  0  0  0
    0.9922   -9.3232   16.5995 O   0  0  0  0  0  0  0  0  0  0  0  0
    1.5232   -7.6869   27.1182 C   0  0  0  0  0  0  0  0  0  0  0  0
    8.6878   -6.6715   27.7262 N   0  0  0  0  0  0  0  0  0  0  0  0
    6.9911   -8.2423   27.1808 C   0  0  0  0  0  0  0  0  0  0  0  0
    3.8436   -7.2758   16.0578 C   0  0  0  0  0  0  0  0  0  0  0  0
    3.1882   -9.7190   17.2566 C   0  0  0  0  0  0  0  0  0  0  0  0
    5.3488   -6.1737   26.5092 C   0  0  0  0  0  0  0  0  0  0  0  0
    7.4567   -6.9464   27.2858 C   0  0  0  0  0  0  0  0  0  0  0  0
    0.1921   -5.7592   27.1123 C   0  0  0  0  0  0  0  0  0  0  0  0
    3.5517   -7.7407   25.9711 C   0  0  0  0  0  0  0  0  0  0  0  0
  1  4  4  0
  1 22  4  0
  2 20  4  0
  2 27  4  0
  3 12  4  0
  3 23  4  0
  4 25  4  0
  4 28  1  0
  5  8  4  0
  5 17  4  0
  6  7  4  0
  6 16  4  0
  7 18  4  0
  8 27  4  0
  9 13  4  0
  9 23  4  0
 10 11  1  0
 11 14  2  0
 11 27  1  0
 12 19  1  0
 12 24  4  0
 13 24  4  0
 15 18  1  0
 16 25  4  0
 16 26  4  0
 17 20  4  0
 17 28  1  0
 18 21  4  0
 21 26  4  0
 22 26  4  0
M  END
$$$$

 Created by Python create_sdf_string function

 28 30  0  0  0  0  0  0  0  0999 V2000
    5.7174   -8.4529   26.7190 C   0  0  0  0  0  0  0  0  0  0  0  0
    0.3974   -7.0711   27.5149 C   0  0  0  0  0  0  0  0  0  0  0  0
    2.5338   -7.6891   16.0102 C   0  0  0  0  0  0  0  0  0  0  0  0
    4.8690   -7.4380   26.4151 C   0  0  0  0  0  0  0  0  0  0  0  0
    2.3021   -5.6726   26.0378 C   0  0  0  0  0  0  0  0  0  0  0  0
    7.0880   -4.6163   27.0010 C   0  0  0  0  0  0  0  0  0  0  0  0
    8.3117   -4.3698   27.4436 C   0  0  0  0  0  0  0  0  0  0  0  0
    1.1339   -5.0515   26.3541 C   0  0  0  0  0  0  0  0  0  0  0  0
    4.8080   -8.0362   16.7101 C   0  0  0  0  0  0  0  0  0  0  0  0
   -1.2173   -3.9294   26.9717 O   0  0  0  0  0  0  0  0  0  0  0  0
   -1.0025   -5.0942   27.4586 C   0  0  0  0  0  0  0  0  0  0  0  0
    2.2474   -8.9123   16.6273 C   0  0  0  0  0  0  0  0  0  0  0  0
    4.4957   -9.2636   17.3041 C   0  0  0  0  0  0  0  0  0  0  0  0
   -1.8070   -5.6086   28.1920 O   0  0  0  0  0  0  0  0  0  0  0  0
   10.4296   -5.1799   28.3140 C   0  0  0  0  0  0  0  0  0  0  0  0
    6.6017   -5.9004   26.9187 C   0  0  0  0  0  0  0  0  0  0  0  0
    2.4761   -6.9940   26.4111 N   0  0  0  0  0  0  0  0  0  0  0  0
    9.1353   -5.4053   27.8239 C   0  0  0  0  0  0  0  0  0  0  0  0
    0.9922   -9.3232   16.5995 O   0  0  0  0  0  0  0  0  0  0  0  0
    1.5232   -7.6869   27.1182 C   0  0  0  0  0  0  0  0  0  0  0  0
    8.6878   -6.6715   27.7262 N   0  0  0  0  0  0  0  0  0  0  0  0
    6.9911   -8.2423   27.1808 C   0  0  0  0  0  0  0  0  0  0  0  0
    3.8436   -7.2758   16.0578 C   0  0  0  0  0  0  0  0  0  0  0  0
    3.1882   -9.7190   17.2566 C   0  0  0  0  0  0  0  0  0  0  0  0
    5.3488   -6.1737   26.5092 C   0  0  0  0  0  0  0  0  0  0  0  0
    7.4567   -6.9464   27.2858 C   0  0  0  0  0  0  0  0  0  0  0  0
    0.1921   -5.7592   27.1123 C   0  0  0  0  0  0  0  0  0  0  0  0
    3.5517   -7.7407   25.9711 C   0  0  0  0  0  0  0  0  0  0  0  0
  1  4  4  0
  1 22  4  0
  2 20  4  0
  2 27  4  0
  3 12  4  0
  3 23  4  0
  4 25  4  0
  4 28  1  0
  5  8  4  0
  5 17  4  0
  6  7  4  0
  6 16  4  0
  7 18  4  0
  8 27  4  0
  9 13  4  0
  9 23  4  0
 10 11  1  0
 11 14  2  0
 11 27  1  0
 12 19  1  0
 12 24  4  0
 13 24  4  0
 15 18  1  0
 16 25  4  0
 16 26  4  0
 17 20  4  0
 17 28  1  0
 18 21  4  0
 21 26  4  0
 22 26  4  0
M  END
$$$$

 Created by Python create_sdf_string function

 28 30  0  0  0  0  0  0  0  0999 V2000
    5.7174   -8.4529   26.7190 C   0  0  0  0  0  0  0  0  0  0  0  0
    0.3974   -7.0711   27.5149 C   0  0  0  0  0  0  0  0  0  0  0  0
    2.5338   -7.6891   16.0102 C   0  0  0  0  0  0  0  0  0  0  0  0
    4.8690   -7.4380   26.4151 C   0  0  0  0  0  0  0  0  0  0  0  0
    2.3021   -5.6726   26.0378 C   0  0  0  0  0  0  0  0  0  0  0  0
    7.0880   -4.6163   27.0010 C   0  0  0  0  0  0  0  0  0  0  0  0
    8.3117   -4.3698   27.4436 C   0  0  0  0  0  0  0  0  0  0  0  0
    1.1339   -5.0515   26.3541 C   0  0  0  0  0  0  0  0  0  0  0  0
    4.8080   -8.0362   16.7101 C   0  0  0  0  0  0  0  0  0  0  0  0
   -1.2173   -3.9294   26.9717 O   0  0  0  0  0  0  0  0  0  0  0  0
   -1.0025   -5.0942   27.4586 C   0  0  0  0  0  0  0  0  0  0  0  0
    2.2474   -8.9123   16.6273 C   0  0  0  0  0  0  0  0  0  0  0  0
    4.4957   -9.2636   17.3041 C   0  0  0  0  0  0  0  0  0  0  0  0
   -1.8070   -5.6086   28.1920 O   0  0  0  0  0  0  0  0  0  0  0  0
   10.4296   -5.1799   28.3140 C   0  0  0  0  0  0  0  0  0  0  0  0
    6.6017   -5.9004   26.9187 C   0  0  0  0  0  0  0  0  0  0  0  0
    2.4761   -6.9940   26.4111 N   0  0  0  0  0  0  0  0  0  0  0  0
    9.1353   -5.4053   27.8239 C   0  0  0  0  0  0  0  0  0  0  0  0
    0.9922   -9.3232   16.5995 O   0  0  0  0  0  0  0  0  0  0  0  0
    1.5232   -7.6869   27.1182 C   0  0  0  0  0  0  0  0  0  0  0  0
    8.6878   -6.6715   27.7262 N   0  0  0  0  0  0  0  0  0  0  0  0
    6.9911   -8.2423   27.1808 C   0  0  0  0  0  0  0  0  0  0  0  0
    3.8436   -7.2758   16.0578 C   0  0  0  0  0  0  0  0  0  0  0  0
    3.1882   -9.7190   17.2566 C   0  0  0  0  0  0  0  0  0  0  0  0
    5.3488   -6.1737   26.5092 C   0  0  0  0  0  0  0  0  0  0  0  0
    7.4567   -6.9464   27.2858 C   0  0  0  0  0  0  0  0  0  0  0  0
    0.1921   -5.7592   27.1123 C   0  0  0  0  0  0  0  0  0  0  0  0
    3.5517   -7.7407   25.9711 C   0  0  0  0  0  0  0  0  0  0  0  0
  1  4  4  0
  1 22  4  0
  2 20  4  0
  2 27  4  0
  3 12  4  0
  3 23  4  0
  4 25  4  0
  4 28  1  0
  5  8  4  0
  5 17  4  0
  6  7  4  0
  6 16  4  0
  7 18  4  0
  8 27  4  0
  9 13  4  0
  9 23  4  0
 10 11  1  0
 11 14  2  0
 11 27  1  0
 12 19  1  0
 12 24  4  0
 13 24  4  0
 15 18  1  0
 16 25  4  0
 16 26  4  0
 17 20  4  0
 17 28  1  0
 18 21  4  0
 21 26  4  0
 22 26  4  0
M  END
$$$$

 Created by Python create_sdf_string function

 28 30  0  0  0  0  0  0  0  0999 V2000
    5.7174   -8.4529   26.7190 C   0  0  0  0  0  0  0  0  0  0  0  0
    0.3974   -7.0711   27.5149 C   0  0  0  0  0  0  0  0  0  0  0  0
    2.5338   -7.6891   16.0102 C   0  0  0  0  0  0  0  0  0  0  0  0
    4.8690   -7.4380   26.4151 C   0  0  0  0  0  0  0  0  0  0  0  0
    2.3021   -5.6726   26.0378 C   0  0  0  0  0  0  0  0  0  0  0  0
    7.0880   -4.6163   27.0010 C   0  0  0  0  0  0  0  0  0  0  0  0
    8.3117   -4.3698   27.4436 C   0  0  0  0  0  0  0  0  0  0  0  0
    1.1339   -5.0515   26.3541 C   0  0  0  0  0  0  0  0  0  0  0  0
    4.8080   -8.0362   16.7101 C   0  0  0  0  0  0  0  0  0  0  0  0
   -1.2173   -3.9294   26.9717 O   0  0  0  0  0  0  0  0  0  0  0  0
   -1.0025   -5.0942   27.4586 C   0  0  0  0  0  0  0  0  0  0  0  0
    2.2474   -8.9123   16.6273 C   0  0  0  0  0  0  0  0  0  0  0  0
    4.4957   -9.2636   17.3041 C   0  0  0  0  0  0  0  0  0  0  0  0
   -1.8070   -5.6086   28.1920 O   0  0  0  0  0  0  0  0  0  0  0  0
   10.4296   -5.1799   28.3140 C   0  0  0  0  0  0  0  0  0  0  0  0
    6.6017   -5.9004   26.9187 C   0  0  0  0  0  0  0  0  0  0  0  0
    2.4761   -6.9940   26.4111 N   0  0  0  0  0  0  0  0  0  0  0  0
    9.1353   -5.4053   27.8239 C   0  0  0  0  0  0  0  0  0  0  0  0
    0.9922   -9.3232   16.5995 O   0  0  0  0  0  0  0  0  0  0  0  0
    1.5232   -7.6869   27.1182 C   0  0  0  0  0  0  0  0  0  0  0  0
    8.6878   -6.6715   27.7262 N   0  0  0  0  0  0  0  0  0  0  0  0
    6.9911   -8.2423   27.1808 C   0  0  0  0  0  0  0  0  0  0  0  0
    3.8436   -7.2758   16.0578 C   0  0  0  0  0  0  0  0  0  0  0  0
    3.1882   -9.7190   17.2566 C   0  0  0  0  0  0  0  0  0  0  0  0
    5.3488   -6.1737   26.5092 C   0  0  0  0  0  0  0  0  0  0  0  0
    7.4567   -6.9464   27.2858 C   0  0  0  0  0  0  0  0  0  0  0  0
    0.1921   -5.7592   27.1123 C   0  0  0  0  0  0  0  0  0  0  0  0
    3.5517   -7.7407   25.9711 C   0  0  0  0  0  0  0  0  0  0  0  0
  1  4  4  0
  1 22  4  0
  2 20  4  0
  2 27  4  0
  3 12  4  0
  3 23  4  0
  4 25  4  0
  4 28  1  0
  5  8  4  0
  5 17  4  0
  6  7  4  0
  6 16  4  0
  7 18  4  0
  8 27  4  0
  9 13  4  0
  9 23  4  0
 10 11  1  0
 11 14  2  0
 11 27  1  0
 12 19  1  0
 12 24  4  0
 13 24  4  0
 15 18  1  0
 16 25  4  0
 16 26  4  0
 17 20  4  0
 17 28  1  0
 18 21  4  0
 21 26  4  0
 22 26  4  0
M  END
$$$$

 Created by Python create_sdf_string function

 28 30  0  0  0  0  0  0  0  0999 V2000
    5.7174   -8.4529   26.7190 C   0  0  0  0  0  0  0  0  0  0  0  0
    0.3974   -7.0711   27.5149 C   0  0  0  0  0  0  0  0  0  0  0  0
    2.5338   -7.6891   16.0102 C   0  0  0  0  0  0  0  0  0  0  0  0
    4.8690   -7.4380   26.4151 C   0  0  0  0  0  0  0  0  0  0  0  0
    2.3021   -5.6726   26.0378 C   0  0  0  0  0  0  0  0  0  0  0  0
    7.0880   -4.6163   27.0010 C   0  0  0  0  0  0  0  0  0  0  0  0
    8.3117   -4.3698   27.4436 C   0  0  0  0  0  0  0  0  0  0  0  0
    1.1339   -5.0515   26.3541 C   0  0  0  0  0  0  0  0  0  0  0  0
    4.8080   -8.0362   16.7101 C   0  0  0  0  0  0  0  0  0  0  0  0
   -1.2173   -3.9294   26.9717 O   0  0  0  0  0  0  0  0  0  0  0  0
   -1.0025   -5.0942   27.4586 C   0  0  0  0  0  0  0  0  0  0  0  0
    2.2474   -8.9123   16.6273 C   0  0  0  0  0  0  0  0  0  0  0  0
    4.4957   -9.2636   17.3041 C   0  0  0  0  0  0  0  0  0  0  0  0
   -1.8070   -5.6086   28.1920 O   0  0  0  0  0  0  0  0  0  0  0  0
   10.4296   -5.1799   28.3140 C   0  0  0  0  0  0  0  0  0  0  0  0
    6.6017   -5.9004   26.9187 C   0  0  0  0  0  0  0  0  0  0  0  0
    2.4761   -6.9940   26.4111 N   0  0  0  0  0  0  0  0  0  0  0  0
    9.1353   -5.4053   27.8239 C   0  0  0  0  0  0  0  0  0  0  0  0
    0.9922   -9.3232   16.5995 O   0  0  0  0  0  0  0  0  0  0  0  0
    1.5232   -7.6869   27.1182 C   0  0  0  0  0  0  0  0  0  0  0  0
    8.6878   -6.6715   27.7262 N   0  0  0  0  0  0  0  0  0  0  0  0
    6.9911   -8.2423   27.1808 C   0  0  0  0  0  0  0  0  0  0  0  0
    3.8436   -7.2758   16.0578 C   0  0  0  0  0  0  0  0  0  0  0  0
    3.1882   -9.7190   17.2566 C   0  0  0  0  0  0  0  0  0  0  0  0
    5.3488   -6.1737   26.5092 C   0  0  0  0  0  0  0  0  0  0  0  0
    7.4567   -6.9464   27.2858 C   0  0  0  0  0  0  0  0  0  0  0  0
    0.1921   -5.7592   27.1123 C   0  0  0  0  0  0  0  0  0  0  0  0
    3.5517   -7.7407   25.9711 C   0  0  0  0  0  0  0  0  0  0  0  0
  1  4  4  0
  1 22  4  0
  2 20  4  0
  2 27  4  0
  3 12  4  0
  3 23  4  0
  4 25  4  0
  4 28  1  0
  5  8  4  0
  5 17  4  0
  6  7  4  0
  6 16  4  0
  7 18  4  0
  8 27  4  0
  9 13  4  0
  9 23  4  0
 10 11  1  0
 11 14  2  0
 11 27  1  0
 12 19  1  0
 12 24  4  0
 13 24  4  0
 15 18  1  0
 16 25  4  0
 16 26  4  0
 17 20  4  0
 17 28  1  0
 18 21  4  0
 21 26  4  0
 22 26  4  0
M  END
$$$$

 Created by Python create_sdf_string function

 28 30  0  0  0  0  0  0  0  0999 V2000
    5.7174   -8.4529   26.7190 C   0  0  0  0  0  0  0  0  0  0  0  0
    0.3974   -7.0711   27.5149 C   0  0  0  0  0  0  0  0  0  0  0  0
    2.5338   -7.6891   16.0102 C   0  0  0  0  0  0  0  0  0  0  0  0
    4.8690   -7.4380   26.4151 C   0  0  0  0  0  0  0  0  0  0  0  0
    2.3021   -5.6726   26.0378 C   0  0  0  0  0  0  0  0  0  0  0  0
    7.0880   -4.6163   27.0010 C   0  0  0  0  0  0  0  0  0  0  0  0
    8.3117   -4.3698   27.4436 C   0  0  0  0  0  0  0  0  0  0  0  0
    1.1339   -5.0515   26.3541 C   0  0  0  0  0  0  0  0  0  0  0  0
    4.8080   -8.0362   16.7101 C   0  0  0  0  0  0  0  0  0  0  0  0
   -1.2173   -3.9294   26.9717 O   0  0  0  0  0  0  0  0  0  0  0  0
   -1.0025   -5.0942   27.4586 C   0  0  0  0  0  0  0  0  0  0  0  0
    2.2474   -8.9123   16.6273 C   0  0  0  0  0  0  0  0  0  0  0  0
    4.4957   -9.2636   17.3041 C   0  0  0  0  0  0  0  0  0  0  0  0
   -1.8070   -5.6086   28.1920 O   0  0  0  0  0  0  0  0  0  0  0  0
   10.4296   -5.1799   28.3140 C   0  0  0  0  0  0  0  0  0  0  0  0
    6.6017   -5.9004   26.9187 C   0  0  0  0  0  0  0  0  0  0  0  0
    2.4761   -6.9940   26.4111 N   0  0  0  0  0  0  0  0  0  0  0  0
    9.1353   -5.4053   27.8239 C   0  0  0  0  0  0  0  0  0  0  0  0
    0.9922   -9.3232   16.5995 O   0  0  0  0  0  0  0  0  0  0  0  0
    1.5232   -7.6869   27.1182 C   0  0  0  0  0  0  0  0  0  0  0  0
    8.6878   -6.6715   27.7262 N   0  0  0  0  0  0  0  0  0  0  0  0
    6.9911   -8.2423   27.1808 C   0  0  0  0  0  0  0  0  0  0  0  0
    3.8436   -7.2758   16.0578 C   0  0  0  0  0  0  0  0  0  0  0  0
    3.1882   -9.7190   17.2566 C   0  0  0  0  0  0  0  0  0  0  0  0
    5.3488   -6.1737   26.5092 C   0  0  0  0  0  0  0  0  0  0  0  0
    7.4567   -6.9464   27.2858 C   0  0  0  0  0  0  0  0  0  0  0  0
    0.1921   -5.7592   27.1123 C   0  0  0  0  0  0  0  0  0  0  0  0
    3.5517   -7.7407   25.9711 C   0  0  0  0  0  0  0  0  0  0  0  0
  1  4  4  0
  1 22  4  0
  2 20  4  0
  2 27  4  0
  3 12  4  0
  3 23  4  0
  4 25  4  0
  4 28  1  0
  5  8  4  0
  5 17  4  0
  6  7  4  0
  6 16  4  0
  7 18  4  0
  8 27  4  0
  9 13  4  0
  9 23  4  0
 10 11  1  0
 11 14  2  0
 11 27  1  0
 12 19  1  0
 12 24  4  0
 13 24  4  0
 15 18  1  0
 16 25  4  0
 16 26  4  0
 17 20  4  0
 17 28  1  0
 18 21  4  0
 21 26  4  0
 22 26  4  0
M  END
$$$$

 Created by Python create_sdf_string function

 28 30  0  0  0  0  0  0  0  0999 V2000
    5.7174   -8.4529   26.7190 C   0  0  0  0  0  0  0  0  0  0  0  0
    0.3974   -7.0711   27.5149 C   0  0  0  0  0  0  0  0  0  0  0  0
    2.5338   -7.6891   16.0102 C   0  0  0  0  0  0  0  0  0  0  0  0
    4.8690   -7.4380   26.4151 C   0  0  0  0  0  0  0  0  0  0  0  0
    2.3021   -5.6726   26.0378 C   0  0  0  0  0  0  0  0  0  0  0  0
    7.0880   -4.6163   27.0010 C   0  0  0  0  0  0  0  0  0  0  0  0
    8.3117   -4.3698   27.4436 C   0  0  0  0  0  0  0  0  0  0  0  0
    1.1339   -5.0515   26.3541 C   0  0  0  0  0  0  0  0  0  0  0  0
    4.8080   -8.0362   16.7101 C   0  0  0  0  0  0  0  0  0  0  0  0
   -1.2173   -3.9294   26.9717 O   0  0  0  0  0  0  0  0  0  0  0  0
   -1.0025   -5.0942   27.4586 C   0  0  0  0  0  0  0  0  0  0  0  0
    2.2474   -8.9123   16.6273 C   0  0  0  0  0  0  0  0  0  0  0  0
    4.4957   -9.2636   17.3041 C   0  0  0  0  0  0  0  0  0  0  0  0
   -1.8070   -5.6086   28.1920 O   0  0  0  0  0  0  0  0  0  0  0  0
   10.4296   -5.1799   28.3140 C   0  0  0  0  0  0  0  0  0  0  0  0
    6.6017   -5.9004   26.9187 C   0  0  0  0  0  0  0  0  0  0  0  0
    2.4761   -6.9940   26.4111 N   0  0  0  0  0  0  0  0  0  0  0  0
    9.1353   -5.4053   27.8239 C   0  0  0  0  0  0  0  0  0  0  0  0
    0.9922   -9.3232   16.5995 O   0  0  0  0  0  0  0  0  0  0  0  0
    1.5232   -7.6869   27.1182 C   0  0  0  0  0  0  0  0  0  0  0  0
    8.6878   -6.6715   27.7262 N   0  0  0  0  0  0  0  0  0  0  0  0
    6.9911   -8.2423   27.1808 C   0  0  0  0  0  0  0  0  0  0  0  0
    3.8436   -7.2758   16.0578 C   0  0  0  0  0  0  0  0  0  0  0  0
    3.1882   -9.7190   17.2566 C   0  0  0  0  0  0  0  0  0  0  0  0
    5.3488   -6.1737   26.5092 C   0  0  0  0  0  0  0  0  0  0  0  0
    7.4567   -6.9464   27.2858 C   0  0  0  0  0  0  0  0  0  0  0  0
    0.1921   -5.7592   27.1123 C   0  0  0  0  0  0  0  0  0  0  0  0
    3.5517   -7.7407   25.9711 C   0  0  0  0  0  0  0  0  0  0  0  0
  1  4  4  0
  1 22  4  0
  2 20  4  0
  2 27  4  0
  3 12  4  0
  3 23  4  0
  4 25  4  0
  4 28  1  0
  5  8  4  0
  5 17  4  0
  6  7  4  0
  6 16  4  0
  7 18  4  0
  8 27  4  0
  9 13  4  0
  9 23  4  0
 10 11  1  0
 11 14  2  0
 11 27  1  0
 12 19  1  0
 12 24  4  0
 13 24  4  0
 15 18  1  0
 16 25  4  0
 16 26  4  0
 17 20  4  0
 17 28  1  0
 18 21  4  0
 21 26  4  0
 22 26  4  0
M  END
$$$$

 Created by Python create_sdf_string function

 28 30  0  0  0  0  0  0  0  0999 V2000
    5.7174   -8.4529   26.7190 C   0  0  0  0  0  0  0  0  0  0  0  0
    0.3974   -7.0711   27.5149 C   0  0  0  0  0  0  0  0  0  0  0  0
    2.5338   -7.6891   16.0102 C   0  0  0  0  0  0  0  0  0  0  0  0
    4.8690   -7.4380   26.4151 C   0  0  0  0  0  0  0  0  0  0  0  0
    2.3021   -5.6726   26.0378 C   0  0  0  0  0  0  0  0  0  0  0  0
    7.0880   -4.6163   27.0010 C   0  0  0  0  0  0  0  0  0  0  0  0
    8.3117   -4.3698   27.4436 C   0  0  0  0  0  0  0  0  0  0  0  0
    1.1339   -5.0515   26.3541 C   0  0  0  0  0  0  0  0  0  0  0  0
    4.8080   -8.0362   16.7101 C   0  0  0  0  0  0  0  0  0  0  0  0
   -1.2173   -3.9294   26.9717 O   0  0  0  0  0  0  0  0  0  0  0  0
   -1.0025   -5.0942   27.4586 C   0  0  0  0  0  0  0  0  0  0  0  0
    2.2474   -8.9123   16.6273 C   0  0  0  0  0  0  0  0  0  0  0  0
    4.4957   -9.2636   17.3041 C   0  0  0  0  0  0  0  0  0  0  0  0
   -1.8070   -5.6086   28.1920 O   0  0  0  0  0  0  0  0  0  0  0  0
   10.4296   -5.1799   28.3140 C   0  0  0  0  0  0  0  0  0  0  0  0
    6.6017   -5.9004   26.9187 C   0  0  0  0  0  0  0  0  0  0  0  0
    2.4761   -6.9940   26.4111 N   0  0  0  0  0  0  0  0  0  0  0  0
    9.1353   -5.4053   27.8239 C   0  0  0  0  0  0  0  0  0  0  0  0
    0.9922   -9.3232   16.5995 O   0  0  0  0  0  0  0  0  0  0  0  0
    1.5232   -7.6869   27.1182 C   0  0  0  0  0  0  0  0  0  0  0  0
    8.6878   -6.6715   27.7262 N   0  0  0  0  0  0  0  0  0  0  0  0
    6.9911   -8.2423   27.1808 C   0  0  0  0  0  0  0  0  0  0  0  0
    3.8436   -7.2758   16.0578 C   0  0  0  0  0  0  0  0  0  0  0  0
    3.1882   -9.7190   17.2566 C   0  0  0  0  0  0  0  0  0  0  0  0
    5.3488   -6.1737   26.5092 C   0  0  0  0  0  0  0  0  0  0  0  0
    7.4567   -6.9464   27.2858 C   0  0  0  0  0  0  0  0  0  0  0  0
    0.1921   -5.7592   27.1123 C   0  0  0  0  0  0  0  0  0  0  0  0
    3.5517   -7.7407   25.9711 C   0  0  0  0  0  0  0  0  0  0  0  0
  1  4  4  0
  1 22  4  0
  2 20  4  0
  2 27  4  0
  3 12  4  0
  3 23  4  0
  4 25  4  0
  4 28  1  0
  5  8  4  0
  5 17  4  0
  6  7  4  0
  6 16  4  0
  7 18  4  0
  8 27  4  0
  9 13  4  0
  9 23  4  0
 10 11  1  0
 11 14  2  0
 11 27  1  0
 12 19  1  0
 12 24  4  0
 13 24  4  0
 15 18  1  0
 16 25  4  0
 16 26  4  0
 17 20  4  0
 17 28  1  0
 18 21  4  0
 21 26  4  0
 22 26  4  0
M  END
$$$$

 Created by Python create_sdf_string function

 28 30  0  0  0  0  0  0  0  0999 V2000
    5.7174   -8.4529   26.7190 C   0  0  0  0  0  0  0  0  0  0  0  0
    0.3974   -7.0711   27.5149 C   0  0  0  0  0  0  0  0  0  0  0  0
    2.5338   -7.6891   16.0102 C   0  0  0  0  0  0  0  0  0  0  0  0
    4.8690   -7.4380   26.4151 C   0  0  0  0  0  0  0  0  0  0  0  0
    2.3021   -5.6726   26.0378 C   0  0  0  0  0  0  0  0  0  0  0  0
    7.0880   -4.6163   27.0010 C   0  0  0  0  0  0  0  0  0  0  0  0
    8.3117   -4.3698   27.4436 C   0  0  0  0  0  0  0  0  0  0  0  0
    1.1339   -5.0515   26.3541 C   0  0  0  0  0  0  0  0  0  0  0  0
    4.8080   -8.0362   16.7101 C   0  0  0  0  0  0  0  0  0  0  0  0
   -1.2173   -3.9294   26.9717 O   0  0  0  0  0  0  0  0  0  0  0  0
   -1.0025   -5.0942   27.4586 C   0  0  0  0  0  0  0  0  0  0  0  0
    2.2474   -8.9123   16.6273 C   0  0  0  0  0  0  0  0  0  0  0  0
    4.4957   -9.2636   17.3041 C   0  0  0  0  0  0  0  0  0  0  0  0
   -1.8070   -5.6086   28.1920 O   0  0  0  0  0  0  0  0  0  0  0  0
   10.4296   -5.1799   28.3140 C   0  0  0  0  0  0  0  0  0  0  0  0
    6.6017   -5.9004   26.9187 C   0  0  0  0  0  0  0  0  0  0  0  0
    2.4761   -6.9940   26.4111 N   0  0  0  0  0  0  0  0  0  0  0  0
    9.1353   -5.4053   27.8239 C   0  0  0  0  0  0  0  0  0  0  0  0
    0.9922   -9.3232   16.5995 O   0  0  0  0  0  0  0  0  0  0  0  0
    1.5232   -7.6869   27.1182 C   0  0  0  0  0  0  0  0  0  0  0  0
    8.6878   -6.6715   27.7262 N   0  0  0  0  0  0  0  0  0  0  0  0
    6.9911   -8.2423   27.1808 C   0  0  0  0  0  0  0  0  0  0  0  0
    3.8436   -7.2758   16.0578 C   0  0  0  0  0  0  0  0  0  0  0  0
    3.1882   -9.7190   17.2566 C   0  0  0  0  0  0  0  0  0  0  0  0
    5.3488   -6.1737   26.5092 C   0  0  0  0  0  0  0  0  0  0  0  0
    7.4567   -6.9464   27.2858 C   0  0  0  0  0  0  0  0  0  0  0  0
    0.1921   -5.7592   27.1123 C   0  0  0  0  0  0  0  0  0  0  0  0
    3.5517   -7.7407   25.9711 C   0  0  0  0  0  0  0  0  0  0  0  0
  1  4  4  0
  1 22  4  0
  2 20  4  0
  2 27  4  0
  3 12  4  0
  3 23  4  0
  4 25  4  0
  4 28  1  0
  5  8  4  0
  5 17  4  0
  6  7  4  0
  6 16  4  0
  7 18  4  0
  8 27  4  0
  9 13  4  0
  9 23  4  0
 10 11  1  0
 11 14  2  0
 11 27  1  0
 12 19  1  0
 12 24  4  0
 13 24  4  0
 15 18  1  0
 16 25  4  0
 16 26  4  0
 17 20  4  0
 17 28  1  0
 18 21  4  0
 21 26  4  0
 22 26  4  0
M  END
$$$$

 Created by Python create_sdf_string function

 28 30  0  0  0  0  0  0  0  0999 V2000
    5.7174   -8.4529   26.7190 C   0  0  0  0  0  0  0  0  0  0  0  0
    0.3974   -7.0711   27.5149 C   0  0  0  0  0  0  0  0  0  0  0  0
    2.5338   -7.6891   16.0102 C   0  0  0  0  0  0  0  0  0  0  0  0
    4.8690   -7.4380   26.4151 C   0  0  0  0  0  0  0  0  0  0  0  0
    2.3021   -5.6726   26.0378 C   0  0  0  0  0  0  0  0  0  0  0  0
    7.0880   -4.6163   27.0010 C   0  0  0  0  0  0  0  0  0  0  0  0
    8.3117   -4.3698   27.4436 C   0  0  0  0  0  0  0  0  0  0  0  0
    1.1339   -5.0515   26.3541 C   0  0  0  0  0  0  0  0  0  0  0  0
    4.8080   -8.0362   16.7101 C   0  0  0  0  0  0  0  0  0  0  0  0
   -1.2173   -3.9294   26.9717 O   0  0  0  0  0  0  0  0  0  0  0  0
   -1.0025   -5.0942   27.4586 C   0  0  0  0  0  0  0  0  0  0  0  0
    2.2474   -8.9123   16.6273 C   0  0  0  0  0  0  0  0  0  0  0  0
    4.4957   -9.2636   17.3041 C   0  0  0  0  0  0  0  0  0  0  0  0
   -1.8070   -5.6086   28.1920 O   0  0  0  0  0  0  0  0  0  0  0  0
   10.4296   -5.1799   28.3140 C   0  0  0  0  0  0  0  0  0  0  0  0
    6.6017   -5.9004   26.9187 C   0  0  0  0  0  0  0  0  0  0  0  0
    2.4761   -6.9940   26.4111 N   0  0  0  0  0  0  0  0  0  0  0  0
    9.1353   -5.4053   27.8239 C   0  0  0  0  0  0  0  0  0  0  0  0
    0.9922   -9.3232   16.5995 O   0  0  0  0  0  0  0  0  0  0  0  0
    1.5232   -7.6869   27.1182 C   0  0  0  0  0  0  0  0  0  0  0  0
    8.6878   -6.6715   27.7262 N   0  0  0  0  0  0  0  0  0  0  0  0
    6.9911   -8.2423   27.1808 C   0  0  0  0  0  0  0  0  0  0  0  0
    3.8436   -7.2758   16.0578 C   0  0  0  0  0  0  0  0  0  0  0  0
    3.1882   -9.7190   17.2566 C   0  0  0  0  0  0  0  0  0  0  0  0
    5.3488   -6.1737   26.5092 C   0  0  0  0  0  0  0  0  0  0  0  0
    7.4567   -6.9464   27.2858 C   0  0  0  0  0  0  0  0  0  0  0  0
    0.1921   -5.7592   27.1123 C   0  0  0  0  0  0  0  0  0  0  0  0
    3.5517   -7.7407   25.9711 C   0  0  0  0  0  0  0  0  0  0  0  0
  1  4  4  0
  1 22  4  0
  2 20  4  0
  2 27  4  0
  3 12  4  0
  3 23  4  0
  4 25  4  0
  4 28  1  0
  5  8  4  0
  5 17  4  0
  6  7  4  0
  6 16  4  0
  7 18  4  0
  8 27  4  0
  9 13  4  0
  9 23  4  0
 10 11  1  0
 11 14  2  0
 11 27  1  0
 12 19  1  0
 12 24  4  0
 13 24  4  0
 15 18  1  0
 16 25  4  0
 16 26  4  0
 17 20  4  0
 17 28  1  0
 18 21  4  0
 21 26  4  0
 22 26  4  0
M  END
$$$$

 Created by Python create_sdf_string function

 28 30  0  0  0  0  0  0  0  0999 V2000
    5.7174   -8.4529   26.7190 C   0  0  0  0  0  0  0  0  0  0  0  0
    0.3974   -7.0711   27.5149 C   0  0  0  0  0  0  0  0  0  0  0  0
    2.5338   -7.6891   16.0102 C   0  0  0  0  0  0  0  0  0  0  0  0
    4.8690   -7.4380   26.4151 C   0  0  0  0  0  0  0  0  0  0  0  0
    2.3021   -5.6726   26.0378 C   0  0  0  0  0  0  0  0  0  0  0  0
    7.0880   -4.6163   27.0010 C   0  0  0  0  0  0  0  0  0  0  0  0
    8.3117   -4.3698   27.4436 C   0  0  0  0  0  0  0  0  0  0  0  0
    1.1339   -5.0515   26.3541 C   0  0  0  0  0  0  0  0  0  0  0  0
    4.8080   -8.0362   16.7101 C   0  0  0  0  0  0  0  0  0  0  0  0
   -1.2173   -3.9294   26.9717 O   0  0  0  0  0  0  0  0  0  0  0  0
   -1.0025   -5.0942   27.4586 C   0  0  0  0  0  0  0  0  0  0  0  0
    2.2474   -8.9123   16.6273 C   0  0  0  0  0  0  0  0  0  0  0  0
    4.4957   -9.2636   17.3041 C   0  0  0  0  0  0  0  0  0  0  0  0
   -1.8070   -5.6086   28.1920 O   0  0  0  0  0  0  0  0  0  0  0  0
   10.4296   -5.1799   28.3140 C   0  0  0  0  0  0  0  0  0  0  0  0
    6.6017   -5.9004   26.9187 C   0  0  0  0  0  0  0  0  0  0  0  0
    2.4761   -6.9940   26.4111 N   0  0  0  0  0  0  0  0  0  0  0  0
    9.1353   -5.4053   27.8239 C   0  0  0  0  0  0  0  0  0  0  0  0
    0.9922   -9.3232   16.5995 O   0  0  0  0  0  0  0  0  0  0  0  0
    1.5232   -7.6869   27.1182 C   0  0  0  0  0  0  0  0  0  0  0  0
    8.6878   -6.6715   27.7262 N   0  0  0  0  0  0  0  0  0  0  0  0
    6.9911   -8.2423   27.1808 C   0  0  0  0  0  0  0  0  0  0  0  0
    3.8436   -7.2758   16.0578 C   0  0  0  0  0  0  0  0  0  0  0  0
    3.1882   -9.7190   17.2566 C   0  0  0  0  0  0  0  0  0  0  0  0
    5.3488   -6.1737   26.5092 C   0  0  0  0  0  0  0  0  0  0  0  0
    7.4567   -6.9464   27.2858 C   0  0  0  0  0  0  0  0  0  0  0  0
    0.1921   -5.7592   27.1123 C   0  0  0  0  0  0  0  0  0  0  0  0
    3.5517   -7.7407   25.9711 C   0  0  0  0  0  0  0  0  0  0  0  0
  1  4  4  0
  1 22  4  0
  2 20  4  0
  2 27  4  0
  3 12  4  0
  3 23  4  0
  4 25  4  0
  4 28  1  0
  5  8  4  0
  5 17  4  0
  6  7  4  0
  6 16  4  0
  7 18  4  0
  8 27  4  0
  9 13  4  0
  9 23  4  0
 10 11  1  0
 11 14  2  0
 11 27  1  0
 12 19  1  0
 12 24  4  0
 13 24  4  0
 15 18  1  0
 16 25  4  0
 16 26  4  0
 17 20  4  0
 17 28  1  0
 18 21  4  0
 21 26  4  0
 22 26  4  0
M  END
$$$$

 Created by Python create_sdf_string function

 28 30  0  0  0  0  0  0  0  0999 V2000
    5.7174   -8.4529   26.7190 C   0  0  0  0  0  0  0  0  0  0  0  0
    0.3974   -7.0711   27.5149 C   0  0  0  0  0  0  0  0  0  0  0  0
    2.5338   -7.6891   16.0102 C   0  0  0  0  0  0  0  0  0  0  0  0
    4.8690   -7.4380   26.4151 C   0  0  0  0  0  0  0  0  0  0  0  0
    2.3021   -5.6726   26.0378 C   0  0  0  0  0  0  0  0  0  0  0  0
    7.0880   -4.6163   27.0010 C   0  0  0  0  0  0  0  0  0  0  0  0
    8.3117   -4.3698   27.4436 C   0  0  0  0  0  0  0  0  0  0  0  0
    1.1339   -5.0515   26.3541 C   0  0  0  0  0  0  0  0  0  0  0  0
    4.8080   -8.0362   16.7101 C   0  0  0  0  0  0  0  0  0  0  0  0
   -1.2173   -3.9294   26.9717 O   0  0  0  0  0  0  0  0  0  0  0  0
   -1.0025   -5.0942   27.4586 C   0  0  0  0  0  0  0  0  0  0  0  0
    2.2474   -8.9123   16.6273 C   0  0  0  0  0  0  0  0  0  0  0  0
    4.4957   -9.2636   17.3041 C   0  0  0  0  0  0  0  0  0  0  0  0
   -1.8070   -5.6086   28.1920 O   0  0  0  0  0  0  0  0  0  0  0  0
   10.4296   -5.1799   28.3140 C   0  0  0  0  0  0  0  0  0  0  0  0
    6.6017   -5.9004   26.9187 C   0  0  0  0  0  0  0  0  0  0  0  0
    2.4761   -6.9940   26.4111 N   0  0  0  0  0  0  0  0  0  0  0  0
    9.1353   -5.4053   27.8239 C   0  0  0  0  0  0  0  0  0  0  0  0
    0.9922   -9.3232   16.5995 O   0  0  0  0  0  0  0  0  0  0  0  0
    1.5232   -7.6869   27.1182 C   0  0  0  0  0  0  0  0  0  0  0  0
    8.6878   -6.6715   27.7262 N   0  0  0  0  0  0  0  0  0  0  0  0
    6.9911   -8.2423   27.1808 C   0  0  0  0  0  0  0  0  0  0  0  0
    3.8436   -7.2758   16.0578 C   0  0  0  0  0  0  0  0  0  0  0  0
    3.1882   -9.7190   17.2566 C   0  0  0  0  0  0  0  0  0  0  0  0
    5.3488   -6.1737   26.5092 C   0  0  0  0  0  0  0  0  0  0  0  0
    7.4567   -6.9464   27.2858 C   0  0  0  0  0  0  0  0  0  0  0  0
    0.1921   -5.7592   27.1123 C   0  0  0  0  0  0  0  0  0  0  0  0
    3.5517   -7.7407   25.9711 C   0  0  0  0  0  0  0  0  0  0  0  0
  1  4  4  0
  1 22  4  0
  2 20  4  0
  2 27  4  0
  3 12  4  0
  3 23  4  0
  4 25  4  0
  4 28  1  0
  5  8  4  0
  5 17  4  0
  6  7  4  0
  6 16  4  0
  7 18  4  0
  8 27  4  0
  9 13  4  0
  9 23  4  0
 10 11  1  0
 11 14  2  0
 11 27  1  0
 12 19  1  0
 12 24  4  0
 13 24  4  0
 15 18  1  0
 16 25  4  0
 16 26  4  0
 17 20  4  0
 17 28  1  0
 18 21  4  0
 21 26  4  0
 22 26  4  0
M  END
$$$$

 Created by Python create_sdf_string function

 28 30  0  0  0  0  0  0  0  0999 V2000
    5.7174   -8.4529   26.7190 C   0  0  0  0  0  0  0  0  0  0  0  0
    0.3974   -7.0711   27.5149 C   0  0  0  0  0  0  0  0  0  0  0  0
    2.5338   -7.6891   16.0102 C   0  0  0  0  0  0  0  0  0  0  0  0
    4.8690   -7.4380   26.4151 C   0  0  0  0  0  0  0  0  0  0  0  0
    2.3021   -5.6726   26.0378 C   0  0  0  0  0  0  0  0  0  0  0  0
    7.0880   -4.6163   27.0010 C   0  0  0  0  0  0  0  0  0  0  0  0
    8.3117   -4.3698   27.4436 C   0  0  0  0  0  0  0  0  0  0  0  0
    1.1339   -5.0515   26.3541 C   0  0  0  0  0  0  0  0  0  0  0  0
    4.8080   -8.0362   16.7101 C   0  0  0  0  0  0  0  0  0  0  0  0
   -1.2173   -3.9294   26.9717 O   0  0  0  0  0  0  0  0  0  0  0  0
   -1.0025   -5.0942   27.4586 C   0  0  0  0  0  0  0  0  0  0  0  0
    2.2474   -8.9123   16.6273 C   0  0  0  0  0  0  0  0  0  0  0  0
    4.4957   -9.2636   17.3041 C   0  0  0  0  0  0  0  0  0  0  0  0
   -1.8070   -5.6086   28.1920 O   0  0  0  0  0  0  0  0  0  0  0  0
   10.4296   -5.1799   28.3140 C   0  0  0  0  0  0  0  0  0  0  0  0
    6.6017   -5.9004   26.9187 C   0  0  0  0  0  0  0  0  0  0  0  0
    2.4761   -6.9940   26.4111 N   0  0  0  0  0  0  0  0  0  0  0  0
    9.1353   -5.4053   27.8239 C   0  0  0  0  0  0  0  0  0  0  0  0
    0.9922   -9.3232   16.5995 O   0  0  0  0  0  0  0  0  0  0  0  0
    1.5232   -7.6869   27.1182 C   0  0  0  0  0  0  0  0  0  0  0  0
    8.6878   -6.6715   27.7262 N   0  0  0  0  0  0  0  0  0  0  0  0
    6.9911   -8.2423   27.1808 C   0  0  0  0  0  0  0  0  0  0  0  0
    3.8436   -7.2758   16.0578 C   0  0  0  0  0  0  0  0  0  0  0  0
    3.1882   -9.7190   17.2566 C   0  0  0  0  0  0  0  0  0  0  0  0
    5.3488   -6.1737   26.5092 C   0  0  0  0  0  0  0  0  0  0  0  0
    7.4567   -6.9464   27.2858 C   0  0  0  0  0  0  0  0  0  0  0  0
    0.1921   -5.7592   27.1123 C   0  0  0  0  0  0  0  0  0  0  0  0
    3.5517   -7.7407   25.9711 C   0  0  0  0  0  0  0  0  0  0  0  0
  1  4  4  0
  1 22  4  0
  2 20  4  0
  2 27  4  0
  3 12  4  0
  3 23  4  0
  4 25  4  0
  4 28  1  0
  5  8  4  0
  5 17  4  0
  6  7  4  0
  6 16  4  0
  7 18  4  0
  8 27  4  0
  9 13  4  0
  9 23  4  0
 10 11  1  0
 11 14  2  0
 11 27  1  0
 12 19  1  0
 12 24  4  0
 13 24  4  0
 15 18  1  0
 16 25  4  0
 16 26  4  0
 17 20  4  0
 17 28  1  0
 18 21  4  0
 21 26  4  0
 22 26  4  0
M  END
$$$$

 Created by Python create_sdf_string function

 28 30  0  0  0  0  0  0  0  0999 V2000
    5.7174   -8.4529   26.7190 C   0  0  0  0  0  0  0  0  0  0  0  0
    0.3974   -7.0711   27.5149 C   0  0  0  0  0  0  0  0  0  0  0  0
    2.5338   -7.6891   16.0102 C   0  0  0  0  0  0  0  0  0  0  0  0
    4.8690   -7.4380   26.4151 C   0  0  0  0  0  0  0  0  0  0  0  0
    2.3021   -5.6726   26.0378 C   0  0  0  0  0  0  0  0  0  0  0  0
    7.0880   -4.6163   27.0010 C   0  0  0  0  0  0  0  0  0  0  0  0
    8.3117   -4.3698   27.4436 C   0  0  0  0  0  0  0  0  0  0  0  0
    1.1339   -5.0515   26.3541 C   0  0  0  0  0  0  0  0  0  0  0  0
    4.8080   -8.0362   16.7101 C   0  0  0  0  0  0  0  0  0  0  0  0
   -1.2173   -3.9294   26.9717 O   0  0  0  0  0  0  0  0  0  0  0  0
   -1.0025   -5.0942   27.4586 C   0  0  0  0  0  0  0  0  0  0  0  0
    2.2474   -8.9123   16.6273 C   0  0  0  0  0  0  0  0  0  0  0  0
    4.4957   -9.2636   17.3041 C   0  0  0  0  0  0  0  0  0  0  0  0
   -1.8070   -5.6086   28.1920 O   0  0  0  0  0  0  0  0  0  0  0  0
   10.4296   -5.1799   28.3140 C   0  0  0  0  0  0  0  0  0  0  0  0
    6.6017   -5.9004   26.9187 C   0  0  0  0  0  0  0  0  0  0  0  0
    2.4761   -6.9940   26.4111 N   0  0  0  0  0  0  0  0  0  0  0  0
    9.1353   -5.4053   27.8239 C   0  0  0  0  0  0  0  0  0  0  0  0
    0.9922   -9.3232   16.5995 O   0  0  0  0  0  0  0  0  0  0  0  0
    1.5232   -7.6869   27.1182 C   0  0  0  0  0  0  0  0  0  0  0  0
    8.6878   -6.6715   27.7262 N   0  0  0  0  0  0  0  0  0  0  0  0
    6.9911   -8.2423   27.1808 C   0  0  0  0  0  0  0  0  0  0  0  0
    3.8436   -7.2758   16.0578 C   0  0  0  0  0  0  0  0  0  0  0  0
    3.1882   -9.7190   17.2566 C   0  0  0  0  0  0  0  0  0  0  0  0
    5.3488   -6.1737   26.5092 C   0  0  0  0  0  0  0  0  0  0  0  0
    7.4567   -6.9464   27.2858 C   0  0  0  0  0  0  0  0  0  0  0  0
    0.1921   -5.7592   27.1123 C   0  0  0  0  0  0  0  0  0  0  0  0
    3.5517   -7.7407   25.9711 C   0  0  0  0  0  0  0  0  0  0  0  0
  1  4  4  0
  1 22  4  0
  2 20  4  0
  2 27  4  0
  3 12  4  0
  3 23  4  0
  4 25  4  0
  4 28  1  0
  5  8  4  0
  5 17  4  0
  6  7  4  0
  6 16  4  0
  7 18  4  0
  8 27  4  0
  9 13  4  0
  9 23  4  0
 10 11  1  0
 11 14  2  0
 11 27  1  0
 12 19  1  0
 12 24  4  0
 13 24  4  0
 15 18  1  0
 16 25  4  0
 16 26  4  0
 17 20  4  0
 17 28  1  0
 18 21  4  0
 21 26  4  0
 22 26  4  0
M  END
$$$$

 Created by Python create_sdf_string function

 28 30  0  0  0  0  0  0  0  0999 V2000
    5.7174   -8.4529   26.7190 C   0  0  0  0  0  0  0  0  0  0  0  0
    0.3974   -7.0711   27.5149 C   0  0  0  0  0  0  0  0  0  0  0  0
    2.5338   -7.6891   16.0102 C   0  0  0  0  0  0  0  0  0  0  0  0
    4.8690   -7.4380   26.4151 C   0  0  0  0  0  0  0  0  0  0  0  0
    2.3021   -5.6726   26.0378 C   0  0  0  0  0  0  0  0  0  0  0  0
    7.0880   -4.6163   27.0010 C   0  0  0  0  0  0  0  0  0  0  0  0
    8.3117   -4.3698   27.4436 C   0  0  0  0  0  0  0  0  0  0  0  0
    1.1339   -5.0515   26.3541 C   0  0  0  0  0  0  0  0  0  0  0  0
    4.8080   -8.0362   16.7101 C   0  0  0  0  0  0  0  0  0  0  0  0
   -1.2173   -3.9294   26.9717 O   0  0  0  0  0  0  0  0  0  0  0  0
   -1.0025   -5.0942   27.4586 C   0  0  0  0  0  0  0  0  0  0  0  0
    2.2474   -8.9123   16.6273 C   0  0  0  0  0  0  0  0  0  0  0  0
    4.4957   -9.2636   17.3041 C   0  0  0  0  0  0  0  0  0  0  0  0
   -1.8070   -5.6086   28.1920 O   0  0  0  0  0  0  0  0  0  0  0  0
   10.4296   -5.1799   28.3140 C   0  0  0  0  0  0  0  0  0  0  0  0
    6.6017   -5.9004   26.9187 C   0  0  0  0  0  0  0  0  0  0  0  0
    2.4761   -6.9940   26.4111 N   0  0  0  0  0  0  0  0  0  0  0  0
    9.1353   -5.4053   27.8239 C   0  0  0  0  0  0  0  0  0  0  0  0
    0.9922   -9.3232   16.5995 O   0  0  0  0  0  0  0  0  0  0  0  0
    1.5232   -7.6869   27.1182 C   0  0  0  0  0  0  0  0  0  0  0  0
    8.6878   -6.6715   27.7262 N   0  0  0  0  0  0  0  0  0  0  0  0
    6.9911   -8.2423   27.1808 C   0  0  0  0  0  0  0  0  0  0  0  0
    3.8436   -7.2758   16.0578 C   0  0  0  0  0  0  0  0  0  0  0  0
    3.1882   -9.7190   17.2566 C   0  0  0  0  0  0  0  0  0  0  0  0
    5.3488   -6.1737   26.5092 C   0  0  0  0  0  0  0  0  0  0  0  0
    7.4567   -6.9464   27.2858 C   0  0  0  0  0  0  0  0  0  0  0  0
    0.1921   -5.7592   27.1123 C   0  0  0  0  0  0  0  0  0  0  0  0
    3.5517   -7.7407   25.9711 C   0  0  0  0  0  0  0  0  0  0  0  0
  1  4  4  0
  1 22  4  0
  2 20  4  0
  2 27  4  0
  3 12  4  0
  3 23  4  0
  4 25  4  0
  4 28  1  0
  5  8  4  0
  5 17  4  0
  6  7  4  0
  6 16  4  0
  7 18  4  0
  8 27  4  0
  9 13  4  0
  9 23  4  0
 10 11  1  0
 11 14  2  0
 11 27  1  0
 12 19  1  0
 12 24  4  0
 13 24  4  0
 15 18  1  0
 16 25  4  0
 16 26  4  0
 17 20  4  0
 17 28  1  0
 18 21  4  0
 21 26  4  0
 22 26  4  0
M  END
$$$$

 Created by Python create_sdf_string function

 28 30  0  0  0  0  0  0  0  0999 V2000
    5.7174   -8.4529   26.7190 C   0  0  0  0  0  0  0  0  0  0  0  0
    0.3974   -7.0711   27.5149 C   0  0  0  0  0  0  0  0  0  0  0  0
    2.5338   -7.6891   16.0102 C   0  0  0  0  0  0  0  0  0  0  0  0
    4.8690   -7.4380   26.4151 C   0  0  0  0  0  0  0  0  0  0  0  0
    2.3021   -5.6726   26.0378 C   0  0  0  0  0  0  0  0  0  0  0  0
    7.0880   -4.6163   27.0010 C   0  0  0  0  0  0  0  0  0  0  0  0
    8.3117   -4.3698   27.4436 C   0  0  0  0  0  0  0  0  0  0  0  0
    1.1339   -5.0515   26.3541 C   0  0  0  0  0  0  0  0  0  0  0  0
    4.8080   -8.0362   16.7101 C   0  0  0  0  0  0  0  0  0  0  0  0
   -1.2173   -3.9294   26.9717 O   0  0  0  0  0  0  0  0  0  0  0  0
   -1.0025   -5.0942   27.4586 C   0  0  0  0  0  0  0  0  0  0  0  0
    2.2474   -8.9123   16.6273 C   0  0  0  0  0  0  0  0  0  0  0  0
    4.4957   -9.2636   17.3041 C   0  0  0  0  0  0  0  0  0  0  0  0
   -1.8070   -5.6086   28.1920 O   0  0  0  0  0  0  0  0  0  0  0  0
   10.4296   -5.1799   28.3140 C   0  0  0  0  0  0  0  0  0  0  0  0
    6.6017   -5.9004   26.9187 C   0  0  0  0  0  0  0  0  0  0  0  0
    2.4761   -6.9940   26.4111 N   0  0  0  0  0  0  0  0  0  0  0  0
    9.1353   -5.4053   27.8239 C   0  0  0  0  0  0  0  0  0  0  0  0
    0.9922   -9.3232   16.5995 O   0  0  0  0  0  0  0  0  0  0  0  0
    1.5232   -7.6869   27.1182 C   0  0  0  0  0  0  0  0  0  0  0  0
    8.6878   -6.6715   27.7262 N   0  0  0  0  0  0  0  0  0  0  0  0
    6.9911   -8.2423   27.1808 C   0  0  0  0  0  0  0  0  0  0  0  0
    3.8436   -7.2758   16.0578 C   0  0  0  0  0  0  0  0  0  0  0  0
    3.1882   -9.7190   17.2566 C   0  0  0  0  0  0  0  0  0  0  0  0
    5.3488   -6.1737   26.5092 C   0  0  0  0  0  0  0  0  0  0  0  0
    7.4567   -6.9464   27.2858 C   0  0  0  0  0  0  0  0  0  0  0  0
    0.1921   -5.7592   27.1123 C   0  0  0  0  0  0  0  0  0  0  0  0
    3.5517   -7.7407   25.9711 C   0  0  0  0  0  0  0  0  0  0  0  0
  1  4  4  0
  1 22  4  0
  2 20  4  0
  2 27  4  0
  3 12  4  0
  3 23  4  0
  4 25  4  0
  4 28  1  0
  5  8  4  0
  5 17  4  0
  6  7  4  0
  6 16  4  0
  7 18  4  0
  8 27  4  0
  9 13  4  0
  9 23  4  0
 10 11  1  0
 11 14  2  0
 11 27  1  0
 12 19  1  0
 12 24  4  0
 13 24  4  0
 15 18  1  0
 16 25  4  0
 16 26  4  0
 17 20  4  0
 17 28  1  0
 18 21  4  0
 21 26  4  0
 22 26  4  0
M  END
$$$$

 Created by Python create_sdf_string function

 28 30  0  0  0  0  0  0  0  0999 V2000
    5.7174   -8.4529   26.7190 C   0  0  0  0  0  0  0  0  0  0  0  0
    0.3974   -7.0711   27.5149 C   0  0  0  0  0  0  0  0  0  0  0  0
    2.5338   -7.6891   16.0102 C   0  0  0  0  0  0  0  0  0  0  0  0
    4.8690   -7.4380   26.4151 C   0  0  0  0  0  0  0  0  0  0  0  0
    2.3021   -5.6726   26.0378 C   0  0  0  0  0  0  0  0  0  0  0  0
    7.0880   -4.6163   27.0010 C   0  0  0  0  0  0  0  0  0  0  0  0
    8.3117   -4.3698   27.4436 C   0  0  0  0  0  0  0  0  0  0  0  0
    1.1339   -5.0515   26.3541 C   0  0  0  0  0  0  0  0  0  0  0  0
    4.8080   -8.0362   16.7101 C   0  0  0  0  0  0  0  0  0  0  0  0
   -1.2173   -3.9294   26.9717 O   0  0  0  0  0  0  0  0  0  0  0  0
   -1.0025   -5.0942   27.4586 C   0  0  0  0  0  0  0  0  0  0  0  0
    2.2474   -8.9123   16.6273 C   0  0  0  0  0  0  0  0  0  0  0  0
    4.4957   -9.2636   17.3041 C   0  0  0  0  0  0  0  0  0  0  0  0
   -1.8070   -5.6086   28.1920 O   0  0  0  0  0  0  0  0  0  0  0  0
   10.4296   -5.1799   28.3140 C   0  0  0  0  0  0  0  0  0  0  0  0
    6.6017   -5.9004   26.9187 C   0  0  0  0  0  0  0  0  0  0  0  0
    2.4761   -6.9940   26.4111 N   0  0  0  0  0  0  0  0  0  0  0  0
    9.1353   -5.4053   27.8239 C   0  0  0  0  0  0  0  0  0  0  0  0
    0.9922   -9.3232   16.5995 O   0  0  0  0  0  0  0  0  0  0  0  0
    1.5232   -7.6869   27.1182 C   0  0  0  0  0  0  0  0  0  0  0  0
    8.6878   -6.6715   27.7262 N   0  0  0  0  0  0  0  0  0  0  0  0
    6.9911   -8.2423   27.1808 C   0  0  0  0  0  0  0  0  0  0  0  0
    3.8436   -7.2758   16.0578 C   0  0  0  0  0  0  0  0  0  0  0  0
    3.1882   -9.7190   17.2566 C   0  0  0  0  0  0  0  0  0  0  0  0
    5.3488   -6.1737   26.5092 C   0  0  0  0  0  0  0  0  0  0  0  0
    7.4567   -6.9464   27.2858 C   0  0  0  0  0  0  0  0  0  0  0  0
    0.1921   -5.7592   27.1123 C   0  0  0  0  0  0  0  0  0  0  0  0
    3.5517   -7.7407   25.9711 C   0  0  0  0  0  0  0  0  0  0  0  0
  1  4  4  0
  1 22  4  0
  2 20  4  0
  2 27  4  0
  3 12  4  0
  3 23  4  0
  4 25  4  0
  4 28  1  0
  5  8  4  0
  5 17  4  0
  6  7  4  0
  6 16  4  0
  7 18  4  0
  8 27  4  0
  9 13  4  0
  9 23  4  0
 10 11  1  0
 11 14  2  0
 11 27  1  0
 12 19  1  0
 12 24  4  0
 13 24  4  0
 15 18  1  0
 16 25  4  0
 16 26  4  0
 17 20  4  0
 17 28  1  0
 18 21  4  0
 21 26  4  0
 22 26  4  0
M  END
$$$$

 Created by Python create_sdf_string function

 28 30  0  0  0  0  0  0  0  0999 V2000
    5.7174   -8.4529   26.7190 C   0  0  0  0  0  0  0  0  0  0  0  0
    0.3974   -7.0711   27.5149 C   0  0  0  0  0  0  0  0  0  0  0  0
    2.5338   -7.6891   16.0102 C   0  0  0  0  0  0  0  0  0  0  0  0
    4.8690   -7.4380   26.4151 C   0  0  0  0  0  0  0  0  0  0  0  0
    2.3021   -5.6726   26.0378 C   0  0  0  0  0  0  0  0  0  0  0  0
    7.0880   -4.6163   27.0010 C   0  0  0  0  0  0  0  0  0  0  0  0
    8.3117   -4.3698   27.4436 C   0  0  0  0  0  0  0  0  0  0  0  0
    1.1339   -5.0515   26.3541 C   0  0  0  0  0  0  0  0  0  0  0  0
    4.8080   -8.0362   16.7101 C   0  0  0  0  0  0  0  0  0  0  0  0
   -1.2173   -3.9294   26.9717 O   0  0  0  0  0  0  0  0  0  0  0  0
   -1.0025   -5.0942   27.4586 C   0  0  0  0  0  0  0  0  0  0  0  0
    2.2474   -8.9123   16.6273 C   0  0  0  0  0  0  0  0  0  0  0  0
    4.4957   -9.2636   17.3041 C   0  0  0  0  0  0  0  0  0  0  0  0
   -1.8070   -5.6086   28.1920 O   0  0  0  0  0  0  0  0  0  0  0  0
   10.4296   -5.1799   28.3140 C   0  0  0  0  0  0  0  0  0  0  0  0
    6.6017   -5.9004   26.9187 C   0  0  0  0  0  0  0  0  0  0  0  0
    2.4761   -6.9940   26.4111 N   0  0  0  0  0  0  0  0  0  0  0  0
    9.1353   -5.4053   27.8239 C   0  0  0  0  0  0  0  0  0  0  0  0
    0.9922   -9.3232   16.5995 O   0  0  0  0  0  0  0  0  0  0  0  0
    1.5232   -7.6869   27.1182 C   0  0  0  0  0  0  0  0  0  0  0  0
    8.6878   -6.6715   27.7262 N   0  0  0  0  0  0  0  0  0  0  0  0
    6.9911   -8.2423   27.1808 C   0  0  0  0  0  0  0  0  0  0  0  0
    3.8436   -7.2758   16.0578 C   0  0  0  0  0  0  0  0  0  0  0  0
    3.1882   -9.7190   17.2566 C   0  0  0  0  0  0  0  0  0  0  0  0
    5.3488   -6.1737   26.5092 C   0  0  0  0  0  0  0  0  0  0  0  0
    7.4567   -6.9464   27.2858 C   0  0  0  0  0  0  0  0  0  0  0  0
    0.1921   -5.7592   27.1123 C   0  0  0  0  0  0  0  0  0  0  0  0
    3.5517   -7.7407   25.9711 C   0  0  0  0  0  0  0  0  0  0  0  0
  1  4  4  0
  1 22  4  0
  2 20  4  0
  2 27  4  0
  3 12  4  0
  3 23  4  0
  4 25  4  0
  4 28  1  0
  5  8  4  0
  5 17  4  0
  6  7  4  0
  6 16  4  0
  7 18  4  0
  8 27  4  0
  9 13  4  0
  9 23  4  0
 10 11  1  0
 11 14  2  0
 11 27  1  0
 12 19  1  0
 12 24  4  0
 13 24  4  0
 15 18  1  0
 16 25  4  0
 16 26  4  0
 17 20  4  0
 17 28  1  0
 18 21  4  0
 21 26  4  0
 22 26  4  0
M  END
$$$$

 Created by Python create_sdf_string function

 28 30  0  0  0  0  0  0  0  0999 V2000
    5.7174   -8.4529   26.7190 C   0  0  0  0  0  0  0  0  0  0  0  0
    0.3974   -7.0711   27.5149 C   0  0  0  0  0  0  0  0  0  0  0  0
    2.5338   -7.6891   16.0102 C   0  0  0  0  0  0  0  0  0  0  0  0
    4.8690   -7.4380   26.4151 C   0  0  0  0  0  0  0  0  0  0  0  0
    2.3021   -5.6726   26.0378 C   0  0  0  0  0  0  0  0  0  0  0  0
    7.0880   -4.6163   27.0010 C   0  0  0  0  0  0  0  0  0  0  0  0
    8.3117   -4.3698   27.4436 C   0  0  0  0  0  0  0  0  0  0  0  0
    1.1339   -5.0515   26.3541 C   0  0  0  0  0  0  0  0  0  0  0  0
    4.8080   -8.0362   16.7101 C   0  0  0  0  0  0  0  0  0  0  0  0
   -1.2173   -3.9294   26.9717 O   0  0  0  0  0  0  0  0  0  0  0  0
   -1.0025   -5.0942   27.4586 C   0  0  0  0  0  0  0  0  0  0  0  0
    2.2474   -8.9123   16.6273 C   0  0  0  0  0  0  0  0  0  0  0  0
    4.4957   -9.2636   17.3041 C   0  0  0  0  0  0  0  0  0  0  0  0
   -1.8070   -5.6086   28.1920 O   0  0  0  0  0  0  0  0  0  0  0  0
   10.4296   -5.1799   28.3140 C   0  0  0  0  0  0  0  0  0  0  0  0
    6.6017   -5.9004   26.9187 C   0  0  0  0  0  0  0  0  0  0  0  0
    2.4761   -6.9940   26.4111 N   0  0  0  0  0  0  0  0  0  0  0  0
    9.1353   -5.4053   27.8239 C   0  0  0  0  0  0  0  0  0  0  0  0
    0.9922   -9.3232   16.5995 O   0  0  0  0  0  0  0  0  0  0  0  0
    1.5232   -7.6869   27.1182 C   0  0  0  0  0  0  0  0  0  0  0  0
    8.6878   -6.6715   27.7262 N   0  0  0  0  0  0  0  0  0  0  0  0
    6.9911   -8.2423   27.1808 C   0  0  0  0  0  0  0  0  0  0  0  0
    3.8436   -7.2758   16.0578 C   0  0  0  0  0  0  0  0  0  0  0  0
    3.1882   -9.7190   17.2566 C   0  0  0  0  0  0  0  0  0  0  0  0
    5.3488   -6.1737   26.5092 C   0  0  0  0  0  0  0  0  0  0  0  0
    7.4567   -6.9464   27.2858 C   0  0  0  0  0  0  0  0  0  0  0  0
    0.1921   -5.7592   27.1123 C   0  0  0  0  0  0  0  0  0  0  0  0
    3.5517   -7.7407   25.9711 C   0  0  0  0  0  0  0  0  0  0  0  0
  1  4  4  0
  1 22  4  0
  2 20  4  0
  2 27  4  0
  3 12  4  0
  3 23  4  0
  4 25  4  0
  4 28  1  0
  5  8  4  0
  5 17  4  0
  6  7  4  0
  6 16  4  0
  7 18  4  0
  8 27  4  0
  9 13  4  0
  9 23  4  0
 10 11  1  0
 11 14  2  0
 11 27  1  0
 12 19  1  0
 12 24  4  0
 13 24  4  0
 15 18  1  0
 16 25  4  0
 16 26  4  0
 17 20  4  0
 17 28  1  0
 18 21  4  0
 21 26  4  0
 22 26  4  0
M  END
$$$$

 Created by Python create_sdf_string function

 28 30  0  0  0  0  0  0  0  0999 V2000
    5.7174   -8.4529   26.7190 C   0  0  0  0  0  0  0  0  0  0  0  0
    0.3974   -7.0711   27.5149 C   0  0  0  0  0  0  0  0  0  0  0  0
    2.5338   -7.6891   16.0102 C   0  0  0  0  0  0  0  0  0  0  0  0
    4.8690   -7.4380   26.4151 C   0  0  0  0  0  0  0  0  0  0  0  0
    2.3021   -5.6726   26.0378 C   0  0  0  0  0  0  0  0  0  0  0  0
    7.0880   -4.6163   27.0010 C   0  0  0  0  0  0  0  0  0  0  0  0
    8.3117   -4.3698   27.4436 C   0  0  0  0  0  0  0  0  0  0  0  0
    1.1339   -5.0515   26.3541 C   0  0  0  0  0  0  0  0  0  0  0  0
    4.8080   -8.0362   16.7101 C   0  0  0  0  0  0  0  0  0  0  0  0
   -1.2173   -3.9294   26.9717 O   0  0  0  0  0  0  0  0  0  0  0  0
   -1.0025   -5.0942   27.4586 C   0  0  0  0  0  0  0  0  0  0  0  0
    2.2474   -8.9123   16.6273 C   0  0  0  0  0  0  0  0  0  0  0  0
    4.4957   -9.2636   17.3041 C   0  0  0  0  0  0  0  0  0  0  0  0
   -1.8070   -5.6086   28.1920 O   0  0  0  0  0  0  0  0  0  0  0  0
   10.4296   -5.1799   28.3140 C   0  0  0  0  0  0  0  0  0  0  0  0
    6.6017   -5.9004   26.9187 C   0  0  0  0  0  0  0  0  0  0  0  0
    2.4761   -6.9940   26.4111 N   0  0  0  0  0  0  0  0  0  0  0  0
    9.1353   -5.4053   27.8239 C   0  0  0  0  0  0  0  0  0  0  0  0
    0.9922   -9.3232   16.5995 O   0  0  0  0  0  0  0  0  0  0  0  0
    1.5232   -7.6869   27.1182 C   0  0  0  0  0  0  0  0  0  0  0  0
    8.6878   -6.6715   27.7262 N   0  0  0  0  0  0  0  0  0  0  0  0
    6.9911   -8.2423   27.1808 C   0  0  0  0  0  0  0  0  0  0  0  0
    3.8436   -7.2758   16.0578 C   0  0  0  0  0  0  0  0  0  0  0  0
    3.1882   -9.7190   17.2566 C   0  0  0  0  0  0  0  0  0  0  0  0
    5.3488   -6.1737   26.5092 C   0  0  0  0  0  0  0  0  0  0  0  0
    7.4567   -6.9464   27.2858 C   0  0  0  0  0  0  0  0  0  0  0  0
    0.1921   -5.7592   27.1123 C   0  0  0  0  0  0  0  0  0  0  0  0
    3.5517   -7.7407   25.9711 C   0  0  0  0  0  0  0  0  0  0  0  0
  1  4  4  0
  1 22  4  0
  2 20  4  0
  2 27  4  0
  3 12  4  0
  3 23  4  0
  4 25  4  0
  4 28  1  0
  5  8  4  0
  5 17  4  0
  6  7  4  0
  6 16  4  0
  7 18  4  0
  8 27  4  0
  9 13  4  0
  9 23  4  0
 10 11  1  0
 11 14  2  0
 11 27  1  0
 12 19  1  0
 12 24  4  0
 13 24  4  0
 15 18  1  0
 16 25  4  0
 16 26  4  0
 17 20  4  0
 17 28  1  0
 18 21  4  0
 21 26  4  0
 22 26  4  0
M  END
$$$$

 Created by Python create_sdf_string function

 28 30  0  0  0  0  0  0  0  0999 V2000
    5.7174   -8.4529   26.7190 C   0  0  0  0  0  0  0  0  0  0  0  0
    0.3974   -7.0711   27.5149 C   0  0  0  0  0  0  0  0  0  0  0  0
    2.5338   -7.6891   16.0102 C   0  0  0  0  0  0  0  0  0  0  0  0
    4.8690   -7.4380   26.4151 C   0  0  0  0  0  0  0  0  0  0  0  0
    2.3021   -5.6726   26.0378 C   0  0  0  0  0  0  0  0  0  0  0  0
    7.0880   -4.6163   27.0010 C   0  0  0  0  0  0  0  0  0  0  0  0
    8.3117   -4.3698   27.4436 C   0  0  0  0  0  0  0  0  0  0  0  0
    1.1339   -5.0515   26.3541 C   0  0  0  0  0  0  0  0  0  0  0  0
    4.8080   -8.0362   16.7101 C   0  0  0  0  0  0  0  0  0  0  0  0
   -1.2173   -3.9294   26.9717 O   0  0  0  0  0  0  0  0  0  0  0  0
   -1.0025   -5.0942   27.4586 C   0  0  0  0  0  0  0  0  0  0  0  0
    2.2474   -8.9123   16.6273 C   0  0  0  0  0  0  0  0  0  0  0  0
    4.4957   -9.2636   17.3041 C   0  0  0  0  0  0  0  0  0  0  0  0
   -1.8070   -5.6086   28.1920 O   0  0  0  0  0  0  0  0  0  0  0  0
   10.4296   -5.1799   28.3140 C   0  0  0  0  0  0  0  0  0  0  0  0
    6.6017   -5.9004   26.9187 C   0  0  0  0  0  0  0  0  0  0  0  0
    2.4761   -6.9940   26.4111 N   0  0  0  0  0  0  0  0  0  0  0  0
    9.1353   -5.4053   27.8239 C   0  0  0  0  0  0  0  0  0  0  0  0
    0.9922   -9.3232   16.5995 O   0  0  0  0  0  0  0  0  0  0  0  0
    1.5232   -7.6869   27.1182 C   0  0  0  0  0  0  0  0  0  0  0  0
    8.6878   -6.6715   27.7262 N   0  0  0  0  0  0  0  0  0  0  0  0
    6.9911   -8.2423   27.1808 C   0  0  0  0  0  0  0  0  0  0  0  0
    3.8436   -7.2758   16.0578 C   0  0  0  0  0  0  0  0  0  0  0  0
    3.1882   -9.7190   17.2566 C   0  0  0  0  0  0  0  0  0  0  0  0
    5.3488   -6.1737   26.5092 C   0  0  0  0  0  0  0  0  0  0  0  0
    7.4567   -6.9464   27.2858 C   0  0  0  0  0  0  0  0  0  0  0  0
    0.1921   -5.7592   27.1123 C   0  0  0  0  0  0  0  0  0  0  0  0
    3.5517   -7.7407   25.9711 C   0  0  0  0  0  0  0  0  0  0  0  0
  1  4  4  0
  1 22  4  0
  2 20  4  0
  2 27  4  0
  3 12  4  0
  3 23  4  0
  4 25  4  0
  4 28  1  0
  5  8  4  0
  5 17  4  0
  6  7  4  0
  6 16  4  0
  7 18  4  0
  8 27  4  0
  9 13  4  0
  9 23  4  0
 10 11  1  0
 11 14  2  0
 11 27  1  0
 12 19  1  0
 12 24  4  0
 13 24  4  0
 15 18  1  0
 16 25  4  0
 16 26  4  0
 17 20  4  0
 17 28  1  0
 18 21  4  0
 21 26  4  0
 22 26  4  0
M  END
$$$$

 Created by Python create_sdf_string function

 28 30  0  0  0  0  0  0  0  0999 V2000
    5.7174   -8.4529   26.7190 C   0  0  0  0  0  0  0  0  0  0  0  0
    0.3974   -7.0711   27.5149 C   0  0  0  0  0  0  0  0  0  0  0  0
    2.5338   -7.6891   16.0102 C   0  0  0  0  0  0  0  0  0  0  0  0
    4.8690   -7.4380   26.4151 C   0  0  0  0  0  0  0  0  0  0  0  0
    2.3021   -5.6726   26.0378 C   0  0  0  0  0  0  0  0  0  0  0  0
    7.0880   -4.6163   27.0010 C   0  0  0  0  0  0  0  0  0  0  0  0
    8.3117   -4.3698   27.4436 C   0  0  0  0  0  0  0  0  0  0  0  0
    1.1339   -5.0515   26.3541 C   0  0  0  0  0  0  0  0  0  0  0  0
    4.8080   -8.0362   16.7101 C   0  0  0  0  0  0  0  0  0  0  0  0
   -1.2173   -3.9294   26.9717 O   0  0  0  0  0  0  0  0  0  0  0  0
   -1.0025   -5.0942   27.4586 C   0  0  0  0  0  0  0  0  0  0  0  0
    2.2474   -8.9123   16.6273 C   0  0  0  0  0  0  0  0  0  0  0  0
    4.4957   -9.2636   17.3041 C   0  0  0  0  0  0  0  0  0  0  0  0
   -1.8070   -5.6086   28.1920 O   0  0  0  0  0  0  0  0  0  0  0  0
   10.4296   -5.1799   28.3140 C   0  0  0  0  0  0  0  0  0  0  0  0
    6.6017   -5.9004   26.9187 C   0  0  0  0  0  0  0  0  0  0  0  0
    2.4761   -6.9940   26.4111 N   0  0  0  0  0  0  0  0  0  0  0  0
    9.1353   -5.4053   27.8239 C   0  0  0  0  0  0  0  0  0  0  0  0
    0.9922   -9.3232   16.5995 O   0  0  0  0  0  0  0  0  0  0  0  0
    1.5232   -7.6869   27.1182 C   0  0  0  0  0  0  0  0  0  0  0  0
    8.6878   -6.6715   27.7262 N   0  0  0  0  0  0  0  0  0  0  0  0
    6.9911   -8.2423   27.1808 C   0  0  0  0  0  0  0  0  0  0  0  0
    3.8436   -7.2758   16.0578 C   0  0  0  0  0  0  0  0  0  0  0  0
    3.1882   -9.7190   17.2566 C   0  0  0  0  0  0  0  0  0  0  0  0
    5.3488   -6.1737   26.5092 C   0  0  0  0  0  0  0  0  0  0  0  0
    7.4567   -6.9464   27.2858 C   0  0  0  0  0  0  0  0  0  0  0  0
    0.1921   -5.7592   27.1123 C   0  0  0  0  0  0  0  0  0  0  0  0
    3.5517   -7.7407   25.9711 C   0  0  0  0  0  0  0  0  0  0  0  0
  1  4  4  0
  1 22  4  0
  2 20  4  0
  2 27  4  0
  3 12  4  0
  3 23  4  0
  4 25  4  0
  4 28  1  0
  5  8  4  0
  5 17  4  0
  6  7  4  0
  6 16  4  0
  7 18  4  0
  8 27  4  0
  9 13  4  0
  9 23  4  0
 10 11  1  0
 11 14  2  0
 11 27  1  0
 12 19  1  0
 12 24  4  0
 13 24  4  0
 15 18  1  0
 16 25  4  0
 16 26  4  0
 17 20  4  0
 17 28  1  0
 18 21  4  0
 21 26  4  0
 22 26  4  0
M  END
$$$$

 Created by Python create_sdf_string function

 28 30  0  0  0  0  0  0  0  0999 V2000
    5.7174   -8.4529   26.7190 C   0  0  0  0  0  0  0  0  0  0  0  0
    0.3974   -7.0711   27.5149 C   0  0  0  0  0  0  0  0  0  0  0  0
    2.5338   -7.6891   16.0102 C   0  0  0  0  0  0  0  0  0  0  0  0
    4.8690   -7.4380   26.4151 C   0  0  0  0  0  0  0  0  0  0  0  0
    2.3021   -5.6726   26.0378 C   0  0  0  0  0  0  0  0  0  0  0  0
    7.0880   -4.6163   27.0010 C   0  0  0  0  0  0  0  0  0  0  0  0
    8.3117   -4.3698   27.4436 C   0  0  0  0  0  0  0  0  0  0  0  0
    1.1339   -5.0515   26.3541 C   0  0  0  0  0  0  0  0  0  0  0  0
    4.8080   -8.0362   16.7101 C   0  0  0  0  0  0  0  0  0  0  0  0
   -1.2173   -3.9294   26.9717 O   0  0  0  0  0  0  0  0  0  0  0  0
   -1.0025   -5.0942   27.4586 C   0  0  0  0  0  0  0  0  0  0  0  0
    2.2474   -8.9123   16.6273 C   0  0  0  0  0  0  0  0  0  0  0  0
    4.4957   -9.2636   17.3041 C   0  0  0  0  0  0  0  0  0  0  0  0
   -1.8070   -5.6086   28.1920 O   0  0  0  0  0  0  0  0  0  0  0  0
   10.4296   -5.1799   28.3140 C   0  0  0  0  0  0  0  0  0  0  0  0
    6.6017   -5.9004   26.9187 C   0  0  0  0  0  0  0  0  0  0  0  0
    2.4761   -6.9940   26.4111 N   0  0  0  0  0  0  0  0  0  0  0  0
    9.1353   -5.4053   27.8239 C   0  0  0  0  0  0  0  0  0  0  0  0
    0.9922   -9.3232   16.5995 O   0  0  0  0  0  0  0  0  0  0  0  0
    1.5232   -7.6869   27.1182 C   0  0  0  0  0  0  0  0  0  0  0  0
    8.6878   -6.6715   27.7262 N   0  0  0  0  0  0  0  0  0  0  0  0
    6.9911   -8.2423   27.1808 C   0  0  0  0  0  0  0  0  0  0  0  0
    3.8436   -7.2758   16.0578 C   0  0  0  0  0  0  0  0  0  0  0  0
    3.1882   -9.7190   17.2566 C   0  0  0  0  0  0  0  0  0  0  0  0
    5.3488   -6.1737   26.5092 C   0  0  0  0  0  0  0  0  0  0  0  0
    7.4567   -6.9464   27.2858 C   0  0  0  0  0  0  0  0  0  0  0  0
    0.1921   -5.7592   27.1123 C   0  0  0  0  0  0  0  0  0  0  0  0
    3.5517   -7.7407   25.9711 C   0  0  0  0  0  0  0  0  0  0  0  0
  1  4  4  0
  1 22  4  0
  2 20  4  0
  2 27  4  0
  3 12  4  0
  3 23  4  0
  4 25  4  0
  4 28  1  0
  5  8  4  0
  5 17  4  0
  6  7  4  0
  6 16  4  0
  7 18  4  0
  8 27  4  0
  9 13  4  0
  9 23  4  0
 10 11  1  0
 11 14  2  0
 11 27  1  0
 12 19  1  0
 12 24  4  0
 13 24  4  0
 15 18  1  0
 16 25  4  0
 16 26  4  0
 17 20  4  0
 17 28  1  0
 18 21  4  0
 21 26  4  0
 22 26  4  0
M  END
$$$$

 Created by Python create_sdf_string function

 28 30  0  0  0  0  0  0  0  0999 V2000
    5.7174   -8.4529   26.7190 C   0  0  0  0  0  0  0  0  0  0  0  0
    0.3974   -7.0711   27.5149 C   0  0  0  0  0  0  0  0  0  0  0  0
    2.5338   -7.6891   16.0102 C   0  0  0  0  0  0  0  0  0  0  0  0
    4.8690   -7.4380   26.4151 C   0  0  0  0  0  0  0  0  0  0  0  0
    2.3021   -5.6726   26.0378 C   0  0  0  0  0  0  0  0  0  0  0  0
    7.0880   -4.6163   27.0010 C   0  0  0  0  0  0  0  0  0  0  0  0
    8.3117   -4.3698   27.4436 C   0  0  0  0  0  0  0  0  0  0  0  0
    1.1339   -5.0515   26.3541 C   0  0  0  0  0  0  0  0  0  0  0  0
    4.8080   -8.0362   16.7101 C   0  0  0  0  0  0  0  0  0  0  0  0
   -1.2173   -3.9294   26.9717 O   0  0  0  0  0  0  0  0  0  0  0  0
   -1.0025   -5.0942   27.4586 C   0  0  0  0  0  0  0  0  0  0  0  0
    2.2474   -8.9123   16.6273 C   0  0  0  0  0  0  0  0  0  0  0  0
    4.4957   -9.2636   17.3041 C   0  0  0  0  0  0  0  0  0  0  0  0
   -1.8070   -5.6086   28.1920 O   0  0  0  0  0  0  0  0  0  0  0  0
   10.4296   -5.1799   28.3140 C   0  0  0  0  0  0  0  0  0  0  0  0
    6.6017   -5.9004   26.9187 C   0  0  0  0  0  0  0  0  0  0  0  0
    2.4761   -6.9940   26.4111 N   0  0  0  0  0  0  0  0  0  0  0  0
    9.1353   -5.4053   27.8239 C   0  0  0  0  0  0  0  0  0  0  0  0
    0.9922   -9.3232   16.5995 O   0  0  0  0  0  0  0  0  0  0  0  0
    1.5232   -7.6869   27.1182 C   0  0  0  0  0  0  0  0  0  0  0  0
    8.6878   -6.6715   27.7262 N   0  0  0  0  0  0  0  0  0  0  0  0
    6.9911   -8.2423   27.1808 C   0  0  0  0  0  0  0  0  0  0  0  0
    3.8436   -7.2758   16.0578 C   0  0  0  0  0  0  0  0  0  0  0  0
    3.1882   -9.7190   17.2566 C   0  0  0  0  0  0  0  0  0  0  0  0
    5.3488   -6.1737   26.5092 C   0  0  0  0  0  0  0  0  0  0  0  0
    7.4567   -6.9464   27.2858 C   0  0  0  0  0  0  0  0  0  0  0  0
    0.1921   -5.7592   27.1123 C   0  0  0  0  0  0  0  0  0  0  0  0
    3.5517   -7.7407   25.9711 C   0  0  0  0  0  0  0  0  0  0  0  0
  1  4  4  0
  1 22  4  0
  2 20  4  0
  2 27  4  0
  3 12  4  0
  3 23  4  0
  4 25  4  0
  4 28  1  0
  5  8  4  0
  5 17  4  0
  6  7  4  0
  6 16  4  0
  7 18  4  0
  8 27  4  0
  9 13  4  0
  9 23  4  0
 10 11  1  0
 11 14  2  0
 11 27  1  0
 12 19  1  0
 12 24  4  0
 13 24  4  0
 15 18  1  0
 16 25  4  0
 16 26  4  0
 17 20  4  0
 17 28  1  0
 18 21  4  0
 21 26  4  0
 22 26  4  0
M  END
$$$$

 Created by Python create_sdf_string function

 28 30  0  0  0  0  0  0  0  0999 V2000
    5.7174   -8.4529   26.7190 C   0  0  0  0  0  0  0  0  0  0  0  0
    0.3974   -7.0711   27.5149 C   0  0  0  0  0  0  0  0  0  0  0  0
    2.5338   -7.6891   16.0102 C   0  0  0  0  0  0  0  0  0  0  0  0
    4.8690   -7.4380   26.4151 C   0  0  0  0  0  0  0  0  0  0  0  0
    2.3021   -5.6726   26.0378 C   0  0  0  0  0  0  0  0  0  0  0  0
    7.0880   -4.6163   27.0010 C   0  0  0  0  0  0  0  0  0  0  0  0
    8.3117   -4.3698   27.4436 C   0  0  0  0  0  0  0  0  0  0  0  0
    1.1339   -5.0515   26.3541 C   0  0  0  0  0  0  0  0  0  0  0  0
    4.8080   -8.0362   16.7101 C   0  0  0  0  0  0  0  0  0  0  0  0
   -1.2173   -3.9294   26.9717 O   0  0  0  0  0  0  0  0  0  0  0  0
   -1.0025   -5.0942   27.4586 C   0  0  0  0  0  0  0  0  0  0  0  0
    2.2474   -8.9123   16.6273 C   0  0  0  0  0  0  0  0  0  0  0  0
    4.4957   -9.2636   17.3041 C   0  0  0  0  0  0  0  0  0  0  0  0
   -1.8070   -5.6086   28.1920 O   0  0  0  0  0  0  0  0  0  0  0  0
   10.4296   -5.1799   28.3140 C   0  0  0  0  0  0  0  0  0  0  0  0
    6.6017   -5.9004   26.9187 C   0  0  0  0  0  0  0  0  0  0  0  0
    2.4761   -6.9940   26.4111 N   0  0  0  0  0  0  0  0  0  0  0  0
    9.1353   -5.4053   27.8239 C   0  0  0  0  0  0  0  0  0  0  0  0
    0.9922   -9.3232   16.5995 O   0  0  0  0  0  0  0  0  0  0  0  0
    1.5232   -7.6869   27.1182 C   0  0  0  0  0  0  0  0  0  0  0  0
    8.6878   -6.6715   27.7262 N   0  0  0  0  0  0  0  0  0  0  0  0
    6.9911   -8.2423   27.1808 C   0  0  0  0  0  0  0  0  0  0  0  0
    3.8436   -7.2758   16.0578 C   0  0  0  0  0  0  0  0  0  0  0  0
    3.1882   -9.7190   17.2566 C   0  0  0  0  0  0  0  0  0  0  0  0
    5.3488   -6.1737   26.5092 C   0  0  0  0  0  0  0  0  0  0  0  0
    7.4567   -6.9464   27.2858 C   0  0  0  0  0  0  0  0  0  0  0  0
    0.1921   -5.7592   27.1123 C   0  0  0  0  0  0  0  0  0  0  0  0
    3.5517   -7.7407   25.9711 C   0  0  0  0  0  0  0  0  0  0  0  0
  1  4  4  0
  1 22  4  0
  2 20  4  0
  2 27  4  0
  3 12  4  0
  3 23  4  0
  4 25  4  0
  4 28  1  0
  5  8  4  0
  5 17  4  0
  6  7  4  0
  6 16  4  0
  7 18  4  0
  8 27  4  0
  9 13  4  0
  9 23  4  0
 10 11  1  0
 11 14  2  0
 11 27  1  0
 12 19  1  0
 12 24  4  0
 13 24  4  0
 15 18  1  0
 16 25  4  0
 16 26  4  0
 17 20  4  0
 17 28  1  0
 18 21  4  0
 21 26  4  0
 22 26  4  0
M  END
$$$$

 Created by Python create_sdf_string function

 28 30  0  0  0  0  0  0  0  0999 V2000
    5.7174   -8.4529   26.7190 C   0  0  0  0  0  0  0  0  0  0  0  0
    0.3974   -7.0711   27.5149 C   0  0  0  0  0  0  0  0  0  0  0  0
    2.5338   -7.6891   16.0102 C   0  0  0  0  0  0  0  0  0  0  0  0
    4.8690   -7.4380   26.4151 C   0  0  0  0  0  0  0  0  0  0  0  0
    2.3021   -5.6726   26.0378 C   0  0  0  0  0  0  0  0  0  0  0  0
    7.0880   -4.6163   27.0010 C   0  0  0  0  0  0  0  0  0  0  0  0
    8.3117   -4.3698   27.4436 C   0  0  0  0  0  0  0  0  0  0  0  0
    1.1339   -5.0515   26.3541 C   0  0  0  0  0  0  0  0  0  0  0  0
    4.8080   -8.0362   16.7101 C   0  0  0  0  0  0  0  0  0  0  0  0
   -1.2173   -3.9294   26.9717 O   0  0  0  0  0  0  0  0  0  0  0  0
   -1.0025   -5.0942   27.4586 C   0  0  0  0  0  0  0  0  0  0  0  0
    2.2474   -8.9123   16.6273 C   0  0  0  0  0  0  0  0  0  0  0  0
    4.4957   -9.2636   17.3041 C   0  0  0  0  0  0  0  0  0  0  0  0
   -1.8070   -5.6086   28.1920 O   0  0  0  0  0  0  0  0  0  0  0  0
   10.4296   -5.1799   28.3140 C   0  0  0  0  0  0  0  0  0  0  0  0
    6.6017   -5.9004   26.9187 C   0  0  0  0  0  0  0  0  0  0  0  0
    2.4761   -6.9940   26.4111 N   0  0  0  0  0  0  0  0  0  0  0  0
    9.1353   -5.4053   27.8239 C   0  0  0  0  0  0  0  0  0  0  0  0
    0.9922   -9.3232   16.5995 O   0  0  0  0  0  0  0  0  0  0  0  0
    1.5232   -7.6869   27.1182 C   0  0  0  0  0  0  0  0  0  0  0  0
    8.6878   -6.6715   27.7262 N   0  0  0  0  0  0  0  0  0  0  0  0
    6.9911   -8.2423   27.1808 C   0  0  0  0  0  0  0  0  0  0  0  0
    3.8436   -7.2758   16.0578 C   0  0  0  0  0  0  0  0  0  0  0  0
    3.1882   -9.7190   17.2566 C   0  0  0  0  0  0  0  0  0  0  0  0
    5.3488   -6.1737   26.5092 C   0  0  0  0  0  0  0  0  0  0  0  0
    7.4567   -6.9464   27.2858 C   0  0  0  0  0  0  0  0  0  0  0  0
    0.1921   -5.7592   27.1123 C   0  0  0  0  0  0  0  0  0  0  0  0
    3.5517   -7.7407   25.9711 C   0  0  0  0  0  0  0  0  0  0  0  0
  1  4  4  0
  1 22  4  0
  2 20  4  0
  2 27  4  0
  3 12  4  0
  3 23  4  0
  4 25  4  0
  4 28  1  0
  5  8  4  0
  5 17  4  0
  6  7  4  0
  6 16  4  0
  7 18  4  0
  8 27  4  0
  9 13  4  0
  9 23  4  0
 10 11  1  0
 11 14  2  0
 11 27  1  0
 12 19  1  0
 12 24  4  0
 13 24  4  0
 15 18  1  0
 16 25  4  0
 16 26  4  0
 17 20  4  0
 17 28  1  0
 18 21  4  0
 21 26  4  0
 22 26  4  0
M  END
$$$$

 Created by Python create_sdf_string function

 28 30  0  0  0  0  0  0  0  0999 V2000
    5.7174   -8.4529   26.7190 C   0  0  0  0  0  0  0  0  0  0  0  0
    0.3974   -7.0711   27.5149 C   0  0  0  0  0  0  0  0  0  0  0  0
    2.5338   -7.6891   16.0102 C   0  0  0  0  0  0  0  0  0  0  0  0
    4.8690   -7.4380   26.4151 C   0  0  0  0  0  0  0  0  0  0  0  0
    2.3021   -5.6726   26.0378 C   0  0  0  0  0  0  0  0  0  0  0  0
    7.0880   -4.6163   27.0010 C   0  0  0  0  0  0  0  0  0  0  0  0
    8.3117   -4.3698   27.4436 C   0  0  0  0  0  0  0  0  0  0  0  0
    1.1339   -5.0515   26.3541 C   0  0  0  0  0  0  0  0  0  0  0  0
    4.8080   -8.0362   16.7101 C   0  0  0  0  0  0  0  0  0  0  0  0
   -1.2173   -3.9294   26.9717 O   0  0  0  0  0  0  0  0  0  0  0  0
   -1.0025   -5.0942   27.4586 C   0  0  0  0  0  0  0  0  0  0  0  0
    2.2474   -8.9123   16.6273 C   0  0  0  0  0  0  0  0  0  0  0  0
    4.4957   -9.2636   17.3041 C   0  0  0  0  0  0  0  0  0  0  0  0
   -1.8070   -5.6086   28.1920 O   0  0  0  0  0  0  0  0  0  0  0  0
   10.4296   -5.1799   28.3140 C   0  0  0  0  0  0  0  0  0  0  0  0
    6.6017   -5.9004   26.9187 C   0  0  0  0  0  0  0  0  0  0  0  0
    2.4761   -6.9940   26.4111 N   0  0  0  0  0  0  0  0  0  0  0  0
    9.1353   -5.4053   27.8239 C   0  0  0  0  0  0  0  0  0  0  0  0
    0.9922   -9.3232   16.5995 O   0  0  0  0  0  0  0  0  0  0  0  0
    1.5232   -7.6869   27.1182 C   0  0  0  0  0  0  0  0  0  0  0  0
    8.6878   -6.6715   27.7262 N   0  0  0  0  0  0  0  0  0  0  0  0
    6.9911   -8.2423   27.1808 C   0  0  0  0  0  0  0  0  0  0  0  0
    3.8436   -7.2758   16.0578 C   0  0  0  0  0  0  0  0  0  0  0  0
    3.1882   -9.7190   17.2566 C   0  0  0  0  0  0  0  0  0  0  0  0
    5.3488   -6.1737   26.5092 C   0  0  0  0  0  0  0  0  0  0  0  0
    7.4567   -6.9464   27.2858 C   0  0  0  0  0  0  0  0  0  0  0  0
    0.1921   -5.7592   27.1123 C   0  0  0  0  0  0  0  0  0  0  0  0
    3.5517   -7.7407   25.9711 C   0  0  0  0  0  0  0  0  0  0  0  0
  1  4  4  0
  1 22  4  0
  2 20  4  0
  2 27  4  0
  3 12  4  0
  3 23  4  0
  4 25  4  0
  4 28  1  0
  5  8  4  0
  5 17  4  0
  6  7  4  0
  6 16  4  0
  7 18  4  0
  8 27  4  0
  9 13  4  0
  9 23  4  0
 10 11  1  0
 11 14  2  0
 11 27  1  0
 12 19  1  0
 12 24  4  0
 13 24  4  0
 15 18  1  0
 16 25  4  0
 16 26  4  0
 17 20  4  0
 17 28  1  0
 18 21  4  0
 21 26  4  0
 22 26  4  0
M  END
$$$$

 Created by Python create_sdf_string function

 28 30  0  0  0  0  0  0  0  0999 V2000
    5.7174   -8.4529   26.7190 C   0  0  0  0  0  0  0  0  0  0  0  0
    0.3974   -7.0711   27.5149 C   0  0  0  0  0  0  0  0  0  0  0  0
    2.5338   -7.6891   16.0102 C   0  0  0  0  0  0  0  0  0  0  0  0
    4.8690   -7.4380   26.4151 C   0  0  0  0  0  0  0  0  0  0  0  0
    2.3021   -5.6726   26.0378 C   0  0  0  0  0  0  0  0  0  0  0  0
    7.0880   -4.6163   27.0010 C   0  0  0  0  0  0  0  0  0  0  0  0
    8.3117   -4.3698   27.4436 C   0  0  0  0  0  0  0  0  0  0  0  0
    1.1339   -5.0515   26.3541 C   0  0  0  0  0  0  0  0  0  0  0  0
    4.8080   -8.0362   16.7101 C   0  0  0  0  0  0  0  0  0  0  0  0
   -1.2173   -3.9294   26.9717 O   0  0  0  0  0  0  0  0  0  0  0  0
   -1.0025   -5.0942   27.4586 C   0  0  0  0  0  0  0  0  0  0  0  0
    2.2474   -8.9123   16.6273 C   0  0  0  0  0  0  0  0  0  0  0  0
    4.4957   -9.2636   17.3041 C   0  0  0  0  0  0  0  0  0  0  0  0
   -1.8070   -5.6086   28.1920 O   0  0  0  0  0  0  0  0  0  0  0  0
   10.4296   -5.1799   28.3140 C   0  0  0  0  0  0  0  0  0  0  0  0
    6.6017   -5.9004   26.9187 C   0  0  0  0  0  0  0  0  0  0  0  0
    2.4761   -6.9940   26.4111 N   0  0  0  0  0  0  0  0  0  0  0  0
    9.1353   -5.4053   27.8239 C   0  0  0  0  0  0  0  0  0  0  0  0
    0.9922   -9.3232   16.5995 O   0  0  0  0  0  0  0  0  0  0  0  0
    1.5232   -7.6869   27.1182 C   0  0  0  0  0  0  0  0  0  0  0  0
    8.6878   -6.6715   27.7262 N   0  0  0  0  0  0  0  0  0  0  0  0
    6.9911   -8.2423   27.1808 C   0  0  0  0  0  0  0  0  0  0  0  0
    3.8436   -7.2758   16.0578 C   0  0  0  0  0  0  0  0  0  0  0  0
    3.1882   -9.7190   17.2566 C   0  0  0  0  0  0  0  0  0  0  0  0
    5.3488   -6.1737   26.5092 C   0  0  0  0  0  0  0  0  0  0  0  0
    7.4567   -6.9464   27.2858 C   0  0  0  0  0  0  0  0  0  0  0  0
    0.1921   -5.7592   27.1123 C   0  0  0  0  0  0  0  0  0  0  0  0
    3.5517   -7.7407   25.9711 C   0  0  0  0  0  0  0  0  0  0  0  0
  1  4  4  0
  1 22  4  0
  2 20  4  0
  2 27  4  0
  3 12  4  0
  3 23  4  0
  4 25  4  0
  4 28  1  0
  5  8  4  0
  5 17  4  0
  6  7  4  0
  6 16  4  0
  7 18  4  0
  8 27  4  0
  9 13  4  0
  9 23  4  0
 10 11  1  0
 11 14  2  0
 11 27  1  0
 12 19  1  0
 12 24  4  0
 13 24  4  0
 15 18  1  0
 16 25  4  0
 16 26  4  0
 17 20  4  0
 17 28  1  0
 18 21  4  0
 21 26  4  0
 22 26  4  0
M  END
$$$$

 Created by Python create_sdf_string function

 28 30  0  0  0  0  0  0  0  0999 V2000
    5.7174   -8.4529   26.7190 C   0  0  0  0  0  0  0  0  0  0  0  0
    0.3974   -7.0711   27.5149 C   0  0  0  0  0  0  0  0  0  0  0  0
    2.5338   -7.6891   16.0102 C   0  0  0  0  0  0  0  0  0  0  0  0
    4.8690   -7.4380   26.4151 C   0  0  0  0  0  0  0  0  0  0  0  0
    2.3021   -5.6726   26.0378 C   0  0  0  0  0  0  0  0  0  0  0  0
    7.0880   -4.6163   27.0010 C   0  0  0  0  0  0  0  0  0  0  0  0
    8.3117   -4.3698   27.4436 C   0  0  0  0  0  0  0  0  0  0  0  0
    1.1339   -5.0515   26.3541 C   0  0  0  0  0  0  0  0  0  0  0  0
    4.8080   -8.0362   16.7101 C   0  0  0  0  0  0  0  0  0  0  0  0
   -1.2173   -3.9294   26.9717 O   0  0  0  0  0  0  0  0  0  0  0  0
   -1.0025   -5.0942   27.4586 C   0  0  0  0  0  0  0  0  0  0  0  0
    2.2474   -8.9123   16.6273 C   0  0  0  0  0  0  0  0  0  0  0  0
    4.4957   -9.2636   17.3041 C   0  0  0  0  0  0  0  0  0  0  0  0
   -1.8070   -5.6086   28.1920 O   0  0  0  0  0  0  0  0  0  0  0  0
   10.4296   -5.1799   28.3140 C   0  0  0  0  0  0  0  0  0  0  0  0
    6.6017   -5.9004   26.9187 C   0  0  0  0  0  0  0  0  0  0  0  0
    2.4761   -6.9940   26.4111 N   0  0  0  0  0  0  0  0  0  0  0  0
    9.1353   -5.4053   27.8239 C   0  0  0  0  0  0  0  0  0  0  0  0
    0.9922   -9.3232   16.5995 O   0  0  0  0  0  0  0  0  0  0  0  0
    1.5232   -7.6869   27.1182 C   0  0  0  0  0  0  0  0  0  0  0  0
    8.6878   -6.6715   27.7262 N   0  0  0  0  0  0  0  0  0  0  0  0
    6.9911   -8.2423   27.1808 C   0  0  0  0  0  0  0  0  0  0  0  0
    3.8436   -7.2758   16.0578 C   0  0  0  0  0  0  0  0  0  0  0  0
    3.1882   -9.7190   17.2566 C   0  0  0  0  0  0  0  0  0  0  0  0
    5.3488   -6.1737   26.5092 C   0  0  0  0  0  0  0  0  0  0  0  0
    7.4567   -6.9464   27.2858 C   0  0  0  0  0  0  0  0  0  0  0  0
    0.1921   -5.7592   27.1123 C   0  0  0  0  0  0  0  0  0  0  0  0
    3.5517   -7.7407   25.9711 C   0  0  0  0  0  0  0  0  0  0  0  0
  1  4  4  0
  1 22  4  0
  2 20  4  0
  2 27  4  0
  3 12  4  0
  3 23  4  0
  4 25  4  0
  4 28  1  0
  5  8  4  0
  5 17  4  0
  6  7  4  0
  6 16  4  0
  7 18  4  0
  8 27  4  0
  9 13  4  0
  9 23  4  0
 10 11  1  0
 11 14  2  0
 11 27  1  0
 12 19  1  0
 12 24  4  0
 13 24  4  0
 15 18  1  0
 16 25  4  0
 16 26  4  0
 17 20  4  0
 17 28  1  0
 18 21  4  0
 21 26  4  0
 22 26  4  0
M  END
$$$$

 Created by Python create_sdf_string function

 28 30  0  0  0  0  0  0  0  0999 V2000
    5.7174   -8.4529   26.7190 C   0  0  0  0  0  0  0  0  0  0  0  0
    0.3974   -7.0711   27.5149 C   0  0  0  0  0  0  0  0  0  0  0  0
    2.5338   -7.6891   16.0102 C   0  0  0  0  0  0  0  0  0  0  0  0
    4.8690   -7.4380   26.4151 C   0  0  0  0  0  0  0  0  0  0  0  0
    2.3021   -5.6726   26.0378 C   0  0  0  0  0  0  0  0  0  0  0  0
    7.0880   -4.6163   27.0010 C   0  0  0  0  0  0  0  0  0  0  0  0
    8.3117   -4.3698   27.4436 C   0  0  0  0  0  0  0  0  0  0  0  0
    1.1339   -5.0515   26.3541 C   0  0  0  0  0  0  0  0  0  0  0  0
    4.8080   -8.0362   16.7101 C   0  0  0  0  0  0  0  0  0  0  0  0
   -1.2173   -3.9294   26.9717 O   0  0  0  0  0  0  0  0  0  0  0  0
   -1.0025   -5.0942   27.4586 C   0  0  0  0  0  0  0  0  0  0  0  0
    2.2474   -8.9123   16.6273 C   0  0  0  0  0  0  0  0  0  0  0  0
    4.4957   -9.2636   17.3041 C   0  0  0  0  0  0  0  0  0  0  0  0
   -1.8070   -5.6086   28.1920 O   0  0  0  0  0  0  0  0  0  0  0  0
   10.4296   -5.1799   28.3140 C   0  0  0  0  0  0  0  0  0  0  0  0
    6.6017   -5.9004   26.9187 C   0  0  0  0  0  0  0  0  0  0  0  0
    2.4761   -6.9940   26.4111 N   0  0  0  0  0  0  0  0  0  0  0  0
    9.1353   -5.4053   27.8239 C   0  0  0  0  0  0  0  0  0  0  0  0
    0.9922   -9.3232   16.5995 O   0  0  0  0  0  0  0  0  0  0  0  0
    1.5232   -7.6869   27.1182 C   0  0  0  0  0  0  0  0  0  0  0  0
    8.6878   -6.6715   27.7262 N   0  0  0  0  0  0  0  0  0  0  0  0
    6.9911   -8.2423   27.1808 C   0  0  0  0  0  0  0  0  0  0  0  0
    3.8436   -7.2758   16.0578 C   0  0  0  0  0  0  0  0  0  0  0  0
    3.1882   -9.7190   17.2566 C   0  0  0  0  0  0  0  0  0  0  0  0
    5.3488   -6.1737   26.5092 C   0  0  0  0  0  0  0  0  0  0  0  0
    7.4567   -6.9464   27.2858 C   0  0  0  0  0  0  0  0  0  0  0  0
    0.1921   -5.7592   27.1123 C   0  0  0  0  0  0  0  0  0  0  0  0
    3.5517   -7.7407   25.9711 C   0  0  0  0  0  0  0  0  0  0  0  0
  1  4  4  0
  1 22  4  0
  2 20  4  0
  2 27  4  0
  3 12  4  0
  3 23  4  0
  4 25  4  0
  4 28  1  0
  5  8  4  0
  5 17  4  0
  6  7  4  0
  6 16  4  0
  7 18  4  0
  8 27  4  0
  9 13  4  0
  9 23  4  0
 10 11  1  0
 11 14  2  0
 11 27  1  0
 12 19  1  0
 12 24  4  0
 13 24  4  0
 15 18  1  0
 16 25  4  0
 16 26  4  0
 17 20  4  0
 17 28  1  0
 18 21  4  0
 21 26  4  0
 22 26  4  0
M  END
$$$$

 Created by Python create_sdf_string function

 28 30  0  0  0  0  0  0  0  0999 V2000
    5.7174   -8.4529   26.7190 C   0  0  0  0  0  0  0  0  0  0  0  0
    0.3974   -7.0711   27.5149 C   0  0  0  0  0  0  0  0  0  0  0  0
    2.5338   -7.6891   16.0102 C   0  0  0  0  0  0  0  0  0  0  0  0
    4.8690   -7.4380   26.4151 C   0  0  0  0  0  0  0  0  0  0  0  0
    2.3021   -5.6726   26.0378 C   0  0  0  0  0  0  0  0  0  0  0  0
    7.0880   -4.6163   27.0010 C   0  0  0  0  0  0  0  0  0  0  0  0
    8.3117   -4.3698   27.4436 C   0  0  0  0  0  0  0  0  0  0  0  0
    1.1339   -5.0515   26.3541 C   0  0  0  0  0  0  0  0  0  0  0  0
    4.8080   -8.0362   16.7101 C   0  0  0  0  0  0  0  0  0  0  0  0
   -1.2173   -3.9294   26.9717 O   0  0  0  0  0  0  0  0  0  0  0  0
   -1.0025   -5.0942   27.4586 C   0  0  0  0  0  0  0  0  0  0  0  0
    2.2474   -8.9123   16.6273 C   0  0  0  0  0  0  0  0  0  0  0  0
    4.4957   -9.2636   17.3041 C   0  0  0  0  0  0  0  0  0  0  0  0
   -1.8070   -5.6086   28.1920 O   0  0  0  0  0  0  0  0  0  0  0  0
   10.4296   -5.1799   28.3140 C   0  0  0  0  0  0  0  0  0  0  0  0
    6.6017   -5.9004   26.9187 C   0  0  0  0  0  0  0  0  0  0  0  0
    2.4761   -6.9940   26.4111 N   0  0  0  0  0  0  0  0  0  0  0  0
    9.1353   -5.4053   27.8239 C   0  0  0  0  0  0  0  0  0  0  0  0
    0.9922   -9.3232   16.5995 O   0  0  0  0  0  0  0  0  0  0  0  0
    1.5232   -7.6869   27.1182 C   0  0  0  0  0  0  0  0  0  0  0  0
    8.6878   -6.6715   27.7262 N   0  0  0  0  0  0  0  0  0  0  0  0
    6.9911   -8.2423   27.1808 C   0  0  0  0  0  0  0  0  0  0  0  0
    3.8436   -7.2758   16.0578 C   0  0  0  0  0  0  0  0  0  0  0  0
    3.1882   -9.7190   17.2566 C   0  0  0  0  0  0  0  0  0  0  0  0
    5.3488   -6.1737   26.5092 C   0  0  0  0  0  0  0  0  0  0  0  0
    7.4567   -6.9464   27.2858 C   0  0  0  0  0  0  0  0  0  0  0  0
    0.1921   -5.7592   27.1123 C   0  0  0  0  0  0  0  0  0  0  0  0
    3.5517   -7.7407   25.9711 C   0  0  0  0  0  0  0  0  0  0  0  0
  1  4  4  0
  1 22  4  0
  2 20  4  0
  2 27  4  0
  3 12  4  0
  3 23  4  0
  4 25  4  0
  4 28  1  0
  5  8  4  0
  5 17  4  0
  6  7  4  0
  6 16  4  0
  7 18  4  0
  8 27  4  0
  9 13  4  0
  9 23  4  0
 10 11  1  0
 11 14  2  0
 11 27  1  0
 12 19  1  0
 12 24  4  0
 13 24  4  0
 15 18  1  0
 16 25  4  0
 16 26  4  0
 17 20  4  0
 17 28  1  0
 18 21  4  0
 21 26  4  0
 22 26  4  0
M  END
$$$$

 Created by Python create_sdf_string function

 28 30  0  0  0  0  0  0  0  0999 V2000
    5.7174   -8.4529   26.7190 C   0  0  0  0  0  0  0  0  0  0  0  0
    0.3974   -7.0711   27.5149 C   0  0  0  0  0  0  0  0  0  0  0  0
    2.5338   -7.6891   16.0102 C   0  0  0  0  0  0  0  0  0  0  0  0
    4.8690   -7.4380   26.4151 C   0  0  0  0  0  0  0  0  0  0  0  0
    2.3021   -5.6726   26.0378 C   0  0  0  0  0  0  0  0  0  0  0  0
    7.0880   -4.6163   27.0010 C   0  0  0  0  0  0  0  0  0  0  0  0
    8.3117   -4.3698   27.4436 C   0  0  0  0  0  0  0  0  0  0  0  0
    1.1339   -5.0515   26.3541 C   0  0  0  0  0  0  0  0  0  0  0  0
    4.8080   -8.0362   16.7101 C   0  0  0  0  0  0  0  0  0  0  0  0
   -1.2173   -3.9294   26.9717 O   0  0  0  0  0  0  0  0  0  0  0  0
   -1.0025   -5.0942   27.4586 C   0  0  0  0  0  0  0  0  0  0  0  0
    2.2474   -8.9123   16.6273 C   0  0  0  0  0  0  0  0  0  0  0  0
    4.4957   -9.2636   17.3041 C   0  0  0  0  0  0  0  0  0  0  0  0
   -1.8070   -5.6086   28.1920 O   0  0  0  0  0  0  0  0  0  0  0  0
   10.4296   -5.1799   28.3140 C   0  0  0  0  0  0  0  0  0  0  0  0
    6.6017   -5.9004   26.9187 C   0  0  0  0  0  0  0  0  0  0  0  0
    2.4761   -6.9940   26.4111 N   0  0  0  0  0  0  0  0  0  0  0  0
    9.1353   -5.4053   27.8239 C   0  0  0  0  0  0  0  0  0  0  0  0
    0.9922   -9.3232   16.5995 O   0  0  0  0  0  0  0  0  0  0  0  0
    1.5232   -7.6869   27.1182 C   0  0  0  0  0  0  0  0  0  0  0  0
    8.6878   -6.6715   27.7262 N   0  0  0  0  0  0  0  0  0  0  0  0
    6.9911   -8.2423   27.1808 C   0  0  0  0  0  0  0  0  0  0  0  0
    3.8436   -7.2758   16.0578 C   0  0  0  0  0  0  0  0  0  0  0  0
    3.1882   -9.7190   17.2566 C   0  0  0  0  0  0  0  0  0  0  0  0
    5.3488   -6.1737   26.5092 C   0  0  0  0  0  0  0  0  0  0  0  0
    7.4567   -6.9464   27.2858 C   0  0  0  0  0  0  0  0  0  0  0  0
    0.1921   -5.7592   27.1123 C   0  0  0  0  0  0  0  0  0  0  0  0
    3.5517   -7.7407   25.9711 C   0  0  0  0  0  0  0  0  0  0  0  0
  1  4  4  0
  1 22  4  0
  2 20  4  0
  2 27  4  0
  3 12  4  0
  3 23  4  0
  4 25  4  0
  4 28  1  0
  5  8  4  0
  5 17  4  0
  6  7  4  0
  6 16  4  0
  7 18  4  0
  8 27  4  0
  9 13  4  0
  9 23  4  0
 10 11  1  0
 11 14  2  0
 11 27  1  0
 12 19  1  0
 12 24  4  0
 13 24  4  0
 15 18  1  0
 16 25  4  0
 16 26  4  0
 17 20  4  0
 17 28  1  0
 18 21  4  0
 21 26  4  0
 22 26  4  0
M  END
$$$$

 Created by Python create_sdf_string function

 28 30  0  0  0  0  0  0  0  0999 V2000
    5.7174   -8.4529   26.7190 C   0  0  0  0  0  0  0  0  0  0  0  0
    0.3974   -7.0711   27.5149 C   0  0  0  0  0  0  0  0  0  0  0  0
    2.5338   -7.6891   16.0102 C   0  0  0  0  0  0  0  0  0  0  0  0
    4.8690   -7.4380   26.4151 C   0  0  0  0  0  0  0  0  0  0  0  0
    2.3021   -5.6726   26.0378 C   0  0  0  0  0  0  0  0  0  0  0  0
    7.0880   -4.6163   27.0010 C   0  0  0  0  0  0  0  0  0  0  0  0
    8.3117   -4.3698   27.4436 C   0  0  0  0  0  0  0  0  0  0  0  0
    1.1339   -5.0515   26.3541 C   0  0  0  0  0  0  0  0  0  0  0  0
    4.8080   -8.0362   16.7101 C   0  0  0  0  0  0  0  0  0  0  0  0
   -1.2173   -3.9294   26.9717 O   0  0  0  0  0  0  0  0  0  0  0  0
   -1.0025   -5.0942   27.4586 C   0  0  0  0  0  0  0  0  0  0  0  0
    2.2474   -8.9123   16.6273 C   0  0  0  0  0  0  0  0  0  0  0  0
    4.4957   -9.2636   17.3041 C   0  0  0  0  0  0  0  0  0  0  0  0
   -1.8070   -5.6086   28.1920 O   0  0  0  0  0  0  0  0  0  0  0  0
   10.4296   -5.1799   28.3140 C   0  0  0  0  0  0  0  0  0  0  0  0
    6.6017   -5.9004   26.9187 C   0  0  0  0  0  0  0  0  0  0  0  0
    2.4761   -6.9940   26.4111 N   0  0  0  0  0  0  0  0  0  0  0  0
    9.1353   -5.4053   27.8239 C   0  0  0  0  0  0  0  0  0  0  0  0
    0.9922   -9.3232   16.5995 O   0  0  0  0  0  0  0  0  0  0  0  0
    1.5232   -7.6869   27.1182 C   0  0  0  0  0  0  0  0  0  0  0  0
    8.6878   -6.6715   27.7262 N   0  0  0  0  0  0  0  0  0  0  0  0
    6.9911   -8.2423   27.1808 C   0  0  0  0  0  0  0  0  0  0  0  0
    3.8436   -7.2758   16.0578 C   0  0  0  0  0  0  0  0  0  0  0  0
    3.1882   -9.7190   17.2566 C   0  0  0  0  0  0  0  0  0  0  0  0
    5.3488   -6.1737   26.5092 C   0  0  0  0  0  0  0  0  0  0  0  0
    7.4567   -6.9464   27.2858 C   0  0  0  0  0  0  0  0  0  0  0  0
    0.1921   -5.7592   27.1123 C   0  0  0  0  0  0  0  0  0  0  0  0
    3.5517   -7.7407   25.9711 C   0  0  0  0  0  0  0  0  0  0  0  0
  1  4  4  0
  1 22  4  0
  2 20  4  0
  2 27  4  0
  3 12  4  0
  3 23  4  0
  4 25  4  0
  4 28  1  0
  5  8  4  0
  5 17  4  0
  6  7  4  0
  6 16  4  0
  7 18  4  0
  8 27  4  0
  9 13  4  0
  9 23  4  0
 10 11  1  0
 11 14  2  0
 11 27  1  0
 12 19  1  0
 12 24  4  0
 13 24  4  0
 15 18  1  0
 16 25  4  0
 16 26  4  0
 17 20  4  0
 17 28  1  0
 18 21  4  0
 21 26  4  0
 22 26  4  0
M  END
$$$$

 Created by Python create_sdf_string function

 28 30  0  0  0  0  0  0  0  0999 V2000
    5.7174   -8.4529   26.7190 C   0  0  0  0  0  0  0  0  0  0  0  0
    0.3974   -7.0711   27.5149 C   0  0  0  0  0  0  0  0  0  0  0  0
    2.5338   -7.6891   16.0102 C   0  0  0  0  0  0  0  0  0  0  0  0
    4.8690   -7.4380   26.4151 C   0  0  0  0  0  0  0  0  0  0  0  0
    2.3021   -5.6726   26.0378 C   0  0  0  0  0  0  0  0  0  0  0  0
    7.0880   -4.6163   27.0010 C   0  0  0  0  0  0  0  0  0  0  0  0
    8.3117   -4.3698   27.4436 C   0  0  0  0  0  0  0  0  0  0  0  0
    1.1339   -5.0515   26.3541 C   0  0  0  0  0  0  0  0  0  0  0  0
    4.8080   -8.0362   16.7101 C   0  0  0  0  0  0  0  0  0  0  0  0
   -1.2173   -3.9294   26.9717 O   0  0  0  0  0  0  0  0  0  0  0  0
   -1.0025   -5.0942   27.4586 C   0  0  0  0  0  0  0  0  0  0  0  0
    2.2474   -8.9123   16.6273 C   0  0  0  0  0  0  0  0  0  0  0  0
    4.4957   -9.2636   17.3041 C   0  0  0  0  0  0  0  0  0  0  0  0
   -1.8070   -5.6086   28.1920 O   0  0  0  0  0  0  0  0  0  0  0  0
   10.4296   -5.1799   28.3140 C   0  0  0  0  0  0  0  0  0  0  0  0
    6.6017   -5.9004   26.9187 C   0  0  0  0  0  0  0  0  0  0  0  0
    2.4761   -6.9940   26.4111 N   0  0  0  0  0  0  0  0  0  0  0  0
    9.1353   -5.4053   27.8239 C   0  0  0  0  0  0  0  0  0  0  0  0
    0.9922   -9.3232   16.5995 O   0  0  0  0  0  0  0  0  0  0  0  0
    1.5232   -7.6869   27.1182 C   0  0  0  0  0  0  0  0  0  0  0  0
    8.6878   -6.6715   27.7262 N   0  0  0  0  0  0  0  0  0  0  0  0
    6.9911   -8.2423   27.1808 C   0  0  0  0  0  0  0  0  0  0  0  0
    3.8436   -7.2758   16.0578 C   0  0  0  0  0  0  0  0  0  0  0  0
    3.1882   -9.7190   17.2566 C   0  0  0  0  0  0  0  0  0  0  0  0
    5.3488   -6.1737   26.5092 C   0  0  0  0  0  0  0  0  0  0  0  0
    7.4567   -6.9464   27.2858 C   0  0  0  0  0  0  0  0  0  0  0  0
    0.1921   -5.7592   27.1123 C   0  0  0  0  0  0  0  0  0  0  0  0
    3.5517   -7.7407   25.9711 C   0  0  0  0  0  0  0  0  0  0  0  0
  1  4  4  0
  1 22  4  0
  2 20  4  0
  2 27  4  0
  3 12  4  0
  3 23  4  0
  4 25  4  0
  4 28  1  0
  5  8  4  0
  5 17  4  0
  6  7  4  0
  6 16  4  0
  7 18  4  0
  8 27  4  0
  9 13  4  0
  9 23  4  0
 10 11  1  0
 11 14  2  0
 11 27  1  0
 12 19  1  0
 12 24  4  0
 13 24  4  0
 15 18  1  0
 16 25  4  0
 16 26  4  0
 17 20  4  0
 17 28  1  0
 18 21  4  0
 21 26  4  0
 22 26  4  0
M  END
$$$$

 Created by Python create_sdf_string function

 28 30  0  0  0  0  0  0  0  0999 V2000
    5.7174   -8.4529   26.7190 C   0  0  0  0  0  0  0  0  0  0  0  0
    0.3974   -7.0711   27.5149 C   0  0  0  0  0  0  0  0  0  0  0  0
    2.5338   -7.6891   16.0102 C   0  0  0  0  0  0  0  0  0  0  0  0
    4.8690   -7.4380   26.4151 C   0  0  0  0  0  0  0  0  0  0  0  0
    2.3021   -5.6726   26.0378 C   0  0  0  0  0  0  0  0  0  0  0  0
    7.0880   -4.6163   27.0010 C   0  0  0  0  0  0  0  0  0  0  0  0
    8.3117   -4.3698   27.4436 C   0  0  0  0  0  0  0  0  0  0  0  0
    1.1339   -5.0515   26.3541 C   0  0  0  0  0  0  0  0  0  0  0  0
    4.8080   -8.0362   16.7101 C   0  0  0  0  0  0  0  0  0  0  0  0
   -1.2173   -3.9294   26.9717 O   0  0  0  0  0  0  0  0  0  0  0  0
   -1.0025   -5.0942   27.4586 C   0  0  0  0  0  0  0  0  0  0  0  0
    2.2474   -8.9123   16.6273 C   0  0  0  0  0  0  0  0  0  0  0  0
    4.4957   -9.2636   17.3041 C   0  0  0  0  0  0  0  0  0  0  0  0
   -1.8070   -5.6086   28.1920 O   0  0  0  0  0  0  0  0  0  0  0  0
   10.4296   -5.1799   28.3140 C   0  0  0  0  0  0  0  0  0  0  0  0
    6.6017   -5.9004   26.9187 C   0  0  0  0  0  0  0  0  0  0  0  0
    2.4761   -6.9940   26.4111 N   0  0  0  0  0  0  0  0  0  0  0  0
    9.1353   -5.4053   27.8239 C   0  0  0  0  0  0  0  0  0  0  0  0
    0.9922   -9.3232   16.5995 O   0  0  0  0  0  0  0  0  0  0  0  0
    1.5232   -7.6869   27.1182 C   0  0  0  0  0  0  0  0  0  0  0  0
    8.6878   -6.6715   27.7262 N   0  0  0  0  0  0  0  0  0  0  0  0
    6.9911   -8.2423   27.1808 C   0  0  0  0  0  0  0  0  0  0  0  0
    3.8436   -7.2758   16.0578 C   0  0  0  0  0  0  0  0  0  0  0  0
    3.1882   -9.7190   17.2566 C   0  0  0  0  0  0  0  0  0  0  0  0
    5.3488   -6.1737   26.5092 C   0  0  0  0  0  0  0  0  0  0  0  0
    7.4567   -6.9464   27.2858 C   0  0  0  0  0  0  0  0  0  0  0  0
    0.1921   -5.7592   27.1123 C   0  0  0  0  0  0  0  0  0  0  0  0
    3.5517   -7.7407   25.9711 C   0  0  0  0  0  0  0  0  0  0  0  0
  1  4  4  0
  1 22  4  0
  2 20  4  0
  2 27  4  0
  3 12  4  0
  3 23  4  0
  4 25  4  0
  4 28  1  0
  5  8  4  0
  5 17  4  0
  6  7  4  0
  6 16  4  0
  7 18  4  0
  8 27  4  0
  9 13  4  0
  9 23  4  0
 10 11  1  0
 11 14  2  0
 11 27  1  0
 12 19  1  0
 12 24  4  0
 13 24  4  0
 15 18  1  0
 16 25  4  0
 16 26  4  0
 17 20  4  0
 17 28  1  0
 18 21  4  0
 21 26  4  0
 22 26  4  0
M  END
$$$$

 Created by Python create_sdf_string function

 28 30  0  0  0  0  0  0  0  0999 V2000
    5.7174   -8.4529   26.7190 C   0  0  0  0  0  0  0  0  0  0  0  0
    0.3974   -7.0711   27.5149 C   0  0  0  0  0  0  0  0  0  0  0  0
    2.5338   -7.6891   16.0102 C   0  0  0  0  0  0  0  0  0  0  0  0
    4.8690   -7.4380   26.4151 C   0  0  0  0  0  0  0  0  0  0  0  0
    2.3021   -5.6726   26.0378 C   0  0  0  0  0  0  0  0  0  0  0  0
    7.0880   -4.6163   27.0010 C   0  0  0  0  0  0  0  0  0  0  0  0
    8.3117   -4.3698   27.4436 C   0  0  0  0  0  0  0  0  0  0  0  0
    1.1339   -5.0515   26.3541 C   0  0  0  0  0  0  0  0  0  0  0  0
    4.8080   -8.0362   16.7101 C   0  0  0  0  0  0  0  0  0  0  0  0
   -1.2173   -3.9294   26.9717 O   0  0  0  0  0  0  0  0  0  0  0  0
   -1.0025   -5.0942   27.4586 C   0  0  0  0  0  0  0  0  0  0  0  0
    2.2474   -8.9123   16.6273 C   0  0  0  0  0  0  0  0  0  0  0  0
    4.4957   -9.2636   17.3041 C   0  0  0  0  0  0  0  0  0  0  0  0
   -1.8070   -5.6086   28.1920 O   0  0  0  0  0  0  0  0  0  0  0  0
   10.4296   -5.1799   28.3140 C   0  0  0  0  0  0  0  0  0  0  0  0
    6.6017   -5.9004   26.9187 C   0  0  0  0  0  0  0  0  0  0  0  0
    2.4761   -6.9940   26.4111 N   0  0  0  0  0  0  0  0  0  0  0  0
    9.1353   -5.4053   27.8239 C   0  0  0  0  0  0  0  0  0  0  0  0
    0.9922   -9.3232   16.5995 O   0  0  0  0  0  0  0  0  0  0  0  0
    1.5232   -7.6869   27.1182 C   0  0  0  0  0  0  0  0  0  0  0  0
    8.6878   -6.6715   27.7262 N   0  0  0  0  0  0  0  0  0  0  0  0
    6.9911   -8.2423   27.1808 C   0  0  0  0  0  0  0  0  0  0  0  0
    3.8436   -7.2758   16.0578 C   0  0  0  0  0  0  0  0  0  0  0  0
    3.1882   -9.7190   17.2566 C   0  0  0  0  0  0  0  0  0  0  0  0
    5.3488   -6.1737   26.5092 C   0  0  0  0  0  0  0  0  0  0  0  0
    7.4567   -6.9464   27.2858 C   0  0  0  0  0  0  0  0  0  0  0  0
    0.1921   -5.7592   27.1123 C   0  0  0  0  0  0  0  0  0  0  0  0
    3.5517   -7.7407   25.9711 C   0  0  0  0  0  0  0  0  0  0  0  0
  1  4  4  0
  1 22  4  0
  2 20  4  0
  2 27  4  0
  3 12  4  0
  3 23  4  0
  4 25  4  0
  4 28  1  0
  5  8  4  0
  5 17  4  0
  6  7  4  0
  6 16  4  0
  7 18  4  0
  8 27  4  0
  9 13  4  0
  9 23  4  0
 10 11  1  0
 11 14  2  0
 11 27  1  0
 12 19  1  0
 12 24  4  0
 13 24  4  0
 15 18  1  0
 16 25  4  0
 16 26  4  0
 17 20  4  0
 17 28  1  0
 18 21  4  0
 21 26  4  0
 22 26  4  0
M  END
$$$$

 Created by Python create_sdf_string function

 28 30  0  0  0  0  0  0  0  0999 V2000
    5.7174   -8.4529   26.7190 C   0  0  0  0  0  0  0  0  0  0  0  0
    0.3974   -7.0711   27.5149 C   0  0  0  0  0  0  0  0  0  0  0  0
    2.5338   -7.6891   16.0102 C   0  0  0  0  0  0  0  0  0  0  0  0
    4.8690   -7.4380   26.4151 C   0  0  0  0  0  0  0  0  0  0  0  0
    2.3021   -5.6726   26.0378 C   0  0  0  0  0  0  0  0  0  0  0  0
    7.0880   -4.6163   27.0010 C   0  0  0  0  0  0  0  0  0  0  0  0
    8.3117   -4.3698   27.4436 C   0  0  0  0  0  0  0  0  0  0  0  0
    1.1339   -5.0515   26.3541 C   0  0  0  0  0  0  0  0  0  0  0  0
    4.8080   -8.0362   16.7101 C   0  0  0  0  0  0  0  0  0  0  0  0
   -1.2173   -3.9294   26.9717 O   0  0  0  0  0  0  0  0  0  0  0  0
   -1.0025   -5.0942   27.4586 C   0  0  0  0  0  0  0  0  0  0  0  0
    2.2474   -8.9123   16.6273 C   0  0  0  0  0  0  0  0  0  0  0  0
    4.4957   -9.2636   17.3041 C   0  0  0  0  0  0  0  0  0  0  0  0
   -1.8070   -5.6086   28.1920 O   0  0  0  0  0  0  0  0  0  0  0  0
   10.4296   -5.1799   28.3140 C   0  0  0  0  0  0  0  0  0  0  0  0
    6.6017   -5.9004   26.9187 C   0  0  0  0  0  0  0  0  0  0  0  0
    2.4761   -6.9940   26.4111 N   0  0  0  0  0  0  0  0  0  0  0  0
    9.1353   -5.4053   27.8239 C   0  0  0  0  0  0  0  0  0  0  0  0
    0.9922   -9.3232   16.5995 O   0  0  0  0  0  0  0  0  0  0  0  0
    1.5232   -7.6869   27.1182 C   0  0  0  0  0  0  0  0  0  0  0  0
    8.6878   -6.6715   27.7262 N   0  0  0  0  0  0  0  0  0  0  0  0
    6.9911   -8.2423   27.1808 C   0  0  0  0  0  0  0  0  0  0  0  0
    3.8436   -7.2758   16.0578 C   0  0  0  0  0  0  0  0  0  0  0  0
    3.1882   -9.7190   17.2566 C   0  0  0  0  0  0  0  0  0  0  0  0
    5.3488   -6.1737   26.5092 C   0  0  0  0  0  0  0  0  0  0  0  0
    7.4567   -6.9464   27.2858 C   0  0  0  0  0  0  0  0  0  0  0  0
    0.1921   -5.7592   27.1123 C   0  0  0  0  0  0  0  0  0  0  0  0
    3.5517   -7.7407   25.9711 C   0  0  0  0  0  0  0  0  0  0  0  0
  1  4  4  0
  1 22  4  0
  2 20  4  0
  2 27  4  0
  3 12  4  0
  3 23  4  0
  4 25  4  0
  4 28  1  0
  5  8  4  0
  5 17  4  0
  6  7  4  0
  6 16  4  0
  7 18  4  0
  8 27  4  0
  9 13  4  0
  9 23  4  0
 10 11  1  0
 11 14  2  0
 11 27  1  0
 12 19  1  0
 12 24  4  0
 13 24  4  0
 15 18  1  0
 16 25  4  0
 16 26  4  0
 17 20  4  0
 17 28  1  0
 18 21  4  0
 21 26  4  0
 22 26  4  0
M  END
$$$$

 Created by Python create_sdf_string function

 28 30  0  0  0  0  0  0  0  0999 V2000
    5.7174   -8.4529   26.7190 C   0  0  0  0  0  0  0  0  0  0  0  0
    0.3974   -7.0711   27.5149 C   0  0  0  0  0  0  0  0  0  0  0  0
    2.5338   -7.6891   16.0102 C   0  0  0  0  0  0  0  0  0  0  0  0
    4.8690   -7.4380   26.4151 C   0  0  0  0  0  0  0  0  0  0  0  0
    2.3021   -5.6726   26.0378 C   0  0  0  0  0  0  0  0  0  0  0  0
    7.0880   -4.6163   27.0010 C   0  0  0  0  0  0  0  0  0  0  0  0
    8.3117   -4.3698   27.4436 C   0  0  0  0  0  0  0  0  0  0  0  0
    1.1339   -5.0515   26.3541 C   0  0  0  0  0  0  0  0  0  0  0  0
    4.8080   -8.0362   16.7101 C   0  0  0  0  0  0  0  0  0  0  0  0
   -1.2173   -3.9294   26.9717 O   0  0  0  0  0  0  0  0  0  0  0  0
   -1.0025   -5.0942   27.4586 C   0  0  0  0  0  0  0  0  0  0  0  0
    2.2474   -8.9123   16.6273 C   0  0  0  0  0  0  0  0  0  0  0  0
    4.4957   -9.2636   17.3041 C   0  0  0  0  0  0  0  0  0  0  0  0
   -1.8070   -5.6086   28.1920 O   0  0  0  0  0  0  0  0  0  0  0  0
   10.4296   -5.1799   28.3140 C   0  0  0  0  0  0  0  0  0  0  0  0
    6.6017   -5.9004   26.9187 C   0  0  0  0  0  0  0  0  0  0  0  0
    2.4761   -6.9940   26.4111 N   0  0  0  0  0  0  0  0  0  0  0  0
    9.1353   -5.4053   27.8239 C   0  0  0  0  0  0  0  0  0  0  0  0
    0.9922   -9.3232   16.5995 O   0  0  0  0  0  0  0  0  0  0  0  0
    1.5232   -7.6869   27.1182 C   0  0  0  0  0  0  0  0  0  0  0  0
    8.6878   -6.6715   27.7262 N   0  0  0  0  0  0  0  0  0  0  0  0
    6.9911   -8.2423   27.1808 C   0  0  0  0  0  0  0  0  0  0  0  0
    3.8436   -7.2758   16.0578 C   0  0  0  0  0  0  0  0  0  0  0  0
    3.1882   -9.7190   17.2566 C   0  0  0  0  0  0  0  0  0  0  0  0
    5.3488   -6.1737   26.5092 C   0  0  0  0  0  0  0  0  0  0  0  0
    7.4567   -6.9464   27.2858 C   0  0  0  0  0  0  0  0  0  0  0  0
    0.1921   -5.7592   27.1123 C   0  0  0  0  0  0  0  0  0  0  0  0
    3.5517   -7.7407   25.9711 C   0  0  0  0  0  0  0  0  0  0  0  0
  1  4  4  0
  1 22  4  0
  2 20  4  0
  2 27  4  0
  3 12  4  0
  3 23  4  0
  4 25  4  0
  4 28  1  0
  5  8  4  0
  5 17  4  0
  6  7  4  0
  6 16  4  0
  7 18  4  0
  8 27  4  0
  9 13  4  0
  9 23  4  0
 10 11  1  0
 11 14  2  0
 11 27  1  0
 12 19  1  0
 12 24  4  0
 13 24  4  0
 15 18  1  0
 16 25  4  0
 16 26  4  0
 17 20  4  0
 17 28  1  0
 18 21  4  0
 21 26  4  0
 22 26  4  0
M  END
$$$$

 Created by Python create_sdf_string function

 28 30  0  0  0  0  0  0  0  0999 V2000
    5.7174   -8.4529   26.7190 C   0  0  0  0  0  0  0  0  0  0  0  0
    0.3974   -7.0711   27.5149 C   0  0  0  0  0  0  0  0  0  0  0  0
    2.5338   -7.6891   16.0102 C   0  0  0  0  0  0  0  0  0  0  0  0
    4.8690   -7.4380   26.4151 C   0  0  0  0  0  0  0  0  0  0  0  0
    2.3021   -5.6726   26.0378 C   0  0  0  0  0  0  0  0  0  0  0  0
    7.0880   -4.6163   27.0010 C   0  0  0  0  0  0  0  0  0  0  0  0
    8.3117   -4.3698   27.4436 C   0  0  0  0  0  0  0  0  0  0  0  0
    1.1339   -5.0515   26.3541 C   0  0  0  0  0  0  0  0  0  0  0  0
    4.8080   -8.0362   16.7101 C   0  0  0  0  0  0  0  0  0  0  0  0
   -1.2173   -3.9294   26.9717 O   0  0  0  0  0  0  0  0  0  0  0  0
   -1.0025   -5.0942   27.4586 C   0  0  0  0  0  0  0  0  0  0  0  0
    2.2474   -8.9123   16.6273 C   0  0  0  0  0  0  0  0  0  0  0  0
    4.4957   -9.2636   17.3041 C   0  0  0  0  0  0  0  0  0  0  0  0
   -1.8070   -5.6086   28.1920 O   0  0  0  0  0  0  0  0  0  0  0  0
   10.4296   -5.1799   28.3140 C   0  0  0  0  0  0  0  0  0  0  0  0
    6.6017   -5.9004   26.9187 C   0  0  0  0  0  0  0  0  0  0  0  0
    2.4761   -6.9940   26.4111 N   0  0  0  0  0  0  0  0  0  0  0  0
    9.1353   -5.4053   27.8239 C   0  0  0  0  0  0  0  0  0  0  0  0
    0.9922   -9.3232   16.5995 O   0  0  0  0  0  0  0  0  0  0  0  0
    1.5232   -7.6869   27.1182 C   0  0  0  0  0  0  0  0  0  0  0  0
    8.6878   -6.6715   27.7262 N   0  0  0  0  0  0  0  0  0  0  0  0
    6.9911   -8.2423   27.1808 C   0  0  0  0  0  0  0  0  0  0  0  0
    3.8436   -7.2758   16.0578 C   0  0  0  0  0  0  0  0  0  0  0  0
    3.1882   -9.7190   17.2566 C   0  0  0  0  0  0  0  0  0  0  0  0
    5.3488   -6.1737   26.5092 C   0  0  0  0  0  0  0  0  0  0  0  0
    7.4567   -6.9464   27.2858 C   0  0  0  0  0  0  0  0  0  0  0  0
    0.1921   -5.7592   27.1123 C   0  0  0  0  0  0  0  0  0  0  0  0
    3.5517   -7.7407   25.9711 C   0  0  0  0  0  0  0  0  0  0  0  0
  1  4  4  0
  1 22  4  0
  2 20  4  0
  2 27  4  0
  3 12  4  0
  3 23  4  0
  4 25  4  0
  4 28  1  0
  5  8  4  0
  5 17  4  0
  6  7  4  0
  6 16  4  0
  7 18  4  0
  8 27  4  0
  9 13  4  0
  9 23  4  0
 10 11  1  0
 11 14  2  0
 11 27  1  0
 12 19  1  0
 12 24  4  0
 13 24  4  0
 15 18  1  0
 16 25  4  0
 16 26  4  0
 17 20  4  0
 17 28  1  0
 18 21  4  0
 21 26  4  0
 22 26  4  0
M  END
$$$$

 Created by Python create_sdf_string function

 28 30  0  0  0  0  0  0  0  0999 V2000
    5.7174   -8.4529   26.7190 C   0  0  0  0  0  0  0  0  0  0  0  0
    0.3974   -7.0711   27.5149 C   0  0  0  0  0  0  0  0  0  0  0  0
    2.5338   -7.6891   16.0102 C   0  0  0  0  0  0  0  0  0  0  0  0
    4.8690   -7.4380   26.4151 C   0  0  0  0  0  0  0  0  0  0  0  0
    2.3021   -5.6726   26.0378 C   0  0  0  0  0  0  0  0  0  0  0  0
    7.0880   -4.6163   27.0010 C   0  0  0  0  0  0  0  0  0  0  0  0
    8.3117   -4.3698   27.4436 C   0  0  0  0  0  0  0  0  0  0  0  0
    1.1339   -5.0515   26.3541 C   0  0  0  0  0  0  0  0  0  0  0  0
    4.8080   -8.0362   16.7101 C   0  0  0  0  0  0  0  0  0  0  0  0
   -1.2173   -3.9294   26.9717 O   0  0  0  0  0  0  0  0  0  0  0  0
   -1.0025   -5.0942   27.4586 C   0  0  0  0  0  0  0  0  0  0  0  0
    2.2474   -8.9123   16.6273 C   0  0  0  0  0  0  0  0  0  0  0  0
    4.4957   -9.2636   17.3041 C   0  0  0  0  0  0  0  0  0  0  0  0
   -1.8070   -5.6086   28.1920 O   0  0  0  0  0  0  0  0  0  0  0  0
   10.4296   -5.1799   28.3140 C   0  0  0  0  0  0  0  0  0  0  0  0
    6.6017   -5.9004   26.9187 C   0  0  0  0  0  0  0  0  0  0  0  0
    2.4761   -6.9940   26.4111 N   0  0  0  0  0  0  0  0  0  0  0  0
    9.1353   -5.4053   27.8239 C   0  0  0  0  0  0  0  0  0  0  0  0
    0.9922   -9.3232   16.5995 O   0  0  0  0  0  0  0  0  0  0  0  0
    1.5232   -7.6869   27.1182 C   0  0  0  0  0  0  0  0  0  0  0  0
    8.6878   -6.6715   27.7262 N   0  0  0  0  0  0  0  0  0  0  0  0
    6.9911   -8.2423   27.1808 C   0  0  0  0  0  0  0  0  0  0  0  0
    3.8436   -7.2758   16.0578 C   0  0  0  0  0  0  0  0  0  0  0  0
    3.1882   -9.7190   17.2566 C   0  0  0  0  0  0  0  0  0  0  0  0
    5.3488   -6.1737   26.5092 C   0  0  0  0  0  0  0  0  0  0  0  0
    7.4567   -6.9464   27.2858 C   0  0  0  0  0  0  0  0  0  0  0  0
    0.1921   -5.7592   27.1123 C   0  0  0  0  0  0  0  0  0  0  0  0
    3.5517   -7.7407   25.9711 C   0  0  0  0  0  0  0  0  0  0  0  0
  1  4  4  0
  1 22  4  0
  2 20  4  0
  2 27  4  0
  3 12  4  0
  3 23  4  0
  4 25  4  0
  4 28  1  0
  5  8  4  0
  5 17  4  0
  6  7  4  0
  6 16  4  0
  7 18  4  0
  8 27  4  0
  9 13  4  0
  9 23  4  0
 10 11  1  0
 11 14  2  0
 11 27  1  0
 12 19  1  0
 12 24  4  0
 13 24  4  0
 15 18  1  0
 16 25  4  0
 16 26  4  0
 17 20  4  0
 17 28  1  0
 18 21  4  0
 21 26  4  0
 22 26  4  0
M  END
$$$$

 Created by Python create_sdf_string function

 28 30  0  0  0  0  0  0  0  0999 V2000
    5.7174   -8.4529   26.7190 C   0  0  0  0  0  0  0  0  0  0  0  0
    0.3974   -7.0711   27.5149 C   0  0  0  0  0  0  0  0  0  0  0  0
    2.5338   -7.6891   16.0102 C   0  0  0  0  0  0  0  0  0  0  0  0
    4.8690   -7.4380   26.4151 C   0  0  0  0  0  0  0  0  0  0  0  0
    2.3021   -5.6726   26.0378 C   0  0  0  0  0  0  0  0  0  0  0  0
    7.0880   -4.6163   27.0010 C   0  0  0  0  0  0  0  0  0  0  0  0
    8.3117   -4.3698   27.4436 C   0  0  0  0  0  0  0  0  0  0  0  0
    1.1339   -5.0515   26.3541 C   0  0  0  0  0  0  0  0  0  0  0  0
    4.8080   -8.0362   16.7101 C   0  0  0  0  0  0  0  0  0  0  0  0
   -1.2173   -3.9294   26.9717 O   0  0  0  0  0  0  0  0  0  0  0  0
   -1.0025   -5.0942   27.4586 C   0  0  0  0  0  0  0  0  0  0  0  0
    2.2474   -8.9123   16.6273 C   0  0  0  0  0  0  0  0  0  0  0  0
    4.4957   -9.2636   17.3041 C   0  0  0  0  0  0  0  0  0  0  0  0
   -1.8070   -5.6086   28.1920 O   0  0  0  0  0  0  0  0  0  0  0  0
   10.4296   -5.1799   28.3140 C   0  0  0  0  0  0  0  0  0  0  0  0
    6.6017   -5.9004   26.9187 C   0  0  0  0  0  0  0  0  0  0  0  0
    2.4761   -6.9940   26.4111 N   0  0  0  0  0  0  0  0  0  0  0  0
    9.1353   -5.4053   27.8239 C   0  0  0  0  0  0  0  0  0  0  0  0
    0.9922   -9.3232   16.5995 O   0  0  0  0  0  0  0  0  0  0  0  0
    1.5232   -7.6869   27.1182 C   0  0  0  0  0  0  0  0  0  0  0  0
    8.6878   -6.6715   27.7262 N   0  0  0  0  0  0  0  0  0  0  0  0
    6.9911   -8.2423   27.1808 C   0  0  0  0  0  0  0  0  0  0  0  0
    3.8436   -7.2758   16.0578 C   0  0  0  0  0  0  0  0  0  0  0  0
    3.1882   -9.7190   17.2566 C   0  0  0  0  0  0  0  0  0  0  0  0
    5.3488   -6.1737   26.5092 C   0  0  0  0  0  0  0  0  0  0  0  0
    7.4567   -6.9464   27.2858 C   0  0  0  0  0  0  0  0  0  0  0  0
    0.1921   -5.7592   27.1123 C   0  0  0  0  0  0  0  0  0  0  0  0
    3.5517   -7.7407   25.9711 C   0  0  0  0  0  0  0  0  0  0  0  0
  1  4  4  0
  1 22  4  0
  2 20  4  0
  2 27  4  0
  3 12  4  0
  3 23  4  0
  4 25  4  0
  4 28  1  0
  5  8  4  0
  5 17  4  0
  6  7  4  0
  6 16  4  0
  7 18  4  0
  8 27  4  0
  9 13  4  0
  9 23  4  0
 10 11  1  0
 11 14  2  0
 11 27  1  0
 12 19  1  0
 12 24  4  0
 13 24  4  0
 15 18  1  0
 16 25  4  0
 16 26  4  0
 17 20  4  0
 17 28  1  0
 18 21  4  0
 21 26  4  0
 22 26  4  0
M  END
$$$$

 Created by Python create_sdf_string function

 28 30  0  0  0  0  0  0  0  0999 V2000
    5.7174   -8.4529   26.7190 C   0  0  0  0  0  0  0  0  0  0  0  0
    0.3974   -7.0711   27.5149 C   0  0  0  0  0  0  0  0  0  0  0  0
    2.5338   -7.6891   16.0102 C   0  0  0  0  0  0  0  0  0  0  0  0
    4.8690   -7.4380   26.4151 C   0  0  0  0  0  0  0  0  0  0  0  0
    2.3021   -5.6726   26.0378 C   0  0  0  0  0  0  0  0  0  0  0  0
    7.0880   -4.6163   27.0010 C   0  0  0  0  0  0  0  0  0  0  0  0
    8.3117   -4.3698   27.4436 C   0  0  0  0  0  0  0  0  0  0  0  0
    1.1339   -5.0515   26.3541 C   0  0  0  0  0  0  0  0  0  0  0  0
    4.8080   -8.0362   16.7101 C   0  0  0  0  0  0  0  0  0  0  0  0
   -1.2173   -3.9294   26.9717 O   0  0  0  0  0  0  0  0  0  0  0  0
   -1.0025   -5.0942   27.4586 C   0  0  0  0  0  0  0  0  0  0  0  0
    2.2474   -8.9123   16.6273 C   0  0  0  0  0  0  0  0  0  0  0  0
    4.4957   -9.2636   17.3041 C   0  0  0  0  0  0  0  0  0  0  0  0
   -1.8070   -5.6086   28.1920 O   0  0  0  0  0  0  0  0  0  0  0  0
   10.4296   -5.1799   28.3140 C   0  0  0  0  0  0  0  0  0  0  0  0
    6.6017   -5.9004   26.9187 C   0  0  0  0  0  0  0  0  0  0  0  0
    2.4761   -6.9940   26.4111 N   0  0  0  0  0  0  0  0  0  0  0  0
    9.1353   -5.4053   27.8239 C   0  0  0  0  0  0  0  0  0  0  0  0
    0.9922   -9.3232   16.5995 O   0  0  0  0  0  0  0  0  0  0  0  0
    1.5232   -7.6869   27.1182 C   0  0  0  0  0  0  0  0  0  0  0  0
    8.6878   -6.6715   27.7262 N   0  0  0  0  0  0  0  0  0  0  0  0
    6.9911   -8.2423   27.1808 C   0  0  0  0  0  0  0  0  0  0  0  0
    3.8436   -7.2758   16.0578 C   0  0  0  0  0  0  0  0  0  0  0  0
    3.1882   -9.7190   17.2566 C   0  0  0  0  0  0  0  0  0  0  0  0
    5.3488   -6.1737   26.5092 C   0  0  0  0  0  0  0  0  0  0  0  0
    7.4567   -6.9464   27.2858 C   0  0  0  0  0  0  0  0  0  0  0  0
    0.1921   -5.7592   27.1123 C   0  0  0  0  0  0  0  0  0  0  0  0
    3.5517   -7.7407   25.9711 C   0  0  0  0  0  0  0  0  0  0  0  0
  1  4  4  0
  1 22  4  0
  2 20  4  0
  2 27  4  0
  3 12  4  0
  3 23  4  0
  4 25  4  0
  4 28  1  0
  5  8  4  0
  5 17  4  0
  6  7  4  0
  6 16  4  0
  7 18  4  0
  8 27  4  0
  9 13  4  0
  9 23  4  0
 10 11  1  0
 11 14  2  0
 11 27  1  0
 12 19  1  0
 12 24  4  0
 13 24  4  0
 15 18  1  0
 16 25  4  0
 16 26  4  0
 17 20  4  0
 17 28  1  0
 18 21  4  0
 21 26  4  0
 22 26  4  0
M  END
$$$$

 Created by Python create_sdf_string function

 28 30  0  0  0  0  0  0  0  0999 V2000
    5.7174   -8.4529   26.7190 C   0  0  0  0  0  0  0  0  0  0  0  0
    0.3974   -7.0711   27.5149 C   0  0  0  0  0  0  0  0  0  0  0  0
    2.5338   -7.6891   16.0102 C   0  0  0  0  0  0  0  0  0  0  0  0
    4.8690   -7.4380   26.4151 C   0  0  0  0  0  0  0  0  0  0  0  0
    2.3021   -5.6726   26.0378 C   0  0  0  0  0  0  0  0  0  0  0  0
    7.0880   -4.6163   27.0010 C   0  0  0  0  0  0  0  0  0  0  0  0
    8.3117   -4.3698   27.4436 C   0  0  0  0  0  0  0  0  0  0  0  0
    1.1339   -5.0515   26.3541 C   0  0  0  0  0  0  0  0  0  0  0  0
    4.8080   -8.0362   16.7101 C   0  0  0  0  0  0  0  0  0  0  0  0
   -1.2173   -3.9294   26.9717 O   0  0  0  0  0  0  0  0  0  0  0  0
   -1.0025   -5.0942   27.4586 C   0  0  0  0  0  0  0  0  0  0  0  0
    2.2474   -8.9123   16.6273 C   0  0  0  0  0  0  0  0  0  0  0  0
    4.4957   -9.2636   17.3041 C   0  0  0  0  0  0  0  0  0  0  0  0
   -1.8070   -5.6086   28.1920 O   0  0  0  0  0  0  0  0  0  0  0  0
   10.4296   -5.1799   28.3140 C   0  0  0  0  0  0  0  0  0  0  0  0
    6.6017   -5.9004   26.9187 C   0  0  0  0  0  0  0  0  0  0  0  0
    2.4761   -6.9940   26.4111 N   0  0  0  0  0  0  0  0  0  0  0  0
    9.1353   -5.4053   27.8239 C   0  0  0  0  0  0  0  0  0  0  0  0
    0.9922   -9.3232   16.5995 O   0  0  0  0  0  0  0  0  0  0  0  0
    1.5232   -7.6869   27.1182 C   0  0  0  0  0  0  0  0  0  0  0  0
    8.6878   -6.6715   27.7262 N   0  0  0  0  0  0  0  0  0  0  0  0
    6.9911   -8.2423   27.1808 C   0  0  0  0  0  0  0  0  0  0  0  0
    3.8436   -7.2758   16.0578 C   0  0  0  0  0  0  0  0  0  0  0  0
    3.1882   -9.7190   17.2566 C   0  0  0  0  0  0  0  0  0  0  0  0
    5.3488   -6.1737   26.5092 C   0  0  0  0  0  0  0  0  0  0  0  0
    7.4567   -6.9464   27.2858 C   0  0  0  0  0  0  0  0  0  0  0  0
    0.1921   -5.7592   27.1123 C   0  0  0  0  0  0  0  0  0  0  0  0
    3.5517   -7.7407   25.9711 C   0  0  0  0  0  0  0  0  0  0  0  0
  1  4  4  0
  1 22  4  0
  2 20  4  0
  2 27  4  0
  3 12  4  0
  3 23  4  0
  4 25  4  0
  4 28  1  0
  5  8  4  0
  5 17  4  0
  6  7  4  0
  6 16  4  0
  7 18  4  0
  8 27  4  0
  9 13  4  0
  9 23  4  0
 10 11  1  0
 11 14  2  0
 11 27  1  0
 12 19  1  0
 12 24  4  0
 13 24  4  0
 15 18  1  0
 16 25  4  0
 16 26  4  0
 17 20  4  0
 17 28  1  0
 18 21  4  0
 21 26  4  0
 22 26  4  0
M  END
$$$$

 Created by Python create_sdf_string function

 28 30  0  0  0  0  0  0  0  0999 V2000
    5.7174   -8.4529   26.7190 C   0  0  0  0  0  0  0  0  0  0  0  0
    0.3974   -7.0711   27.5149 C   0  0  0  0  0  0  0  0  0  0  0  0
    2.5338   -7.6891   16.0102 C   0  0  0  0  0  0  0  0  0  0  0  0
    4.8690   -7.4380   26.4151 C   0  0  0  0  0  0  0  0  0  0  0  0
    2.3021   -5.6726   26.0378 C   0  0  0  0  0  0  0  0  0  0  0  0
    7.0880   -4.6163   27.0010 C   0  0  0  0  0  0  0  0  0  0  0  0
    8.3117   -4.3698   27.4436 C   0  0  0  0  0  0  0  0  0  0  0  0
    1.1339   -5.0515   26.3541 C   0  0  0  0  0  0  0  0  0  0  0  0
    4.8080   -8.0362   16.7101 C   0  0  0  0  0  0  0  0  0  0  0  0
   -1.2173   -3.9294   26.9717 O   0  0  0  0  0  0  0  0  0  0  0  0
   -1.0025   -5.0942   27.4586 C   0  0  0  0  0  0  0  0  0  0  0  0
    2.2474   -8.9123   16.6273 C   0  0  0  0  0  0  0  0  0  0  0  0
    4.4957   -9.2636   17.3041 C   0  0  0  0  0  0  0  0  0  0  0  0
   -1.8070   -5.6086   28.1920 O   0  0  0  0  0  0  0  0  0  0  0  0
   10.4296   -5.1799   28.3140 C   0  0  0  0  0  0  0  0  0  0  0  0
    6.6017   -5.9004   26.9187 C   0  0  0  0  0  0  0  0  0  0  0  0
    2.4761   -6.9940   26.4111 N   0  0  0  0  0  0  0  0  0  0  0  0
    9.1353   -5.4053   27.8239 C   0  0  0  0  0  0  0  0  0  0  0  0
    0.9922   -9.3232   16.5995 O   0  0  0  0  0  0  0  0  0  0  0  0
    1.5232   -7.6869   27.1182 C   0  0  0  0  0  0  0  0  0  0  0  0
    8.6878   -6.6715   27.7262 N   0  0  0  0  0  0  0  0  0  0  0  0
    6.9911   -8.2423   27.1808 C   0  0  0  0  0  0  0  0  0  0  0  0
    3.8436   -7.2758   16.0578 C   0  0  0  0  0  0  0  0  0  0  0  0
    3.1882   -9.7190   17.2566 C   0  0  0  0  0  0  0  0  0  0  0  0
    5.3488   -6.1737   26.5092 C   0  0  0  0  0  0  0  0  0  0  0  0
    7.4567   -6.9464   27.2858 C   0  0  0  0  0  0  0  0  0  0  0  0
    0.1921   -5.7592   27.1123 C   0  0  0  0  0  0  0  0  0  0  0  0
    3.5517   -7.7407   25.9711 C   0  0  0  0  0  0  0  0  0  0  0  0
  1  4  4  0
  1 22  4  0
  2 20  4  0
  2 27  4  0
  3 12  4  0
  3 23  4  0
  4 25  4  0
  4 28  1  0
  5  8  4  0
  5 17  4  0
  6  7  4  0
  6 16  4  0
  7 18  4  0
  8 27  4  0
  9 13  4  0
  9 23  4  0
 10 11  1  0
 11 14  2  0
 11 27  1  0
 12 19  1  0
 12 24  4  0
 13 24  4  0
 15 18  1  0
 16 25  4  0
 16 26  4  0
 17 20  4  0
 17 28  1  0
 18 21  4  0
 21 26  4  0
 22 26  4  0
M  END
$$$$

 Created by Python create_sdf_string function

 28 30  0  0  0  0  0  0  0  0999 V2000
    5.7174   -8.4529   26.7190 C   0  0  0  0  0  0  0  0  0  0  0  0
    0.3974   -7.0711   27.5149 C   0  0  0  0  0  0  0  0  0  0  0  0
    2.5338   -7.6891   16.0102 C   0  0  0  0  0  0  0  0  0  0  0  0
    4.8690   -7.4380   26.4151 C   0  0  0  0  0  0  0  0  0  0  0  0
    2.3021   -5.6726   26.0378 C   0  0  0  0  0  0  0  0  0  0  0  0
    7.0880   -4.6163   27.0010 C   0  0  0  0  0  0  0  0  0  0  0  0
    8.3117   -4.3698   27.4436 C   0  0  0  0  0  0  0  0  0  0  0  0
    1.1339   -5.0515   26.3541 C   0  0  0  0  0  0  0  0  0  0  0  0
    4.8080   -8.0362   16.7101 C   0  0  0  0  0  0  0  0  0  0  0  0
   -1.2173   -3.9294   26.9717 O   0  0  0  0  0  0  0  0  0  0  0  0
   -1.0025   -5.0942   27.4586 C   0  0  0  0  0  0  0  0  0  0  0  0
    2.2474   -8.9123   16.6273 C   0  0  0  0  0  0  0  0  0  0  0  0
    4.4957   -9.2636   17.3041 C   0  0  0  0  0  0  0  0  0  0  0  0
   -1.8070   -5.6086   28.1920 O   0  0  0  0  0  0  0  0  0  0  0  0
   10.4296   -5.1799   28.3140 C   0  0  0  0  0  0  0  0  0  0  0  0
    6.6017   -5.9004   26.9187 C   0  0  0  0  0  0  0  0  0  0  0  0
    2.4761   -6.9940   26.4111 N   0  0  0  0  0  0  0  0  0  0  0  0
    9.1353   -5.4053   27.8239 C   0  0  0  0  0  0  0  0  0  0  0  0
    0.9922   -9.3232   16.5995 O   0  0  0  0  0  0  0  0  0  0  0  0
    1.5232   -7.6869   27.1182 C   0  0  0  0  0  0  0  0  0  0  0  0
    8.6878   -6.6715   27.7262 N   0  0  0  0  0  0  0  0  0  0  0  0
    6.9911   -8.2423   27.1808 C   0  0  0  0  0  0  0  0  0  0  0  0
    3.8436   -7.2758   16.0578 C   0  0  0  0  0  0  0  0  0  0  0  0
    3.1882   -9.7190   17.2566 C   0  0  0  0  0  0  0  0  0  0  0  0
    5.3488   -6.1737   26.5092 C   0  0  0  0  0  0  0  0  0  0  0  0
    7.4567   -6.9464   27.2858 C   0  0  0  0  0  0  0  0  0  0  0  0
    0.1921   -5.7592   27.1123 C   0  0  0  0  0  0  0  0  0  0  0  0
    3.5517   -7.7407   25.9711 C   0  0  0  0  0  0  0  0  0  0  0  0
  1  4  4  0
  1 22  4  0
  2 20  4  0
  2 27  4  0
  3 12  4  0
  3 23  4  0
  4 25  4  0
  4 28  1  0
  5  8  4  0
  5 17  4  0
  6  7  4  0
  6 16  4  0
  7 18  4  0
  8 27  4  0
  9 13  4  0
  9 23  4  0
 10 11  1  0
 11 14  2  0
 11 27  1  0
 12 19  1  0
 12 24  4  0
 13 24  4  0
 15 18  1  0
 16 25  4  0
 16 26  4  0
 17 20  4  0
 17 28  1  0
 18 21  4  0
 21 26  4  0
 22 26  4  0
M  END
$$$$

 Created by Python create_sdf_string function

 28 30  0  0  0  0  0  0  0  0999 V2000
    5.7174   -8.4529   26.7190 C   0  0  0  0  0  0  0  0  0  0  0  0
    0.3974   -7.0711   27.5149 C   0  0  0  0  0  0  0  0  0  0  0  0
    2.5338   -7.6891   16.0102 C   0  0  0  0  0  0  0  0  0  0  0  0
    4.8690   -7.4380   26.4151 C   0  0  0  0  0  0  0  0  0  0  0  0
    2.3021   -5.6726   26.0378 C   0  0  0  0  0  0  0  0  0  0  0  0
    7.0880   -4.6163   27.0010 C   0  0  0  0  0  0  0  0  0  0  0  0
    8.3117   -4.3698   27.4436 C   0  0  0  0  0  0  0  0  0  0  0  0
    1.1339   -5.0515   26.3541 C   0  0  0  0  0  0  0  0  0  0  0  0
    4.8080   -8.0362   16.7101 C   0  0  0  0  0  0  0  0  0  0  0  0
   -1.2173   -3.9294   26.9717 O   0  0  0  0  0  0  0  0  0  0  0  0
   -1.0025   -5.0942   27.4586 C   0  0  0  0  0  0  0  0  0  0  0  0
    2.2474   -8.9123   16.6273 C   0  0  0  0  0  0  0  0  0  0  0  0
    4.4957   -9.2636   17.3041 C   0  0  0  0  0  0  0  0  0  0  0  0
   -1.8070   -5.6086   28.1920 O   0  0  0  0  0  0  0  0  0  0  0  0
   10.4296   -5.1799   28.3140 C   0  0  0  0  0  0  0  0  0  0  0  0
    6.6017   -5.9004   26.9187 C   0  0  0  0  0  0  0  0  0  0  0  0
    2.4761   -6.9940   26.4111 N   0  0  0  0  0  0  0  0  0  0  0  0
    9.1353   -5.4053   27.8239 C   0  0  0  0  0  0  0  0  0  0  0  0
    0.9922   -9.3232   16.5995 O   0  0  0  0  0  0  0  0  0  0  0  0
    1.5232   -7.6869   27.1182 C   0  0  0  0  0  0  0  0  0  0  0  0
    8.6878   -6.6715   27.7262 N   0  0  0  0  0  0  0  0  0  0  0  0
    6.9911   -8.2423   27.1808 C   0  0  0  0  0  0  0  0  0  0  0  0
    3.8436   -7.2758   16.0578 C   0  0  0  0  0  0  0  0  0  0  0  0
    3.1882   -9.7190   17.2566 C   0  0  0  0  0  0  0  0  0  0  0  0
    5.3488   -6.1737   26.5092 C   0  0  0  0  0  0  0  0  0  0  0  0
    7.4567   -6.9464   27.2858 C   0  0  0  0  0  0  0  0  0  0  0  0
    0.1921   -5.7592   27.1123 C   0  0  0  0  0  0  0  0  0  0  0  0
    3.5517   -7.7407   25.9711 C   0  0  0  0  0  0  0  0  0  0  0  0
  1  4  4  0
  1 22  4  0
  2 20  4  0
  2 27  4  0
  3 12  4  0
  3 23  4  0
  4 25  4  0
  4 28  1  0
  5  8  4  0
  5 17  4  0
  6  7  4  0
  6 16  4  0
  7 18  4  0
  8 27  4  0
  9 13  4  0
  9 23  4  0
 10 11  1  0
 11 14  2  0
 11 27  1  0
 12 19  1  0
 12 24  4  0
 13 24  4  0
 15 18  1  0
 16 25  4  0
 16 26  4  0
 17 20  4  0
 17 28  1  0
 18 21  4  0
 21 26  4  0
 22 26  4  0
M  END
$$$$

 Created by Python create_sdf_string function

 28 30  0  0  0  0  0  0  0  0999 V2000
    5.7174   -8.4529   26.7190 C   0  0  0  0  0  0  0  0  0  0  0  0
    0.3974   -7.0711   27.5149 C   0  0  0  0  0  0  0  0  0  0  0  0
    2.5338   -7.6891   16.0102 C   0  0  0  0  0  0  0  0  0  0  0  0
    4.8690   -7.4380   26.4151 C   0  0  0  0  0  0  0  0  0  0  0  0
    2.3021   -5.6726   26.0378 C   0  0  0  0  0  0  0  0  0  0  0  0
    7.0880   -4.6163   27.0010 C   0  0  0  0  0  0  0  0  0  0  0  0
    8.3117   -4.3698   27.4436 C   0  0  0  0  0  0  0  0  0  0  0  0
    1.1339   -5.0515   26.3541 C   0  0  0  0  0  0  0  0  0  0  0  0
    4.8080   -8.0362   16.7101 C   0  0  0  0  0  0  0  0  0  0  0  0
   -1.2173   -3.9294   26.9717 O   0  0  0  0  0  0  0  0  0  0  0  0
   -1.0025   -5.0942   27.4586 C   0  0  0  0  0  0  0  0  0  0  0  0
    2.2474   -8.9123   16.6273 C   0  0  0  0  0  0  0  0  0  0  0  0
    4.4957   -9.2636   17.3041 C   0  0  0  0  0  0  0  0  0  0  0  0
   -1.8070   -5.6086   28.1920 O   0  0  0  0  0  0  0  0  0  0  0  0
   10.4296   -5.1799   28.3140 C   0  0  0  0  0  0  0  0  0  0  0  0
    6.6017   -5.9004   26.9187 C   0  0  0  0  0  0  0  0  0  0  0  0
    2.4761   -6.9940   26.4111 N   0  0  0  0  0  0  0  0  0  0  0  0
    9.1353   -5.4053   27.8239 C   0  0  0  0  0  0  0  0  0  0  0  0
    0.9922   -9.3232   16.5995 O   0  0  0  0  0  0  0  0  0  0  0  0
    1.5232   -7.6869   27.1182 C   0  0  0  0  0  0  0  0  0  0  0  0
    8.6878   -6.6715   27.7262 N   0  0  0  0  0  0  0  0  0  0  0  0
    6.9911   -8.2423   27.1808 C   0  0  0  0  0  0  0  0  0  0  0  0
    3.8436   -7.2758   16.0578 C   0  0  0  0  0  0  0  0  0  0  0  0
    3.1882   -9.7190   17.2566 C   0  0  0  0  0  0  0  0  0  0  0  0
    5.3488   -6.1737   26.5092 C   0  0  0  0  0  0  0  0  0  0  0  0
    7.4567   -6.9464   27.2858 C   0  0  0  0  0  0  0  0  0  0  0  0
    0.1921   -5.7592   27.1123 C   0  0  0  0  0  0  0  0  0  0  0  0
    3.5517   -7.7407   25.9711 C   0  0  0  0  0  0  0  0  0  0  0  0
  1  4  4  0
  1 22  4  0
  2 20  4  0
  2 27  4  0
  3 12  4  0
  3 23  4  0
  4 25  4  0
  4 28  1  0
  5  8  4  0
  5 17  4  0
  6  7  4  0
  6 16  4  0
  7 18  4  0
  8 27  4  0
  9 13  4  0
  9 23  4  0
 10 11  1  0
 11 14  2  0
 11 27  1  0
 12 19  1  0
 12 24  4  0
 13 24  4  0
 15 18  1  0
 16 25  4  0
 16 26  4  0
 17 20  4  0
 17 28  1  0
 18 21  4  0
 21 26  4  0
 22 26  4  0
M  END
$$$$

 Created by Python create_sdf_string function

 28 30  0  0  0  0  0  0  0  0999 V2000
    5.7174   -8.4529   26.7190 C   0  0  0  0  0  0  0  0  0  0  0  0
    0.3974   -7.0711   27.5149 C   0  0  0  0  0  0  0  0  0  0  0  0
    2.5338   -7.6891   16.0102 C   0  0  0  0  0  0  0  0  0  0  0  0
    4.8690   -7.4380   26.4151 C   0  0  0  0  0  0  0  0  0  0  0  0
    2.3021   -5.6726   26.0378 C   0  0  0  0  0  0  0  0  0  0  0  0
    7.0880   -4.6163   27.0010 C   0  0  0  0  0  0  0  0  0  0  0  0
    8.3117   -4.3698   27.4436 C   0  0  0  0  0  0  0  0  0  0  0  0
    1.1339   -5.0515   26.3541 C   0  0  0  0  0  0  0  0  0  0  0  0
    4.8080   -8.0362   16.7101 C   0  0  0  0  0  0  0  0  0  0  0  0
   -1.2173   -3.9294   26.9717 O   0  0  0  0  0  0  0  0  0  0  0  0
   -1.0025   -5.0942   27.4586 C   0  0  0  0  0  0  0  0  0  0  0  0
    2.2474   -8.9123   16.6273 C   0  0  0  0  0  0  0  0  0  0  0  0
    4.4957   -9.2636   17.3041 C   0  0  0  0  0  0  0  0  0  0  0  0
   -1.8070   -5.6086   28.1920 O   0  0  0  0  0  0  0  0  0  0  0  0
   10.4296   -5.1799   28.3140 C   0  0  0  0  0  0  0  0  0  0  0  0
    6.6017   -5.9004   26.9187 C   0  0  0  0  0  0  0  0  0  0  0  0
    2.4761   -6.9940   26.4111 N   0  0  0  0  0  0  0  0  0  0  0  0
    9.1353   -5.4053   27.8239 C   0  0  0  0  0  0  0  0  0  0  0  0
    0.9922   -9.3232   16.5995 O   0  0  0  0  0  0  0  0  0  0  0  0
    1.5232   -7.6869   27.1182 C   0  0  0  0  0  0  0  0  0  0  0  0
    8.6878   -6.6715   27.7262 N   0  0  0  0  0  0  0  0  0  0  0  0
    6.9911   -8.2423   27.1808 C   0  0  0  0  0  0  0  0  0  0  0  0
    3.8436   -7.2758   16.0578 C   0  0  0  0  0  0  0  0  0  0  0  0
    3.1882   -9.7190   17.2566 C   0  0  0  0  0  0  0  0  0  0  0  0
    5.3488   -6.1737   26.5092 C   0  0  0  0  0  0  0  0  0  0  0  0
    7.4567   -6.9464   27.2858 C   0  0  0  0  0  0  0  0  0  0  0  0
    0.1921   -5.7592   27.1123 C   0  0  0  0  0  0  0  0  0  0  0  0
    3.5517   -7.7407   25.9711 C   0  0  0  0  0  0  0  0  0  0  0  0
  1  4  4  0
  1 22  4  0
  2 20  4  0
  2 27  4  0
  3 12  4  0
  3 23  4  0
  4 25  4  0
  4 28  1  0
  5  8  4  0
  5 17  4  0
  6  7  4  0
  6 16  4  0
  7 18  4  0
  8 27  4  0
  9 13  4  0
  9 23  4  0
 10 11  1  0
 11 14  2  0
 11 27  1  0
 12 19  1  0
 12 24  4  0
 13 24  4  0
 15 18  1  0
 16 25  4  0
 16 26  4  0
 17 20  4  0
 17 28  1  0
 18 21  4  0
 21 26  4  0
 22 26  4  0
M  END
$$$$

 Created by Python create_sdf_string function

 28 30  0  0  0  0  0  0  0  0999 V2000
    5.7174   -8.4529   26.7190 C   0  0  0  0  0  0  0  0  0  0  0  0
    0.3974   -7.0711   27.5149 C   0  0  0  0  0  0  0  0  0  0  0  0
    2.5338   -7.6891   16.0102 C   0  0  0  0  0  0  0  0  0  0  0  0
    4.8690   -7.4380   26.4151 C   0  0  0  0  0  0  0  0  0  0  0  0
    2.3021   -5.6726   26.0378 C   0  0  0  0  0  0  0  0  0  0  0  0
    7.0880   -4.6163   27.0010 C   0  0  0  0  0  0  0  0  0  0  0  0
    8.3117   -4.3698   27.4436 C   0  0  0  0  0  0  0  0  0  0  0  0
    1.1339   -5.0515   26.3541 C   0  0  0  0  0  0  0  0  0  0  0  0
    4.8080   -8.0362   16.7101 C   0  0  0  0  0  0  0  0  0  0  0  0
   -1.2173   -3.9294   26.9717 O   0  0  0  0  0  0  0  0  0  0  0  0
   -1.0025   -5.0942   27.4586 C   0  0  0  0  0  0  0  0  0  0  0  0
    2.2474   -8.9123   16.6273 C   0  0  0  0  0  0  0  0  0  0  0  0
    4.4957   -9.2636   17.3041 C   0  0  0  0  0  0  0  0  0  0  0  0
   -1.8070   -5.6086   28.1920 O   0  0  0  0  0  0  0  0  0  0  0  0
   10.4296   -5.1799   28.3140 C   0  0  0  0  0  0  0  0  0  0  0  0
    6.6017   -5.9004   26.9187 C   0  0  0  0  0  0  0  0  0  0  0  0
    2.4761   -6.9940   26.4111 N   0  0  0  0  0  0  0  0  0  0  0  0
    9.1353   -5.4053   27.8239 C   0  0  0  0  0  0  0  0  0  0  0  0
    0.9922   -9.3232   16.5995 O   0  0  0  0  0  0  0  0  0  0  0  0
    1.5232   -7.6869   27.1182 C   0  0  0  0  0  0  0  0  0  0  0  0
    8.6878   -6.6715   27.7262 N   0  0  0  0  0  0  0  0  0  0  0  0
    6.9911   -8.2423   27.1808 C   0  0  0  0  0  0  0  0  0  0  0  0
    3.8436   -7.2758   16.0578 C   0  0  0  0  0  0  0  0  0  0  0  0
    3.1882   -9.7190   17.2566 C   0  0  0  0  0  0  0  0  0  0  0  0
    5.3488   -6.1737   26.5092 C   0  0  0  0  0  0  0  0  0  0  0  0
    7.4567   -6.9464   27.2858 C   0  0  0  0  0  0  0  0  0  0  0  0
    0.1921   -5.7592   27.1123 C   0  0  0  0  0  0  0  0  0  0  0  0
    3.5517   -7.7407   25.9711 C   0  0  0  0  0  0  0  0  0  0  0  0
  1  4  4  0
  1 22  4  0
  2 20  4  0
  2 27  4  0
  3 12  4  0
  3 23  4  0
  4 25  4  0
  4 28  1  0
  5  8  4  0
  5 17  4  0
  6  7  4  0
  6 16  4  0
  7 18  4  0
  8 27  4  0
  9 13  4  0
  9 23  4  0
 10 11  1  0
 11 14  2  0
 11 27  1  0
 12 19  1  0
 12 24  4  0
 13 24  4  0
 15 18  1  0
 16 25  4  0
 16 26  4  0
 17 20  4  0
 17 28  1  0
 18 21  4  0
 21 26  4  0
 22 26  4  0
M  END
$$$$

 Created by Python create_sdf_string function

 28 30  0  0  0  0  0  0  0  0999 V2000
    5.7174   -8.4529   26.7190 C   0  0  0  0  0  0  0  0  0  0  0  0
    0.3974   -7.0711   27.5149 C   0  0  0  0  0  0  0  0  0  0  0  0
    2.5338   -7.6891   16.0102 C   0  0  0  0  0  0  0  0  0  0  0  0
    4.8690   -7.4380   26.4151 C   0  0  0  0  0  0  0  0  0  0  0  0
    2.3021   -5.6726   26.0378 C   0  0  0  0  0  0  0  0  0  0  0  0
    7.0880   -4.6163   27.0010 C   0  0  0  0  0  0  0  0  0  0  0  0
    8.3117   -4.3698   27.4436 C   0  0  0  0  0  0  0  0  0  0  0  0
    1.1339   -5.0515   26.3541 C   0  0  0  0  0  0  0  0  0  0  0  0
    4.8080   -8.0362   16.7101 C   0  0  0  0  0  0  0  0  0  0  0  0
   -1.2173   -3.9294   26.9717 O   0  0  0  0  0  0  0  0  0  0  0  0
   -1.0025   -5.0942   27.4586 C   0  0  0  0  0  0  0  0  0  0  0  0
    2.2474   -8.9123   16.6273 C   0  0  0  0  0  0  0  0  0  0  0  0
    4.4957   -9.2636   17.3041 C   0  0  0  0  0  0  0  0  0  0  0  0
   -1.8070   -5.6086   28.1920 O   0  0  0  0  0  0  0  0  0  0  0  0
   10.4296   -5.1799   28.3140 C   0  0  0  0  0  0  0  0  0  0  0  0
    6.6017   -5.9004   26.9187 C   0  0  0  0  0  0  0  0  0  0  0  0
    2.4761   -6.9940   26.4111 N   0  0  0  0  0  0  0  0  0  0  0  0
    9.1353   -5.4053   27.8239 C   0  0  0  0  0  0  0  0  0  0  0  0
    0.9922   -9.3232   16.5995 O   0  0  0  0  0  0  0  0  0  0  0  0
    1.5232   -7.6869   27.1182 C   0  0  0  0  0  0  0  0  0  0  0  0
    8.6878   -6.6715   27.7262 N   0  0  0  0  0  0  0  0  0  0  0  0
    6.9911   -8.2423   27.1808 C   0  0  0  0  0  0  0  0  0  0  0  0
    3.8436   -7.2758   16.0578 C   0  0  0  0  0  0  0  0  0  0  0  0
    3.1882   -9.7190   17.2566 C   0  0  0  0  0  0  0  0  0  0  0  0
    5.3488   -6.1737   26.5092 C   0  0  0  0  0  0  0  0  0  0  0  0
    7.4567   -6.9464   27.2858 C   0  0  0  0  0  0  0  0  0  0  0  0
    0.1921   -5.7592   27.1123 C   0  0  0  0  0  0  0  0  0  0  0  0
    3.5517   -7.7407   25.9711 C   0  0  0  0  0  0  0  0  0  0  0  0
  1  4  4  0
  1 22  4  0
  2 20  4  0
  2 27  4  0
  3 12  4  0
  3 23  4  0
  4 25  4  0
  4 28  1  0
  5  8  4  0
  5 17  4  0
  6  7  4  0
  6 16  4  0
  7 18  4  0
  8 27  4  0
  9 13  4  0
  9 23  4  0
 10 11  1  0
 11 14  2  0
 11 27  1  0
 12 19  1  0
 12 24  4  0
 13 24  4  0
 15 18  1  0
 16 25  4  0
 16 26  4  0
 17 20  4  0
 17 28  1  0
 18 21  4  0
 21 26  4  0
 22 26  4  0
M  END
$$$$

 Created by Python create_sdf_string function

 28 30  0  0  0  0  0  0  0  0999 V2000
    5.7174   -8.4529   26.7190 C   0  0  0  0  0  0  0  0  0  0  0  0
    0.3974   -7.0711   27.5149 C   0  0  0  0  0  0  0  0  0  0  0  0
    2.5338   -7.6891   16.0102 C   0  0  0  0  0  0  0  0  0  0  0  0
    4.8690   -7.4380   26.4151 C   0  0  0  0  0  0  0  0  0  0  0  0
    2.3021   -5.6726   26.0378 C   0  0  0  0  0  0  0  0  0  0  0  0
    7.0880   -4.6163   27.0010 C   0  0  0  0  0  0  0  0  0  0  0  0
    8.3117   -4.3698   27.4436 C   0  0  0  0  0  0  0  0  0  0  0  0
    1.1339   -5.0515   26.3541 C   0  0  0  0  0  0  0  0  0  0  0  0
    4.8080   -8.0362   16.7101 C   0  0  0  0  0  0  0  0  0  0  0  0
   -1.2173   -3.9294   26.9717 O   0  0  0  0  0  0  0  0  0  0  0  0
   -1.0025   -5.0942   27.4586 C   0  0  0  0  0  0  0  0  0  0  0  0
    2.2474   -8.9123   16.6273 C   0  0  0  0  0  0  0  0  0  0  0  0
    4.4957   -9.2636   17.3041 C   0  0  0  0  0  0  0  0  0  0  0  0
   -1.8070   -5.6086   28.1920 O   0  0  0  0  0  0  0  0  0  0  0  0
   10.4296   -5.1799   28.3140 C   0  0  0  0  0  0  0  0  0  0  0  0
    6.6017   -5.9004   26.9187 C   0  0  0  0  0  0  0  0  0  0  0  0
    2.4761   -6.9940   26.4111 N   0  0  0  0  0  0  0  0  0  0  0  0
    9.1353   -5.4053   27.8239 C   0  0  0  0  0  0  0  0  0  0  0  0
    0.9922   -9.3232   16.5995 O   0  0  0  0  0  0  0  0  0  0  0  0
    1.5232   -7.6869   27.1182 C   0  0  0  0  0  0  0  0  0  0  0  0
    8.6878   -6.6715   27.7262 N   0  0  0  0  0  0  0  0  0  0  0  0
    6.9911   -8.2423   27.1808 C   0  0  0  0  0  0  0  0  0  0  0  0
    3.8436   -7.2758   16.0578 C   0  0  0  0  0  0  0  0  0  0  0  0
    3.1882   -9.7190   17.2566 C   0  0  0  0  0  0  0  0  0  0  0  0
    5.3488   -6.1737   26.5092 C   0  0  0  0  0  0  0  0  0  0  0  0
    7.4567   -6.9464   27.2858 C   0  0  0  0  0  0  0  0  0  0  0  0
    0.1921   -5.7592   27.1123 C   0  0  0  0  0  0  0  0  0  0  0  0
    3.5517   -7.7407   25.9711 C   0  0  0  0  0  0  0  0  0  0  0  0
  1  4  4  0
  1 22  4  0
  2 20  4  0
  2 27  4  0
  3 12  4  0
  3 23  4  0
  4 25  4  0
  4 28  1  0
  5  8  4  0
  5 17  4  0
  6  7  4  0
  6 16  4  0
  7 18  4  0
  8 27  4  0
  9 13  4  0
  9 23  4  0
 10 11  1  0
 11 14  2  0
 11 27  1  0
 12 19  1  0
 12 24  4  0
 13 24  4  0
 15 18  1  0
 16 25  4  0
 16 26  4  0
 17 20  4  0
 17 28  1  0
 18 21  4  0
 21 26  4  0
 22 26  4  0
M  END
$$$$

 Created by Python create_sdf_string function

 28 30  0  0  0  0  0  0  0  0999 V2000
    5.7174   -8.4529   26.7190 C   0  0  0  0  0  0  0  0  0  0  0  0
    0.3974   -7.0711   27.5149 C   0  0  0  0  0  0  0  0  0  0  0  0
    2.5338   -7.6891   16.0102 C   0  0  0  0  0  0  0  0  0  0  0  0
    4.8690   -7.4380   26.4151 C   0  0  0  0  0  0  0  0  0  0  0  0
    2.3021   -5.6726   26.0378 C   0  0  0  0  0  0  0  0  0  0  0  0
    7.0880   -4.6163   27.0010 C   0  0  0  0  0  0  0  0  0  0  0  0
    8.3117   -4.3698   27.4436 C   0  0  0  0  0  0  0  0  0  0  0  0
    1.1339   -5.0515   26.3541 C   0  0  0  0  0  0  0  0  0  0  0  0
    4.8080   -8.0362   16.7101 C   0  0  0  0  0  0  0  0  0  0  0  0
   -1.2173   -3.9294   26.9717 O   0  0  0  0  0  0  0  0  0  0  0  0
   -1.0025   -5.0942   27.4586 C   0  0  0  0  0  0  0  0  0  0  0  0
    2.2474   -8.9123   16.6273 C   0  0  0  0  0  0  0  0  0  0  0  0
    4.4957   -9.2636   17.3041 C   0  0  0  0  0  0  0  0  0  0  0  0
   -1.8070   -5.6086   28.1920 O   0  0  0  0  0  0  0  0  0  0  0  0
   10.4296   -5.1799   28.3140 C   0  0  0  0  0  0  0  0  0  0  0  0
    6.6017   -5.9004   26.9187 C   0  0  0  0  0  0  0  0  0  0  0  0
    2.4761   -6.9940   26.4111 N   0  0  0  0  0  0  0  0  0  0  0  0
    9.1353   -5.4053   27.8239 C   0  0  0  0  0  0  0  0  0  0  0  0
    0.9922   -9.3232   16.5995 O   0  0  0  0  0  0  0  0  0  0  0  0
    1.5232   -7.6869   27.1182 C   0  0  0  0  0  0  0  0  0  0  0  0
    8.6878   -6.6715   27.7262 N   0  0  0  0  0  0  0  0  0  0  0  0
    6.9911   -8.2423   27.1808 C   0  0  0  0  0  0  0  0  0  0  0  0
    3.8436   -7.2758   16.0578 C   0  0  0  0  0  0  0  0  0  0  0  0
    3.1882   -9.7190   17.2566 C   0  0  0  0  0  0  0  0  0  0  0  0
    5.3488   -6.1737   26.5092 C   0  0  0  0  0  0  0  0  0  0  0  0
    7.4567   -6.9464   27.2858 C   0  0  0  0  0  0  0  0  0  0  0  0
    0.1921   -5.7592   27.1123 C   0  0  0  0  0  0  0  0  0  0  0  0
    3.5517   -7.7407   25.9711 C   0  0  0  0  0  0  0  0  0  0  0  0
  1  4  4  0
  1 22  4  0
  2 20  4  0
  2 27  4  0
  3 12  4  0
  3 23  4  0
  4 25  4  0
  4 28  1  0
  5  8  4  0
  5 17  4  0
  6  7  4  0
  6 16  4  0
  7 18  4  0
  8 27  4  0
  9 13  4  0
  9 23  4  0
 10 11  1  0
 11 14  2  0
 11 27  1  0
 12 19  1  0
 12 24  4  0
 13 24  4  0
 15 18  1  0
 16 25  4  0
 16 26  4  0
 17 20  4  0
 17 28  1  0
 18 21  4  0
 21 26  4  0
 22 26  4  0
M  END
$$$$

 Created by Python create_sdf_string function

 28 30  0  0  0  0  0  0  0  0999 V2000
    5.7174   -8.4529   26.7190 C   0  0  0  0  0  0  0  0  0  0  0  0
    0.3974   -7.0711   27.5149 C   0  0  0  0  0  0  0  0  0  0  0  0
    2.5338   -7.6891   16.0102 C   0  0  0  0  0  0  0  0  0  0  0  0
    4.8690   -7.4380   26.4151 C   0  0  0  0  0  0  0  0  0  0  0  0
    2.3021   -5.6726   26.0378 C   0  0  0  0  0  0  0  0  0  0  0  0
    7.0880   -4.6163   27.0010 C   0  0  0  0  0  0  0  0  0  0  0  0
    8.3117   -4.3698   27.4436 C   0  0  0  0  0  0  0  0  0  0  0  0
    1.1339   -5.0515   26.3541 C   0  0  0  0  0  0  0  0  0  0  0  0
    4.8080   -8.0362   16.7101 C   0  0  0  0  0  0  0  0  0  0  0  0
   -1.2173   -3.9294   26.9717 O   0  0  0  0  0  0  0  0  0  0  0  0
   -1.0025   -5.0942   27.4586 C   0  0  0  0  0  0  0  0  0  0  0  0
    2.2474   -8.9123   16.6273 C   0  0  0  0  0  0  0  0  0  0  0  0
    4.4957   -9.2636   17.3041 C   0  0  0  0  0  0  0  0  0  0  0  0
   -1.8070   -5.6086   28.1920 O   0  0  0  0  0  0  0  0  0  0  0  0
   10.4296   -5.1799   28.3140 C   0  0  0  0  0  0  0  0  0  0  0  0
    6.6017   -5.9004   26.9187 C   0  0  0  0  0  0  0  0  0  0  0  0
    2.4761   -6.9940   26.4111 N   0  0  0  0  0  0  0  0  0  0  0  0
    9.1353   -5.4053   27.8239 C   0  0  0  0  0  0  0  0  0  0  0  0
    0.9922   -9.3232   16.5995 O   0  0  0  0  0  0  0  0  0  0  0  0
    1.5232   -7.6869   27.1182 C   0  0  0  0  0  0  0  0  0  0  0  0
    8.6878   -6.6715   27.7262 N   0  0  0  0  0  0  0  0  0  0  0  0
    6.9911   -8.2423   27.1808 C   0  0  0  0  0  0  0  0  0  0  0  0
    3.8436   -7.2758   16.0578 C   0  0  0  0  0  0  0  0  0  0  0  0
    3.1882   -9.7190   17.2566 C   0  0  0  0  0  0  0  0  0  0  0  0
    5.3488   -6.1737   26.5092 C   0  0  0  0  0  0  0  0  0  0  0  0
    7.4567   -6.9464   27.2858 C   0  0  0  0  0  0  0  0  0  0  0  0
    0.1921   -5.7592   27.1123 C   0  0  0  0  0  0  0  0  0  0  0  0
    3.5517   -7.7407   25.9711 C   0  0  0  0  0  0  0  0  0  0  0  0
  1  4  4  0
  1 22  4  0
  2 20  4  0
  2 27  4  0
  3 12  4  0
  3 23  4  0
  4 25  4  0
  4 28  1  0
  5  8  4  0
  5 17  4  0
  6  7  4  0
  6 16  4  0
  7 18  4  0
  8 27  4  0
  9 13  4  0
  9 23  4  0
 10 11  1  0
 11 14  2  0
 11 27  1  0
 12 19  1  0
 12 24  4  0
 13 24  4  0
 15 18  1  0
 16 25  4  0
 16 26  4  0
 17 20  4  0
 17 28  1  0
 18 21  4  0
 21 26  4  0
 22 26  4  0
M  END
$$$$

 Created by Python create_sdf_string function

 28 30  0  0  0  0  0  0  0  0999 V2000
    5.7174   -8.4529   26.7190 C   0  0  0  0  0  0  0  0  0  0  0  0
    0.3974   -7.0711   27.5149 C   0  0  0  0  0  0  0  0  0  0  0  0
    2.5338   -7.6891   16.0102 C   0  0  0  0  0  0  0  0  0  0  0  0
    4.8690   -7.4380   26.4151 C   0  0  0  0  0  0  0  0  0  0  0  0
    2.3021   -5.6726   26.0378 C   0  0  0  0  0  0  0  0  0  0  0  0
    7.0880   -4.6163   27.0010 C   0  0  0  0  0  0  0  0  0  0  0  0
    8.3117   -4.3698   27.4436 C   0  0  0  0  0  0  0  0  0  0  0  0
    1.1339   -5.0515   26.3541 C   0  0  0  0  0  0  0  0  0  0  0  0
    4.8080   -8.0362   16.7101 C   0  0  0  0  0  0  0  0  0  0  0  0
   -1.2173   -3.9294   26.9717 O   0  0  0  0  0  0  0  0  0  0  0  0
   -1.0025   -5.0942   27.4586 C   0  0  0  0  0  0  0  0  0  0  0  0
    2.2474   -8.9123   16.6273 C   0  0  0  0  0  0  0  0  0  0  0  0
    4.4957   -9.2636   17.3041 C   0  0  0  0  0  0  0  0  0  0  0  0
   -1.8070   -5.6086   28.1920 O   0  0  0  0  0  0  0  0  0  0  0  0
   10.4296   -5.1799   28.3140 C   0  0  0  0  0  0  0  0  0  0  0  0
    6.6017   -5.9004   26.9187 C   0  0  0  0  0  0  0  0  0  0  0  0
    2.4761   -6.9940   26.4111 N   0  0  0  0  0  0  0  0  0  0  0  0
    9.1353   -5.4053   27.8239 C   0  0  0  0  0  0  0  0  0  0  0  0
    0.9922   -9.3232   16.5995 O   0  0  0  0  0  0  0  0  0  0  0  0
    1.5232   -7.6869   27.1182 C   0  0  0  0  0  0  0  0  0  0  0  0
    8.6878   -6.6715   27.7262 N   0  0  0  0  0  0  0  0  0  0  0  0
    6.9911   -8.2423   27.1808 C   0  0  0  0  0  0  0  0  0  0  0  0
    3.8436   -7.2758   16.0578 C   0  0  0  0  0  0  0  0  0  0  0  0
    3.1882   -9.7190   17.2566 C   0  0  0  0  0  0  0  0  0  0  0  0
    5.3488   -6.1737   26.5092 C   0  0  0  0  0  0  0  0  0  0  0  0
    7.4567   -6.9464   27.2858 C   0  0  0  0  0  0  0  0  0  0  0  0
    0.1921   -5.7592   27.1123 C   0  0  0  0  0  0  0  0  0  0  0  0
    3.5517   -7.7407   25.9711 C   0  0  0  0  0  0  0  0  0  0  0  0
  1  4  4  0
  1 22  4  0
  2 20  4  0
  2 27  4  0
  3 12  4  0
  3 23  4  0
  4 25  4  0
  4 28  1  0
  5  8  4  0
  5 17  4  0
  6  7  4  0
  6 16  4  0
  7 18  4  0
  8 27  4  0
  9 13  4  0
  9 23  4  0
 10 11  1  0
 11 14  2  0
 11 27  1  0
 12 19  1  0
 12 24  4  0
 13 24  4  0
 15 18  1  0
 16 25  4  0
 16 26  4  0
 17 20  4  0
 17 28  1  0
 18 21  4  0
 21 26  4  0
 22 26  4  0
M  END
$$$$

 Created by Python create_sdf_string function

 28 30  0  0  0  0  0  0  0  0999 V2000
    5.7174   -8.4529   26.7190 C   0  0  0  0  0  0  0  0  0  0  0  0
    0.3974   -7.0711   27.5149 C   0  0  0  0  0  0  0  0  0  0  0  0
    2.5338   -7.6891   16.0102 C   0  0  0  0  0  0  0  0  0  0  0  0
    4.8690   -7.4380   26.4151 C   0  0  0  0  0  0  0  0  0  0  0  0
    2.3021   -5.6726   26.0378 C   0  0  0  0  0  0  0  0  0  0  0  0
    7.0880   -4.6163   27.0010 C   0  0  0  0  0  0  0  0  0  0  0  0
    8.3117   -4.3698   27.4436 C   0  0  0  0  0  0  0  0  0  0  0  0
    1.1339   -5.0515   26.3541 C   0  0  0  0  0  0  0  0  0  0  0  0
    4.8080   -8.0362   16.7101 C   0  0  0  0  0  0  0  0  0  0  0  0
   -1.2173   -3.9294   26.9717 O   0  0  0  0  0  0  0  0  0  0  0  0
   -1.0025   -5.0942   27.4586 C   0  0  0  0  0  0  0  0  0  0  0  0
    2.2474   -8.9123   16.6273 C   0  0  0  0  0  0  0  0  0  0  0  0
    4.4957   -9.2636   17.3041 C   0  0  0  0  0  0  0  0  0  0  0  0
   -1.8070   -5.6086   28.1920 O   0  0  0  0  0  0  0  0  0  0  0  0
   10.4296   -5.1799   28.3140 C   0  0  0  0  0  0  0  0  0  0  0  0
    6.6017   -5.9004   26.9187 C   0  0  0  0  0  0  0  0  0  0  0  0
    2.4761   -6.9940   26.4111 N   0  0  0  0  0  0  0  0  0  0  0  0
    9.1353   -5.4053   27.8239 C   0  0  0  0  0  0  0  0  0  0  0  0
    0.9922   -9.3232   16.5995 O   0  0  0  0  0  0  0  0  0  0  0  0
    1.5232   -7.6869   27.1182 C   0  0  0  0  0  0  0  0  0  0  0  0
    8.6878   -6.6715   27.7262 N   0  0  0  0  0  0  0  0  0  0  0  0
    6.9911   -8.2423   27.1808 C   0  0  0  0  0  0  0  0  0  0  0  0
    3.8436   -7.2758   16.0578 C   0  0  0  0  0  0  0  0  0  0  0  0
    3.1882   -9.7190   17.2566 C   0  0  0  0  0  0  0  0  0  0  0  0
    5.3488   -6.1737   26.5092 C   0  0  0  0  0  0  0  0  0  0  0  0
    7.4567   -6.9464   27.2858 C   0  0  0  0  0  0  0  0  0  0  0  0
    0.1921   -5.7592   27.1123 C   0  0  0  0  0  0  0  0  0  0  0  0
    3.5517   -7.7407   25.9711 C   0  0  0  0  0  0  0  0  0  0  0  0
  1  4  4  0
  1 22  4  0
  2 20  4  0
  2 27  4  0
  3 12  4  0
  3 23  4  0
  4 25  4  0
  4 28  1  0
  5  8  4  0
  5 17  4  0
  6  7  4  0
  6 16  4  0
  7 18  4  0
  8 27  4  0
  9 13  4  0
  9 23  4  0
 10 11  1  0
 11 14  2  0
 11 27  1  0
 12 19  1  0
 12 24  4  0
 13 24  4  0
 15 18  1  0
 16 25  4  0
 16 26  4  0
 17 20  4  0
 17 28  1  0
 18 21  4  0
 21 26  4  0
 22 26  4  0
M  END
$$$$

 Created by Python create_sdf_string function

 28 30  0  0  0  0  0  0  0  0999 V2000
    5.7174   -8.4529   26.7190 C   0  0  0  0  0  0  0  0  0  0  0  0
    0.3974   -7.0711   27.5149 C   0  0  0  0  0  0  0  0  0  0  0  0
    2.5338   -7.6891   16.0102 C   0  0  0  0  0  0  0  0  0  0  0  0
    4.8690   -7.4380   26.4151 C   0  0  0  0  0  0  0  0  0  0  0  0
    2.3021   -5.6726   26.0378 C   0  0  0  0  0  0  0  0  0  0  0  0
    7.0880   -4.6163   27.0010 C   0  0  0  0  0  0  0  0  0  0  0  0
    8.3117   -4.3698   27.4436 C   0  0  0  0  0  0  0  0  0  0  0  0
    1.1339   -5.0515   26.3541 C   0  0  0  0  0  0  0  0  0  0  0  0
    4.8080   -8.0362   16.7101 C   0  0  0  0  0  0  0  0  0  0  0  0
   -1.2173   -3.9294   26.9717 O   0  0  0  0  0  0  0  0  0  0  0  0
   -1.0025   -5.0942   27.4586 C   0  0  0  0  0  0  0  0  0  0  0  0
    2.2474   -8.9123   16.6273 C   0  0  0  0  0  0  0  0  0  0  0  0
    4.4957   -9.2636   17.3041 C   0  0  0  0  0  0  0  0  0  0  0  0
   -1.8070   -5.6086   28.1920 O   0  0  0  0  0  0  0  0  0  0  0  0
   10.4296   -5.1799   28.3140 C   0  0  0  0  0  0  0  0  0  0  0  0
    6.6017   -5.9004   26.9187 C   0  0  0  0  0  0  0  0  0  0  0  0
    2.4761   -6.9940   26.4111 N   0  0  0  0  0  0  0  0  0  0  0  0
    9.1353   -5.4053   27.8239 C   0  0  0  0  0  0  0  0  0  0  0  0
    0.9922   -9.3232   16.5995 O   0  0  0  0  0  0  0  0  0  0  0  0
    1.5232   -7.6869   27.1182 C   0  0  0  0  0  0  0  0  0  0  0  0
    8.6878   -6.6715   27.7262 N   0  0  0  0  0  0  0  0  0  0  0  0
    6.9911   -8.2423   27.1808 C   0  0  0  0  0  0  0  0  0  0  0  0
    3.8436   -7.2758   16.0578 C   0  0  0  0  0  0  0  0  0  0  0  0
    3.1882   -9.7190   17.2566 C   0  0  0  0  0  0  0  0  0  0  0  0
    5.3488   -6.1737   26.5092 C   0  0  0  0  0  0  0  0  0  0  0  0
    7.4567   -6.9464   27.2858 C   0  0  0  0  0  0  0  0  0  0  0  0
    0.1921   -5.7592   27.1123 C   0  0  0  0  0  0  0  0  0  0  0  0
    3.5517   -7.7407   25.9711 C   0  0  0  0  0  0  0  0  0  0  0  0
  1  4  4  0
  1 22  4  0
  2 20  4  0
  2 27  4  0
  3 12  4  0
  3 23  4  0
  4 25  4  0
  4 28  1  0
  5  8  4  0
  5 17  4  0
  6  7  4  0
  6 16  4  0
  7 18  4  0
  8 27  4  0
  9 13  4  0
  9 23  4  0
 10 11  1  0
 11 14  2  0
 11 27  1  0
 12 19  1  0
 12 24  4  0
 13 24  4  0
 15 18  1  0
 16 25  4  0
 16 26  4  0
 17 20  4  0
 17 28  1  0
 18 21  4  0
 21 26  4  0
 22 26  4  0
M  END
$$$$

 Created by Python create_sdf_string function

 28 30  0  0  0  0  0  0  0  0999 V2000
    5.7174   -8.4529   26.7190 C   0  0  0  0  0  0  0  0  0  0  0  0
    0.3974   -7.0711   27.5149 C   0  0  0  0  0  0  0  0  0  0  0  0
    2.5338   -7.6891   16.0102 C   0  0  0  0  0  0  0  0  0  0  0  0
    4.8690   -7.4380   26.4151 C   0  0  0  0  0  0  0  0  0  0  0  0
    2.3021   -5.6726   26.0378 C   0  0  0  0  0  0  0  0  0  0  0  0
    7.0880   -4.6163   27.0010 C   0  0  0  0  0  0  0  0  0  0  0  0
    8.3117   -4.3698   27.4436 C   0  0  0  0  0  0  0  0  0  0  0  0
    1.1339   -5.0515   26.3541 C   0  0  0  0  0  0  0  0  0  0  0  0
    4.8080   -8.0362   16.7101 C   0  0  0  0  0  0  0  0  0  0  0  0
   -1.2173   -3.9294   26.9717 O   0  0  0  0  0  0  0  0  0  0  0  0
   -1.0025   -5.0942   27.4586 C   0  0  0  0  0  0  0  0  0  0  0  0
    2.2474   -8.9123   16.6273 C   0  0  0  0  0  0  0  0  0  0  0  0
    4.4957   -9.2636   17.3041 C   0  0  0  0  0  0  0  0  0  0  0  0
   -1.8070   -5.6086   28.1920 O   0  0  0  0  0  0  0  0  0  0  0  0
   10.4296   -5.1799   28.3140 C   0  0  0  0  0  0  0  0  0  0  0  0
    6.6017   -5.9004   26.9187 C   0  0  0  0  0  0  0  0  0  0  0  0
    2.4761   -6.9940   26.4111 N   0  0  0  0  0  0  0  0  0  0  0  0
    9.1353   -5.4053   27.8239 C   0  0  0  0  0  0  0  0  0  0  0  0
    0.9922   -9.3232   16.5995 O   0  0  0  0  0  0  0  0  0  0  0  0
    1.5232   -7.6869   27.1182 C   0  0  0  0  0  0  0  0  0  0  0  0
    8.6878   -6.6715   27.7262 N   0  0  0  0  0  0  0  0  0  0  0  0
    6.9911   -8.2423   27.1808 C   0  0  0  0  0  0  0  0  0  0  0  0
    3.8436   -7.2758   16.0578 C   0  0  0  0  0  0  0  0  0  0  0  0
    3.1882   -9.7190   17.2566 C   0  0  0  0  0  0  0  0  0  0  0  0
    5.3488   -6.1737   26.5092 C   0  0  0  0  0  0  0  0  0  0  0  0
    7.4567   -6.9464   27.2858 C   0  0  0  0  0  0  0  0  0  0  0  0
    0.1921   -5.7592   27.1123 C   0  0  0  0  0  0  0  0  0  0  0  0
    3.5517   -7.7407   25.9711 C   0  0  0  0  0  0  0  0  0  0  0  0
  1  4  4  0
  1 22  4  0
  2 20  4  0
  2 27  4  0
  3 12  4  0
  3 23  4  0
  4 25  4  0
  4 28  1  0
  5  8  4  0
  5 17  4  0
  6  7  4  0
  6 16  4  0
  7 18  4  0
  8 27  4  0
  9 13  4  0
  9 23  4  0
 10 11  1  0
 11 14  2  0
 11 27  1  0
 12 19  1  0
 12 24  4  0
 13 24  4  0
 15 18  1  0
 16 25  4  0
 16 26  4  0
 17 20  4  0
 17 28  1  0
 18 21  4  0
 21 26  4  0
 22 26  4  0
M  END
$$$$

 Created by Python create_sdf_string function

 28 30  0  0  0  0  0  0  0  0999 V2000
    5.7174   -8.4529   26.7190 C   0  0  0  0  0  0  0  0  0  0  0  0
    0.3974   -7.0711   27.5149 C   0  0  0  0  0  0  0  0  0  0  0  0
    2.5338   -7.6891   16.0102 C   0  0  0  0  0  0  0  0  0  0  0  0
    4.8690   -7.4380   26.4151 C   0  0  0  0  0  0  0  0  0  0  0  0
    2.3021   -5.6726   26.0378 C   0  0  0  0  0  0  0  0  0  0  0  0
    7.0880   -4.6163   27.0010 C   0  0  0  0  0  0  0  0  0  0  0  0
    8.3117   -4.3698   27.4436 C   0  0  0  0  0  0  0  0  0  0  0  0
    1.1339   -5.0515   26.3541 C   0  0  0  0  0  0  0  0  0  0  0  0
    4.8080   -8.0362   16.7101 C   0  0  0  0  0  0  0  0  0  0  0  0
   -1.2173   -3.9294   26.9717 O   0  0  0  0  0  0  0  0  0  0  0  0
   -1.0025   -5.0942   27.4586 C   0  0  0  0  0  0  0  0  0  0  0  0
    2.2474   -8.9123   16.6273 C   0  0  0  0  0  0  0  0  0  0  0  0
    4.4957   -9.2636   17.3041 C   0  0  0  0  0  0  0  0  0  0  0  0
   -1.8070   -5.6086   28.1920 O   0  0  0  0  0  0  0  0  0  0  0  0
   10.4296   -5.1799   28.3140 C   0  0  0  0  0  0  0  0  0  0  0  0
    6.6017   -5.9004   26.9187 C   0  0  0  0  0  0  0  0  0  0  0  0
    2.4761   -6.9940   26.4111 N   0  0  0  0  0  0  0  0  0  0  0  0
    9.1353   -5.4053   27.8239 C   0  0  0  0  0  0  0  0  0  0  0  0
    0.9922   -9.3232   16.5995 O   0  0  0  0  0  0  0  0  0  0  0  0
    1.5232   -7.6869   27.1182 C   0  0  0  0  0  0  0  0  0  0  0  0
    8.6878   -6.6715   27.7262 N   0  0  0  0  0  0  0  0  0  0  0  0
    6.9911   -8.2423   27.1808 C   0  0  0  0  0  0  0  0  0  0  0  0
    3.8436   -7.2758   16.0578 C   0  0  0  0  0  0  0  0  0  0  0  0
    3.1882   -9.7190   17.2566 C   0  0  0  0  0  0  0  0  0  0  0  0
    5.3488   -6.1737   26.5092 C   0  0  0  0  0  0  0  0  0  0  0  0
    7.4567   -6.9464   27.2858 C   0  0  0  0  0  0  0  0  0  0  0  0
    0.1921   -5.7592   27.1123 C   0  0  0  0  0  0  0  0  0  0  0  0
    3.5517   -7.7407   25.9711 C   0  0  0  0  0  0  0  0  0  0  0  0
  1  4  4  0
  1 22  4  0
  2 20  4  0
  2 27  4  0
  3 12  4  0
  3 23  4  0
  4 25  4  0
  4 28  1  0
  5  8  4  0
  5 17  4  0
  6  7  4  0
  6 16  4  0
  7 18  4  0
  8 27  4  0
  9 13  4  0
  9 23  4  0
 10 11  1  0
 11 14  2  0
 11 27  1  0
 12 19  1  0
 12 24  4  0
 13 24  4  0
 15 18  1  0
 16 25  4  0
 16 26  4  0
 17 20  4  0
 17 28  1  0
 18 21  4  0
 21 26  4  0
 22 26  4  0
M  END
$$$$

 Created by Python create_sdf_string function

 28 30  0  0  0  0  0  0  0  0999 V2000
    5.7174   -8.4529   26.7190 C   0  0  0  0  0  0  0  0  0  0  0  0
    0.3974   -7.0711   27.5149 C   0  0  0  0  0  0  0  0  0  0  0  0
    2.5338   -7.6891   16.0102 C   0  0  0  0  0  0  0  0  0  0  0  0
    4.8690   -7.4380   26.4151 C   0  0  0  0  0  0  0  0  0  0  0  0
    2.3021   -5.6726   26.0378 C   0  0  0  0  0  0  0  0  0  0  0  0
    7.0880   -4.6163   27.0010 C   0  0  0  0  0  0  0  0  0  0  0  0
    8.3117   -4.3698   27.4436 C   0  0  0  0  0  0  0  0  0  0  0  0
    1.1339   -5.0515   26.3541 C   0  0  0  0  0  0  0  0  0  0  0  0
    4.8080   -8.0362   16.7101 C   0  0  0  0  0  0  0  0  0  0  0  0
   -1.2173   -3.9294   26.9717 O   0  0  0  0  0  0  0  0  0  0  0  0
   -1.0025   -5.0942   27.4586 C   0  0  0  0  0  0  0  0  0  0  0  0
    2.2474   -8.9123   16.6273 C   0  0  0  0  0  0  0  0  0  0  0  0
    4.4957   -9.2636   17.3041 C   0  0  0  0  0  0  0  0  0  0  0  0
   -1.8070   -5.6086   28.1920 O   0  0  0  0  0  0  0  0  0  0  0  0
   10.4296   -5.1799   28.3140 C   0  0  0  0  0  0  0  0  0  0  0  0
    6.6017   -5.9004   26.9187 C   0  0  0  0  0  0  0  0  0  0  0  0
    2.4761   -6.9940   26.4111 N   0  0  0  0  0  0  0  0  0  0  0  0
    9.1353   -5.4053   27.8239 C   0  0  0  0  0  0  0  0  0  0  0  0
    0.9922   -9.3232   16.5995 O   0  0  0  0  0  0  0  0  0  0  0  0
    1.5232   -7.6869   27.1182 C   0  0  0  0  0  0  0  0  0  0  0  0
    8.6878   -6.6715   27.7262 N   0  0  0  0  0  0  0  0  0  0  0  0
    6.9911   -8.2423   27.1808 C   0  0  0  0  0  0  0  0  0  0  0  0
    3.8436   -7.2758   16.0578 C   0  0  0  0  0  0  0  0  0  0  0  0
    3.1882   -9.7190   17.2566 C   0  0  0  0  0  0  0  0  0  0  0  0
    5.3488   -6.1737   26.5092 C   0  0  0  0  0  0  0  0  0  0  0  0
    7.4567   -6.9464   27.2858 C   0  0  0  0  0  0  0  0  0  0  0  0
    0.1921   -5.7592   27.1123 C   0  0  0  0  0  0  0  0  0  0  0  0
    3.5517   -7.7407   25.9711 C   0  0  0  0  0  0  0  0  0  0  0  0
  1  4  4  0
  1 22  4  0
  2 20  4  0
  2 27  4  0
  3 12  4  0
  3 23  4  0
  4 25  4  0
  4 28  1  0
  5  8  4  0
  5 17  4  0
  6  7  4  0
  6 16  4  0
  7 18  4  0
  8 27  4  0
  9 13  4  0
  9 23  4  0
 10 11  1  0
 11 14  2  0
 11 27  1  0
 12 19  1  0
 12 24  4  0
 13 24  4  0
 15 18  1  0
 16 25  4  0
 16 26  4  0
 17 20  4  0
 17 28  1  0
 18 21  4  0
 21 26  4  0
 22 26  4  0
M  END
$$$$

 Created by Python create_sdf_string function

 28 30  0  0  0  0  0  0  0  0999 V2000
    5.7174   -8.4529   26.7190 C   0  0  0  0  0  0  0  0  0  0  0  0
    0.3974   -7.0711   27.5149 C   0  0  0  0  0  0  0  0  0  0  0  0
    2.5338   -7.6891   16.0102 C   0  0  0  0  0  0  0  0  0  0  0  0
    4.8690   -7.4380   26.4151 C   0  0  0  0  0  0  0  0  0  0  0  0
    2.3021   -5.6726   26.0378 C   0  0  0  0  0  0  0  0  0  0  0  0
    7.0880   -4.6163   27.0010 C   0  0  0  0  0  0  0  0  0  0  0  0
    8.3117   -4.3698   27.4436 C   0  0  0  0  0  0  0  0  0  0  0  0
    1.1339   -5.0515   26.3541 C   0  0  0  0  0  0  0  0  0  0  0  0
    4.8080   -8.0362   16.7101 C   0  0  0  0  0  0  0  0  0  0  0  0
   -1.2173   -3.9294   26.9717 O   0  0  0  0  0  0  0  0  0  0  0  0
   -1.0025   -5.0942   27.4586 C   0  0  0  0  0  0  0  0  0  0  0  0
    2.2474   -8.9123   16.6273 C   0  0  0  0  0  0  0  0  0  0  0  0
    4.4957   -9.2636   17.3041 C   0  0  0  0  0  0  0  0  0  0  0  0
   -1.8070   -5.6086   28.1920 O   0  0  0  0  0  0  0  0  0  0  0  0
   10.4296   -5.1799   28.3140 C   0  0  0  0  0  0  0  0  0  0  0  0
    6.6017   -5.9004   26.9187 C   0  0  0  0  0  0  0  0  0  0  0  0
    2.4761   -6.9940   26.4111 N   0  0  0  0  0  0  0  0  0  0  0  0
    9.1353   -5.4053   27.8239 C   0  0  0  0  0  0  0  0  0  0  0  0
    0.9922   -9.3232   16.5995 O   0  0  0  0  0  0  0  0  0  0  0  0
    1.5232   -7.6869   27.1182 C   0  0  0  0  0  0  0  0  0  0  0  0
    8.6878   -6.6715   27.7262 N   0  0  0  0  0  0  0  0  0  0  0  0
    6.9911   -8.2423   27.1808 C   0  0  0  0  0  0  0  0  0  0  0  0
    3.8436   -7.2758   16.0578 C   0  0  0  0  0  0  0  0  0  0  0  0
    3.1882   -9.7190   17.2566 C   0  0  0  0  0  0  0  0  0  0  0  0
    5.3488   -6.1737   26.5092 C   0  0  0  0  0  0  0  0  0  0  0  0
    7.4567   -6.9464   27.2858 C   0  0  0  0  0  0  0  0  0  0  0  0
    0.1921   -5.7592   27.1123 C   0  0  0  0  0  0  0  0  0  0  0  0
    3.5517   -7.7407   25.9711 C   0  0  0  0  0  0  0  0  0  0  0  0
  1  4  4  0
  1 22  4  0
  2 20  4  0
  2 27  4  0
  3 12  4  0
  3 23  4  0
  4 25  4  0
  4 28  1  0
  5  8  4  0
  5 17  4  0
  6  7  4  0
  6 16  4  0
  7 18  4  0
  8 27  4  0
  9 13  4  0
  9 23  4  0
 10 11  1  0
 11 14  2  0
 11 27  1  0
 12 19  1  0
 12 24  4  0
 13 24  4  0
 15 18  1  0
 16 25  4  0
 16 26  4  0
 17 20  4  0
 17 28  1  0
 18 21  4  0
 21 26  4  0
 22 26  4  0
M  END
$$$$

 Created by Python create_sdf_string function

 28 30  0  0  0  0  0  0  0  0999 V2000
    5.7174   -8.4529   26.7190 C   0  0  0  0  0  0  0  0  0  0  0  0
    0.3974   -7.0711   27.5149 C   0  0  0  0  0  0  0  0  0  0  0  0
    2.5338   -7.6891   16.0102 C   0  0  0  0  0  0  0  0  0  0  0  0
    4.8690   -7.4380   26.4151 C   0  0  0  0  0  0  0  0  0  0  0  0
    2.3021   -5.6726   26.0378 C   0  0  0  0  0  0  0  0  0  0  0  0
    7.0880   -4.6163   27.0010 C   0  0  0  0  0  0  0  0  0  0  0  0
    8.3117   -4.3698   27.4436 C   0  0  0  0  0  0  0  0  0  0  0  0
    1.1339   -5.0515   26.3541 C   0  0  0  0  0  0  0  0  0  0  0  0
    4.8080   -8.0362   16.7101 C   0  0  0  0  0  0  0  0  0  0  0  0
   -1.2173   -3.9294   26.9717 O   0  0  0  0  0  0  0  0  0  0  0  0
   -1.0025   -5.0942   27.4586 C   0  0  0  0  0  0  0  0  0  0  0  0
    2.2474   -8.9123   16.6273 C   0  0  0  0  0  0  0  0  0  0  0  0
    4.4957   -9.2636   17.3041 C   0  0  0  0  0  0  0  0  0  0  0  0
   -1.8070   -5.6086   28.1920 O   0  0  0  0  0  0  0  0  0  0  0  0
   10.4296   -5.1799   28.3140 C   0  0  0  0  0  0  0  0  0  0  0  0
    6.6017   -5.9004   26.9187 C   0  0  0  0  0  0  0  0  0  0  0  0
    2.4761   -6.9940   26.4111 N   0  0  0  0  0  0  0  0  0  0  0  0
    9.1353   -5.4053   27.8239 C   0  0  0  0  0  0  0  0  0  0  0  0
    0.9922   -9.3232   16.5995 O   0  0  0  0  0  0  0  0  0  0  0  0
    1.5232   -7.6869   27.1182 C   0  0  0  0  0  0  0  0  0  0  0  0
    8.6878   -6.6715   27.7262 N   0  0  0  0  0  0  0  0  0  0  0  0
    6.9911   -8.2423   27.1808 C   0  0  0  0  0  0  0  0  0  0  0  0
    3.8436   -7.2758   16.0578 C   0  0  0  0  0  0  0  0  0  0  0  0
    3.1882   -9.7190   17.2566 C   0  0  0  0  0  0  0  0  0  0  0  0
    5.3488   -6.1737   26.5092 C   0  0  0  0  0  0  0  0  0  0  0  0
    7.4567   -6.9464   27.2858 C   0  0  0  0  0  0  0  0  0  0  0  0
    0.1921   -5.7592   27.1123 C   0  0  0  0  0  0  0  0  0  0  0  0
    3.5517   -7.7407   25.9711 C   0  0  0  0  0  0  0  0  0  0  0  0
  1  4  4  0
  1 22  4  0
  2 20  4  0
  2 27  4  0
  3 12  4  0
  3 23  4  0
  4 25  4  0
  4 28  1  0
  5  8  4  0
  5 17  4  0
  6  7  4  0
  6 16  4  0
  7 18  4  0
  8 27  4  0
  9 13  4  0
  9 23  4  0
 10 11  1  0
 11 14  2  0
 11 27  1  0
 12 19  1  0
 12 24  4  0
 13 24  4  0
 15 18  1  0
 16 25  4  0
 16 26  4  0
 17 20  4  0
 17 28  1  0
 18 21  4  0
 21 26  4  0
 22 26  4  0
M  END
$$$$

 Created by Python create_sdf_string function

 28 30  0  0  0  0  0  0  0  0999 V2000
    5.7174   -8.4529   26.7190 C   0  0  0  0  0  0  0  0  0  0  0  0
    0.3974   -7.0711   27.5149 C   0  0  0  0  0  0  0  0  0  0  0  0
    2.5338   -7.6891   16.0102 C   0  0  0  0  0  0  0  0  0  0  0  0
    4.8690   -7.4380   26.4151 C   0  0  0  0  0  0  0  0  0  0  0  0
    2.3021   -5.6726   26.0378 C   0  0  0  0  0  0  0  0  0  0  0  0
    7.0880   -4.6163   27.0010 C   0  0  0  0  0  0  0  0  0  0  0  0
    8.3117   -4.3698   27.4436 C   0  0  0  0  0  0  0  0  0  0  0  0
    1.1339   -5.0515   26.3541 C   0  0  0  0  0  0  0  0  0  0  0  0
    4.8080   -8.0362   16.7101 C   0  0  0  0  0  0  0  0  0  0  0  0
   -1.2173   -3.9294   26.9717 O   0  0  0  0  0  0  0  0  0  0  0  0
   -1.0025   -5.0942   27.4586 C   0  0  0  0  0  0  0  0  0  0  0  0
    2.2474   -8.9123   16.6273 C   0  0  0  0  0  0  0  0  0  0  0  0
    4.4957   -9.2636   17.3041 C   0  0  0  0  0  0  0  0  0  0  0  0
   -1.8070   -5.6086   28.1920 O   0  0  0  0  0  0  0  0  0  0  0  0
   10.4296   -5.1799   28.3140 C   0  0  0  0  0  0  0  0  0  0  0  0
    6.6017   -5.9004   26.9187 C   0  0  0  0  0  0  0  0  0  0  0  0
    2.4761   -6.9940   26.4111 N   0  0  0  0  0  0  0  0  0  0  0  0
    9.1353   -5.4053   27.8239 C   0  0  0  0  0  0  0  0  0  0  0  0
    0.9922   -9.3232   16.5995 O   0  0  0  0  0  0  0  0  0  0  0  0
    1.5232   -7.6869   27.1182 C   0  0  0  0  0  0  0  0  0  0  0  0
    8.6878   -6.6715   27.7262 N   0  0  0  0  0  0  0  0  0  0  0  0
    6.9911   -8.2423   27.1808 C   0  0  0  0  0  0  0  0  0  0  0  0
    3.8436   -7.2758   16.0578 C   0  0  0  0  0  0  0  0  0  0  0  0
    3.1882   -9.7190   17.2566 C   0  0  0  0  0  0  0  0  0  0  0  0
    5.3488   -6.1737   26.5092 C   0  0  0  0  0  0  0  0  0  0  0  0
    7.4567   -6.9464   27.2858 C   0  0  0  0  0  0  0  0  0  0  0  0
    0.1921   -5.7592   27.1123 C   0  0  0  0  0  0  0  0  0  0  0  0
    3.5517   -7.7407   25.9711 C   0  0  0  0  0  0  0  0  0  0  0  0
  1  4  4  0
  1 22  4  0
  2 20  4  0
  2 27  4  0
  3 12  4  0
  3 23  4  0
  4 25  4  0
  4 28  1  0
  5  8  4  0
  5 17  4  0
  6  7  4  0
  6 16  4  0
  7 18  4  0
  8 27  4  0
  9 13  4  0
  9 23  4  0
 10 11  1  0
 11 14  2  0
 11 27  1  0
 12 19  1  0
 12 24  4  0
 13 24  4  0
 15 18  1  0
 16 25  4  0
 16 26  4  0
 17 20  4  0
 17 28  1  0
 18 21  4  0
 21 26  4  0
 22 26  4  0
M  END
$$$$

 Created by Python create_sdf_string function

 28 30  0  0  0  0  0  0  0  0999 V2000
    5.7174   -8.4529   26.7190 C   0  0  0  0  0  0  0  0  0  0  0  0
    0.3974   -7.0711   27.5149 C   0  0  0  0  0  0  0  0  0  0  0  0
    2.5338   -7.6891   16.0102 C   0  0  0  0  0  0  0  0  0  0  0  0
    4.8690   -7.4380   26.4151 C   0  0  0  0  0  0  0  0  0  0  0  0
    2.3021   -5.6726   26.0378 C   0  0  0  0  0  0  0  0  0  0  0  0
    7.0880   -4.6163   27.0010 C   0  0  0  0  0  0  0  0  0  0  0  0
    8.3117   -4.3698   27.4436 C   0  0  0  0  0  0  0  0  0  0  0  0
    1.1339   -5.0515   26.3541 C   0  0  0  0  0  0  0  0  0  0  0  0
    4.8080   -8.0362   16.7101 C   0  0  0  0  0  0  0  0  0  0  0  0
   -1.2173   -3.9294   26.9717 O   0  0  0  0  0  0  0  0  0  0  0  0
   -1.0025   -5.0942   27.4586 C   0  0  0  0  0  0  0  0  0  0  0  0
    2.2474   -8.9123   16.6273 C   0  0  0  0  0  0  0  0  0  0  0  0
    4.4957   -9.2636   17.3041 C   0  0  0  0  0  0  0  0  0  0  0  0
   -1.8070   -5.6086   28.1920 O   0  0  0  0  0  0  0  0  0  0  0  0
   10.4296   -5.1799   28.3140 C   0  0  0  0  0  0  0  0  0  0  0  0
    6.6017   -5.9004   26.9187 C   0  0  0  0  0  0  0  0  0  0  0  0
    2.4761   -6.9940   26.4111 N   0  0  0  0  0  0  0  0  0  0  0  0
    9.1353   -5.4053   27.8239 C   0  0  0  0  0  0  0  0  0  0  0  0
    0.9922   -9.3232   16.5995 O   0  0  0  0  0  0  0  0  0  0  0  0
    1.5232   -7.6869   27.1182 C   0  0  0  0  0  0  0  0  0  0  0  0
    8.6878   -6.6715   27.7262 N   0  0  0  0  0  0  0  0  0  0  0  0
    6.9911   -8.2423   27.1808 C   0  0  0  0  0  0  0  0  0  0  0  0
    3.8436   -7.2758   16.0578 C   0  0  0  0  0  0  0  0  0  0  0  0
    3.1882   -9.7190   17.2566 C   0  0  0  0  0  0  0  0  0  0  0  0
    5.3488   -6.1737   26.5092 C   0  0  0  0  0  0  0  0  0  0  0  0
    7.4567   -6.9464   27.2858 C   0  0  0  0  0  0  0  0  0  0  0  0
    0.1921   -5.7592   27.1123 C   0  0  0  0  0  0  0  0  0  0  0  0
    3.5517   -7.7407   25.9711 C   0  0  0  0  0  0  0  0  0  0  0  0
  1  4  4  0
  1 22  4  0
  2 20  4  0
  2 27  4  0
  3 12  4  0
  3 23  4  0
  4 25  4  0
  4 28  1  0
  5  8  4  0
  5 17  4  0
  6  7  4  0
  6 16  4  0
  7 18  4  0
  8 27  4  0
  9 13  4  0
  9 23  4  0
 10 11  1  0
 11 14  2  0
 11 27  1  0
 12 19  1  0
 12 24  4  0
 13 24  4  0
 15 18  1  0
 16 25  4  0
 16 26  4  0
 17 20  4  0
 17 28  1  0
 18 21  4  0
 21 26  4  0
 22 26  4  0
M  END
$$$$

 Created by Python create_sdf_string function

 28 30  0  0  0  0  0  0  0  0999 V2000
    5.7174   -8.4529   26.7190 C   0  0  0  0  0  0  0  0  0  0  0  0
    0.3974   -7.0711   27.5149 C   0  0  0  0  0  0  0  0  0  0  0  0
    2.5338   -7.6891   16.0102 C   0  0  0  0  0  0  0  0  0  0  0  0
    4.8690   -7.4380   26.4151 C   0  0  0  0  0  0  0  0  0  0  0  0
    2.3021   -5.6726   26.0378 C   0  0  0  0  0  0  0  0  0  0  0  0
    7.0880   -4.6163   27.0010 C   0  0  0  0  0  0  0  0  0  0  0  0
    8.3117   -4.3698   27.4436 C   0  0  0  0  0  0  0  0  0  0  0  0
    1.1339   -5.0515   26.3541 C   0  0  0  0  0  0  0  0  0  0  0  0
    4.8080   -8.0362   16.7101 C   0  0  0  0  0  0  0  0  0  0  0  0
   -1.2173   -3.9294   26.9717 O   0  0  0  0  0  0  0  0  0  0  0  0
   -1.0025   -5.0942   27.4586 C   0  0  0  0  0  0  0  0  0  0  0  0
    2.2474   -8.9123   16.6273 C   0  0  0  0  0  0  0  0  0  0  0  0
    4.4957   -9.2636   17.3041 C   0  0  0  0  0  0  0  0  0  0  0  0
   -1.8070   -5.6086   28.1920 O   0  0  0  0  0  0  0  0  0  0  0  0
   10.4296   -5.1799   28.3140 C   0  0  0  0  0  0  0  0  0  0  0  0
    6.6017   -5.9004   26.9187 C   0  0  0  0  0  0  0  0  0  0  0  0
    2.4761   -6.9940   26.4111 N   0  0  0  0  0  0  0  0  0  0  0  0
    9.1353   -5.4053   27.8239 C   0  0  0  0  0  0  0  0  0  0  0  0
    0.9922   -9.3232   16.5995 O   0  0  0  0  0  0  0  0  0  0  0  0
    1.5232   -7.6869   27.1182 C   0  0  0  0  0  0  0  0  0  0  0  0
    8.6878   -6.6715   27.7262 N   0  0  0  0  0  0  0  0  0  0  0  0
    6.9911   -8.2423   27.1808 C   0  0  0  0  0  0  0  0  0  0  0  0
    3.8436   -7.2758   16.0578 C   0  0  0  0  0  0  0  0  0  0  0  0
    3.1882   -9.7190   17.2566 C   0  0  0  0  0  0  0  0  0  0  0  0
    5.3488   -6.1737   26.5092 C   0  0  0  0  0  0  0  0  0  0  0  0
    7.4567   -6.9464   27.2858 C   0  0  0  0  0  0  0  0  0  0  0  0
    0.1921   -5.7592   27.1123 C   0  0  0  0  0  0  0  0  0  0  0  0
    3.5517   -7.7407   25.9711 C   0  0  0  0  0  0  0  0  0  0  0  0
  1  4  4  0
  1 22  4  0
  2 20  4  0
  2 27  4  0
  3 12  4  0
  3 23  4  0
  4 25  4  0
  4 28  1  0
  5  8  4  0
  5 17  4  0
  6  7  4  0
  6 16  4  0
  7 18  4  0
  8 27  4  0
  9 13  4  0
  9 23  4  0
 10 11  1  0
 11 14  2  0
 11 27  1  0
 12 19  1  0
 12 24  4  0
 13 24  4  0
 15 18  1  0
 16 25  4  0
 16 26  4  0
 17 20  4  0
 17 28  1  0
 18 21  4  0
 21 26  4  0
 22 26  4  0
M  END
$$$$

 Created by Python create_sdf_string function

 28 30  0  0  0  0  0  0  0  0999 V2000
    5.7174   -8.4529   26.7190 C   0  0  0  0  0  0  0  0  0  0  0  0
    0.3974   -7.0711   27.5149 C   0  0  0  0  0  0  0  0  0  0  0  0
    2.5338   -7.6891   16.0102 C   0  0  0  0  0  0  0  0  0  0  0  0
    4.8690   -7.4380   26.4151 C   0  0  0  0  0  0  0  0  0  0  0  0
    2.3021   -5.6726   26.0378 C   0  0  0  0  0  0  0  0  0  0  0  0
    7.0880   -4.6163   27.0010 C   0  0  0  0  0  0  0  0  0  0  0  0
    8.3117   -4.3698   27.4436 C   0  0  0  0  0  0  0  0  0  0  0  0
    1.1339   -5.0515   26.3541 C   0  0  0  0  0  0  0  0  0  0  0  0
    4.8080   -8.0362   16.7101 C   0  0  0  0  0  0  0  0  0  0  0  0
   -1.2173   -3.9294   26.9717 O   0  0  0  0  0  0  0  0  0  0  0  0
   -1.0025   -5.0942   27.4586 C   0  0  0  0  0  0  0  0  0  0  0  0
    2.2474   -8.9123   16.6273 C   0  0  0  0  0  0  0  0  0  0  0  0
    4.4957   -9.2636   17.3041 C   0  0  0  0  0  0  0  0  0  0  0  0
   -1.8070   -5.6086   28.1920 O   0  0  0  0  0  0  0  0  0  0  0  0
   10.4296   -5.1799   28.3140 C   0  0  0  0  0  0  0  0  0  0  0  0
    6.6017   -5.9004   26.9187 C   0  0  0  0  0  0  0  0  0  0  0  0
    2.4761   -6.9940   26.4111 N   0  0  0  0  0  0  0  0  0  0  0  0
    9.1353   -5.4053   27.8239 C   0  0  0  0  0  0  0  0  0  0  0  0
    0.9922   -9.3232   16.5995 O   0  0  0  0  0  0  0  0  0  0  0  0
    1.5232   -7.6869   27.1182 C   0  0  0  0  0  0  0  0  0  0  0  0
    8.6878   -6.6715   27.7262 N   0  0  0  0  0  0  0  0  0  0  0  0
    6.9911   -8.2423   27.1808 C   0  0  0  0  0  0  0  0  0  0  0  0
    3.8436   -7.2758   16.0578 C   0  0  0  0  0  0  0  0  0  0  0  0
    3.1882   -9.7190   17.2566 C   0  0  0  0  0  0  0  0  0  0  0  0
    5.3488   -6.1737   26.5092 C   0  0  0  0  0  0  0  0  0  0  0  0
    7.4567   -6.9464   27.2858 C   0  0  0  0  0  0  0  0  0  0  0  0
    0.1921   -5.7592   27.1123 C   0  0  0  0  0  0  0  0  0  0  0  0
    3.5517   -7.7407   25.9711 C   0  0  0  0  0  0  0  0  0  0  0  0
  1  4  4  0
  1 22  4  0
  2 20  4  0
  2 27  4  0
  3 12  4  0
  3 23  4  0
  4 25  4  0
  4 28  1  0
  5  8  4  0
  5 17  4  0
  6  7  4  0
  6 16  4  0
  7 18  4  0
  8 27  4  0
  9 13  4  0
  9 23  4  0
 10 11  1  0
 11 14  2  0
 11 27  1  0
 12 19  1  0
 12 24  4  0
 13 24  4  0
 15 18  1  0
 16 25  4  0
 16 26  4  0
 17 20  4  0
 17 28  1  0
 18 21  4  0
 21 26  4  0
 22 26  4  0
M  END
$$$$

 Created by Python create_sdf_string function

 28 30  0  0  0  0  0  0  0  0999 V2000
    5.7174   -8.4529   26.7190 C   0  0  0  0  0  0  0  0  0  0  0  0
    0.3974   -7.0711   27.5149 C   0  0  0  0  0  0  0  0  0  0  0  0
    2.5338   -7.6891   16.0102 C   0  0  0  0  0  0  0  0  0  0  0  0
    4.8690   -7.4380   26.4151 C   0  0  0  0  0  0  0  0  0  0  0  0
    2.3021   -5.6726   26.0378 C   0  0  0  0  0  0  0  0  0  0  0  0
    7.0880   -4.6163   27.0010 C   0  0  0  0  0  0  0  0  0  0  0  0
    8.3117   -4.3698   27.4436 C   0  0  0  0  0  0  0  0  0  0  0  0
    1.1339   -5.0515   26.3541 C   0  0  0  0  0  0  0  0  0  0  0  0
    4.8080   -8.0362   16.7101 C   0  0  0  0  0  0  0  0  0  0  0  0
   -1.2173   -3.9294   26.9717 O   0  0  0  0  0  0  0  0  0  0  0  0
   -1.0025   -5.0942   27.4586 C   0  0  0  0  0  0  0  0  0  0  0  0
    2.2474   -8.9123   16.6273 C   0  0  0  0  0  0  0  0  0  0  0  0
    4.4957   -9.2636   17.3041 C   0  0  0  0  0  0  0  0  0  0  0  0
   -1.8070   -5.6086   28.1920 O   0  0  0  0  0  0  0  0  0  0  0  0
   10.4296   -5.1799   28.3140 C   0  0  0  0  0  0  0  0  0  0  0  0
    6.6017   -5.9004   26.9187 C   0  0  0  0  0  0  0  0  0  0  0  0
    2.4761   -6.9940   26.4111 N   0  0  0  0  0  0  0  0  0  0  0  0
    9.1353   -5.4053   27.8239 C   0  0  0  0  0  0  0  0  0  0  0  0
    0.9922   -9.3232   16.5995 O   0  0  0  0  0  0  0  0  0  0  0  0
    1.5232   -7.6869   27.1182 C   0  0  0  0  0  0  0  0  0  0  0  0
    8.6878   -6.6715   27.7262 N   0  0  0  0  0  0  0  0  0  0  0  0
    6.9911   -8.2423   27.1808 C   0  0  0  0  0  0  0  0  0  0  0  0
    3.8436   -7.2758   16.0578 C   0  0  0  0  0  0  0  0  0  0  0  0
    3.1882   -9.7190   17.2566 C   0  0  0  0  0  0  0  0  0  0  0  0
    5.3488   -6.1737   26.5092 C   0  0  0  0  0  0  0  0  0  0  0  0
    7.4567   -6.9464   27.2858 C   0  0  0  0  0  0  0  0  0  0  0  0
    0.1921   -5.7592   27.1123 C   0  0  0  0  0  0  0  0  0  0  0  0
    3.5517   -7.7407   25.9711 C   0  0  0  0  0  0  0  0  0  0  0  0
  1  4  4  0
  1 22  4  0
  2 20  4  0
  2 27  4  0
  3 12  4  0
  3 23  4  0
  4 25  4  0
  4 28  1  0
  5  8  4  0
  5 17  4  0
  6  7  4  0
  6 16  4  0
  7 18  4  0
  8 27  4  0
  9 13  4  0
  9 23  4  0
 10 11  1  0
 11 14  2  0
 11 27  1  0
 12 19  1  0
 12 24  4  0
 13 24  4  0
 15 18  1  0
 16 25  4  0
 16 26  4  0
 17 20  4  0
 17 28  1  0
 18 21  4  0
 21 26  4  0
 22 26  4  0
M  END
$$$$

 Created by Python create_sdf_string function

 28 30  0  0  0  0  0  0  0  0999 V2000
    5.7174   -8.4529   26.7190 C   0  0  0  0  0  0  0  0  0  0  0  0
    0.3974   -7.0711   27.5149 C   0  0  0  0  0  0  0  0  0  0  0  0
    2.5338   -7.6891   16.0102 C   0  0  0  0  0  0  0  0  0  0  0  0
    4.8690   -7.4380   26.4151 C   0  0  0  0  0  0  0  0  0  0  0  0
    2.3021   -5.6726   26.0378 C   0  0  0  0  0  0  0  0  0  0  0  0
    7.0880   -4.6163   27.0010 C   0  0  0  0  0  0  0  0  0  0  0  0
    8.3117   -4.3698   27.4436 C   0  0  0  0  0  0  0  0  0  0  0  0
    1.1339   -5.0515   26.3541 C   0  0  0  0  0  0  0  0  0  0  0  0
    4.8080   -8.0362   16.7101 C   0  0  0  0  0  0  0  0  0  0  0  0
   -1.2173   -3.9294   26.9717 O   0  0  0  0  0  0  0  0  0  0  0  0
   -1.0025   -5.0942   27.4586 C   0  0  0  0  0  0  0  0  0  0  0  0
    2.2474   -8.9123   16.6273 C   0  0  0  0  0  0  0  0  0  0  0  0
    4.4957   -9.2636   17.3041 C   0  0  0  0  0  0  0  0  0  0  0  0
   -1.8070   -5.6086   28.1920 O   0  0  0  0  0  0  0  0  0  0  0  0
   10.4296   -5.1799   28.3140 C   0  0  0  0  0  0  0  0  0  0  0  0
    6.6017   -5.9004   26.9187 C   0  0  0  0  0  0  0  0  0  0  0  0
    2.4761   -6.9940   26.4111 N   0  0  0  0  0  0  0  0  0  0  0  0
    9.1353   -5.4053   27.8239 C   0  0  0  0  0  0  0  0  0  0  0  0
    0.9922   -9.3232   16.5995 O   0  0  0  0  0  0  0  0  0  0  0  0
    1.5232   -7.6869   27.1182 C   0  0  0  0  0  0  0  0  0  0  0  0
    8.6878   -6.6715   27.7262 N   0  0  0  0  0  0  0  0  0  0  0  0
    6.9911   -8.2423   27.1808 C   0  0  0  0  0  0  0  0  0  0  0  0
    3.8436   -7.2758   16.0578 C   0  0  0  0  0  0  0  0  0  0  0  0
    3.1882   -9.7190   17.2566 C   0  0  0  0  0  0  0  0  0  0  0  0
    5.3488   -6.1737   26.5092 C   0  0  0  0  0  0  0  0  0  0  0  0
    7.4567   -6.9464   27.2858 C   0  0  0  0  0  0  0  0  0  0  0  0
    0.1921   -5.7592   27.1123 C   0  0  0  0  0  0  0  0  0  0  0  0
    3.5517   -7.7407   25.9711 C   0  0  0  0  0  0  0  0  0  0  0  0
  1  4  4  0
  1 22  4  0
  2 20  4  0
  2 27  4  0
  3 12  4  0
  3 23  4  0
  4 25  4  0
  4 28  1  0
  5  8  4  0
  5 17  4  0
  6  7  4  0
  6 16  4  0
  7 18  4  0
  8 27  4  0
  9 13  4  0
  9 23  4  0
 10 11  1  0
 11 14  2  0
 11 27  1  0
 12 19  1  0
 12 24  4  0
 13 24  4  0
 15 18  1  0
 16 25  4  0
 16 26  4  0
 17 20  4  0
 17 28  1  0
 18 21  4  0
 21 26  4  0
 22 26  4  0
M  END
$$$$

 Created by Python create_sdf_string function

 28 30  0  0  0  0  0  0  0  0999 V2000
    5.7174   -8.4529   26.7190 C   0  0  0  0  0  0  0  0  0  0  0  0
    0.3974   -7.0711   27.5149 C   0  0  0  0  0  0  0  0  0  0  0  0
    2.5338   -7.6891   16.0102 C   0  0  0  0  0  0  0  0  0  0  0  0
    4.8690   -7.4380   26.4151 C   0  0  0  0  0  0  0  0  0  0  0  0
    2.3021   -5.6726   26.0378 C   0  0  0  0  0  0  0  0  0  0  0  0
    7.0880   -4.6163   27.0010 C   0  0  0  0  0  0  0  0  0  0  0  0
    8.3117   -4.3698   27.4436 C   0  0  0  0  0  0  0  0  0  0  0  0
    1.1339   -5.0515   26.3541 C   0  0  0  0  0  0  0  0  0  0  0  0
    4.8080   -8.0362   16.7101 C   0  0  0  0  0  0  0  0  0  0  0  0
   -1.2173   -3.9294   26.9717 O   0  0  0  0  0  0  0  0  0  0  0  0
   -1.0025   -5.0942   27.4586 C   0  0  0  0  0  0  0  0  0  0  0  0
    2.2474   -8.9123   16.6273 C   0  0  0  0  0  0  0  0  0  0  0  0
    4.4957   -9.2636   17.3041 C   0  0  0  0  0  0  0  0  0  0  0  0
   -1.8070   -5.6086   28.1920 O   0  0  0  0  0  0  0  0  0  0  0  0
   10.4296   -5.1799   28.3140 C   0  0  0  0  0  0  0  0  0  0  0  0
    6.6017   -5.9004   26.9187 C   0  0  0  0  0  0  0  0  0  0  0  0
    2.4761   -6.9940   26.4111 N   0  0  0  0  0  0  0  0  0  0  0  0
    9.1353   -5.4053   27.8239 C   0  0  0  0  0  0  0  0  0  0  0  0
    0.9922   -9.3232   16.5995 O   0  0  0  0  0  0  0  0  0  0  0  0
    1.5232   -7.6869   27.1182 C   0  0  0  0  0  0  0  0  0  0  0  0
    8.6878   -6.6715   27.7262 N   0  0  0  0  0  0  0  0  0  0  0  0
    6.9911   -8.2423   27.1808 C   0  0  0  0  0  0  0  0  0  0  0  0
    3.8436   -7.2758   16.0578 C   0  0  0  0  0  0  0  0  0  0  0  0
    3.1882   -9.7190   17.2566 C   0  0  0  0  0  0  0  0  0  0  0  0
    5.3488   -6.1737   26.5092 C   0  0  0  0  0  0  0  0  0  0  0  0
    7.4567   -6.9464   27.2858 C   0  0  0  0  0  0  0  0  0  0  0  0
    0.1921   -5.7592   27.1123 C   0  0  0  0  0  0  0  0  0  0  0  0
    3.5517   -7.7407   25.9711 C   0  0  0  0  0  0  0  0  0  0  0  0
  1  4  4  0
  1 22  4  0
  2 20  4  0
  2 27  4  0
  3 12  4  0
  3 23  4  0
  4 25  4  0
  4 28  1  0
  5  8  4  0
  5 17  4  0
  6  7  4  0
  6 16  4  0
  7 18  4  0
  8 27  4  0
  9 13  4  0
  9 23  4  0
 10 11  1  0
 11 14  2  0
 11 27  1  0
 12 19  1  0
 12 24  4  0
 13 24  4  0
 15 18  1  0
 16 25  4  0
 16 26  4  0
 17 20  4  0
 17 28  1  0
 18 21  4  0
 21 26  4  0
 22 26  4  0
M  END
$$$$

 Created by Python create_sdf_string function

 28 30  0  0  0  0  0  0  0  0999 V2000
    5.7174   -8.4529   26.7190 C   0  0  0  0  0  0  0  0  0  0  0  0
    0.3974   -7.0711   27.5149 C   0  0  0  0  0  0  0  0  0  0  0  0
    2.5338   -7.6891   16.0102 C   0  0  0  0  0  0  0  0  0  0  0  0
    4.8690   -7.4380   26.4151 C   0  0  0  0  0  0  0  0  0  0  0  0
    2.3021   -5.6726   26.0378 C   0  0  0  0  0  0  0  0  0  0  0  0
    7.0880   -4.6163   27.0010 C   0  0  0  0  0  0  0  0  0  0  0  0
    8.3117   -4.3698   27.4436 C   0  0  0  0  0  0  0  0  0  0  0  0
    1.1339   -5.0515   26.3541 C   0  0  0  0  0  0  0  0  0  0  0  0
    4.8080   -8.0362   16.7101 C   0  0  0  0  0  0  0  0  0  0  0  0
   -1.2173   -3.9294   26.9717 O   0  0  0  0  0  0  0  0  0  0  0  0
   -1.0025   -5.0942   27.4586 C   0  0  0  0  0  0  0  0  0  0  0  0
    2.2474   -8.9123   16.6273 C   0  0  0  0  0  0  0  0  0  0  0  0
    4.4957   -9.2636   17.3041 C   0  0  0  0  0  0  0  0  0  0  0  0
   -1.8070   -5.6086   28.1920 O   0  0  0  0  0  0  0  0  0  0  0  0
   10.4296   -5.1799   28.3140 C   0  0  0  0  0  0  0  0  0  0  0  0
    6.6017   -5.9004   26.9187 C   0  0  0  0  0  0  0  0  0  0  0  0
    2.4761   -6.9940   26.4111 N   0  0  0  0  0  0  0  0  0  0  0  0
    9.1353   -5.4053   27.8239 C   0  0  0  0  0  0  0  0  0  0  0  0
    0.9922   -9.3232   16.5995 O   0  0  0  0  0  0  0  0  0  0  0  0
    1.5232   -7.6869   27.1182 C   0  0  0  0  0  0  0  0  0  0  0  0
    8.6878   -6.6715   27.7262 N   0  0  0  0  0  0  0  0  0  0  0  0
    6.9911   -8.2423   27.1808 C   0  0  0  0  0  0  0  0  0  0  0  0
    3.8436   -7.2758   16.0578 C   0  0  0  0  0  0  0  0  0  0  0  0
    3.1882   -9.7190   17.2566 C   0  0  0  0  0  0  0  0  0  0  0  0
    5.3488   -6.1737   26.5092 C   0  0  0  0  0  0  0  0  0  0  0  0
    7.4567   -6.9464   27.2858 C   0  0  0  0  0  0  0  0  0  0  0  0
    0.1921   -5.7592   27.1123 C   0  0  0  0  0  0  0  0  0  0  0  0
    3.5517   -7.7407   25.9711 C   0  0  0  0  0  0  0  0  0  0  0  0
  1  4  4  0
  1 22  4  0
  2 20  4  0
  2 27  4  0
  3 12  4  0
  3 23  4  0
  4 25  4  0
  4 28  1  0
  5  8  4  0
  5 17  4  0
  6  7  4  0
  6 16  4  0
  7 18  4  0
  8 27  4  0
  9 13  4  0
  9 23  4  0
 10 11  1  0
 11 14  2  0
 11 27  1  0
 12 19  1  0
 12 24  4  0
 13 24  4  0
 15 18  1  0
 16 25  4  0
 16 26  4  0
 17 20  4  0
 17 28  1  0
 18 21  4  0
 21 26  4  0
 22 26  4  0
M  END
$$$$

 Created by Python create_sdf_string function

 28 30  0  0  0  0  0  0  0  0999 V2000
    5.7174   -8.4529   26.7190 C   0  0  0  0  0  0  0  0  0  0  0  0
    0.3974   -7.0711   27.5149 C   0  0  0  0  0  0  0  0  0  0  0  0
    2.5338   -7.6891   16.0102 C   0  0  0  0  0  0  0  0  0  0  0  0
    4.8690   -7.4380   26.4151 C   0  0  0  0  0  0  0  0  0  0  0  0
    2.3021   -5.6726   26.0378 C   0  0  0  0  0  0  0  0  0  0  0  0
    7.0880   -4.6163   27.0010 C   0  0  0  0  0  0  0  0  0  0  0  0
    8.3117   -4.3698   27.4436 C   0  0  0  0  0  0  0  0  0  0  0  0
    1.1339   -5.0515   26.3541 C   0  0  0  0  0  0  0  0  0  0  0  0
    4.8080   -8.0362   16.7101 C   0  0  0  0  0  0  0  0  0  0  0  0
   -1.2173   -3.9294   26.9717 O   0  0  0  0  0  0  0  0  0  0  0  0
   -1.0025   -5.0942   27.4586 C   0  0  0  0  0  0  0  0  0  0  0  0
    2.2474   -8.9123   16.6273 C   0  0  0  0  0  0  0  0  0  0  0  0
    4.4957   -9.2636   17.3041 C   0  0  0  0  0  0  0  0  0  0  0  0
   -1.8070   -5.6086   28.1920 O   0  0  0  0  0  0  0  0  0  0  0  0
   10.4296   -5.1799   28.3140 C   0  0  0  0  0  0  0  0  0  0  0  0
    6.6017   -5.9004   26.9187 C   0  0  0  0  0  0  0  0  0  0  0  0
    2.4761   -6.9940   26.4111 N   0  0  0  0  0  0  0  0  0  0  0  0
    9.1353   -5.4053   27.8239 C   0  0  0  0  0  0  0  0  0  0  0  0
    0.9922   -9.3232   16.5995 O   0  0  0  0  0  0  0  0  0  0  0  0
    1.5232   -7.6869   27.1182 C   0  0  0  0  0  0  0  0  0  0  0  0
    8.6878   -6.6715   27.7262 N   0  0  0  0  0  0  0  0  0  0  0  0
    6.9911   -8.2423   27.1808 C   0  0  0  0  0  0  0  0  0  0  0  0
    3.8436   -7.2758   16.0578 C   0  0  0  0  0  0  0  0  0  0  0  0
    3.1882   -9.7190   17.2566 C   0  0  0  0  0  0  0  0  0  0  0  0
    5.3488   -6.1737   26.5092 C   0  0  0  0  0  0  0  0  0  0  0  0
    7.4567   -6.9464   27.2858 C   0  0  0  0  0  0  0  0  0  0  0  0
    0.1921   -5.7592   27.1123 C   0  0  0  0  0  0  0  0  0  0  0  0
    3.5517   -7.7407   25.9711 C   0  0  0  0  0  0  0  0  0  0  0  0
  1  4  4  0
  1 22  4  0
  2 20  4  0
  2 27  4  0
  3 12  4  0
  3 23  4  0
  4 25  4  0
  4 28  1  0
  5  8  4  0
  5 17  4  0
  6  7  4  0
  6 16  4  0
  7 18  4  0
  8 27  4  0
  9 13  4  0
  9 23  4  0
 10 11  1  0
 11 14  2  0
 11 27  1  0
 12 19  1  0
 12 24  4  0
 13 24  4  0
 15 18  1  0
 16 25  4  0
 16 26  4  0
 17 20  4  0
 17 28  1  0
 18 21  4  0
 21 26  4  0
 22 26  4  0
M  END
$$$$

 Created by Python create_sdf_string function

 28 30  0  0  0  0  0  0  0  0999 V2000
    5.7174   -8.4529   26.7190 C   0  0  0  0  0  0  0  0  0  0  0  0
    0.3974   -7.0711   27.5149 C   0  0  0  0  0  0  0  0  0  0  0  0
    2.5338   -7.6891   16.0102 C   0  0  0  0  0  0  0  0  0  0  0  0
    4.8690   -7.4380   26.4151 C   0  0  0  0  0  0  0  0  0  0  0  0
    2.3021   -5.6726   26.0378 C   0  0  0  0  0  0  0  0  0  0  0  0
    7.0880   -4.6163   27.0010 C   0  0  0  0  0  0  0  0  0  0  0  0
    8.3117   -4.3698   27.4436 C   0  0  0  0  0  0  0  0  0  0  0  0
    1.1339   -5.0515   26.3541 C   0  0  0  0  0  0  0  0  0  0  0  0
    4.8080   -8.0362   16.7101 C   0  0  0  0  0  0  0  0  0  0  0  0
   -1.2173   -3.9294   26.9717 O   0  0  0  0  0  0  0  0  0  0  0  0
   -1.0025   -5.0942   27.4586 C   0  0  0  0  0  0  0  0  0  0  0  0
    2.2474   -8.9123   16.6273 C   0  0  0  0  0  0  0  0  0  0  0  0
    4.4957   -9.2636   17.3041 C   0  0  0  0  0  0  0  0  0  0  0  0
   -1.8070   -5.6086   28.1920 O   0  0  0  0  0  0  0  0  0  0  0  0
   10.4296   -5.1799   28.3140 C   0  0  0  0  0  0  0  0  0  0  0  0
    6.6017   -5.9004   26.9187 C   0  0  0  0  0  0  0  0  0  0  0  0
    2.4761   -6.9940   26.4111 N   0  0  0  0  0  0  0  0  0  0  0  0
    9.1353   -5.4053   27.8239 C   0  0  0  0  0  0  0  0  0  0  0  0
    0.9922   -9.3232   16.5995 O   0  0  0  0  0  0  0  0  0  0  0  0
    1.5232   -7.6869   27.1182 C   0  0  0  0  0  0  0  0  0  0  0  0
    8.6878   -6.6715   27.7262 N   0  0  0  0  0  0  0  0  0  0  0  0
    6.9911   -8.2423   27.1808 C   0  0  0  0  0  0  0  0  0  0  0  0
    3.8436   -7.2758   16.0578 C   0  0  0  0  0  0  0  0  0  0  0  0
    3.1882   -9.7190   17.2566 C   0  0  0  0  0  0  0  0  0  0  0  0
    5.3488   -6.1737   26.5092 C   0  0  0  0  0  0  0  0  0  0  0  0
    7.4567   -6.9464   27.2858 C   0  0  0  0  0  0  0  0  0  0  0  0
    0.1921   -5.7592   27.1123 C   0  0  0  0  0  0  0  0  0  0  0  0
    3.5517   -7.7407   25.9711 C   0  0  0  0  0  0  0  0  0  0  0  0
  1  4  4  0
  1 22  4  0
  2 20  4  0
  2 27  4  0
  3 12  4  0
  3 23  4  0
  4 25  4  0
  4 28  1  0
  5  8  4  0
  5 17  4  0
  6  7  4  0
  6 16  4  0
  7 18  4  0
  8 27  4  0
  9 13  4  0
  9 23  4  0
 10 11  1  0
 11 14  2  0
 11 27  1  0
 12 19  1  0
 12 24  4  0
 13 24  4  0
 15 18  1  0
 16 25  4  0
 16 26  4  0
 17 20  4  0
 17 28  1  0
 18 21  4  0
 21 26  4  0
 22 26  4  0
M  END
$$$$

 Created by Python create_sdf_string function

 28 30  0  0  0  0  0  0  0  0999 V2000
    5.7174   -8.4529   26.7190 C   0  0  0  0  0  0  0  0  0  0  0  0
    0.3974   -7.0711   27.5149 C   0  0  0  0  0  0  0  0  0  0  0  0
    2.5338   -7.6891   16.0102 C   0  0  0  0  0  0  0  0  0  0  0  0
    4.8690   -7.4380   26.4151 C   0  0  0  0  0  0  0  0  0  0  0  0
    2.3021   -5.6726   26.0378 C   0  0  0  0  0  0  0  0  0  0  0  0
    7.0880   -4.6163   27.0010 C   0  0  0  0  0  0  0  0  0  0  0  0
    8.3117   -4.3698   27.4436 C   0  0  0  0  0  0  0  0  0  0  0  0
    1.1339   -5.0515   26.3541 C   0  0  0  0  0  0  0  0  0  0  0  0
    4.8080   -8.0362   16.7101 C   0  0  0  0  0  0  0  0  0  0  0  0
   -1.2173   -3.9294   26.9717 O   0  0  0  0  0  0  0  0  0  0  0  0
   -1.0025   -5.0942   27.4586 C   0  0  0  0  0  0  0  0  0  0  0  0
    2.2474   -8.9123   16.6273 C   0  0  0  0  0  0  0  0  0  0  0  0
    4.4957   -9.2636   17.3041 C   0  0  0  0  0  0  0  0  0  0  0  0
   -1.8070   -5.6086   28.1920 O   0  0  0  0  0  0  0  0  0  0  0  0
   10.4296   -5.1799   28.3140 C   0  0  0  0  0  0  0  0  0  0  0  0
    6.6017   -5.9004   26.9187 C   0  0  0  0  0  0  0  0  0  0  0  0
    2.4761   -6.9940   26.4111 N   0  0  0  0  0  0  0  0  0  0  0  0
    9.1353   -5.4053   27.8239 C   0  0  0  0  0  0  0  0  0  0  0  0
    0.9922   -9.3232   16.5995 O   0  0  0  0  0  0  0  0  0  0  0  0
    1.5232   -7.6869   27.1182 C   0  0  0  0  0  0  0  0  0  0  0  0
    8.6878   -6.6715   27.7262 N   0  0  0  0  0  0  0  0  0  0  0  0
    6.9911   -8.2423   27.1808 C   0  0  0  0  0  0  0  0  0  0  0  0
    3.8436   -7.2758   16.0578 C   0  0  0  0  0  0  0  0  0  0  0  0
    3.1882   -9.7190   17.2566 C   0  0  0  0  0  0  0  0  0  0  0  0
    5.3488   -6.1737   26.5092 C   0  0  0  0  0  0  0  0  0  0  0  0
    7.4567   -6.9464   27.2858 C   0  0  0  0  0  0  0  0  0  0  0  0
    0.1921   -5.7592   27.1123 C   0  0  0  0  0  0  0  0  0  0  0  0
    3.5517   -7.7407   25.9711 C   0  0  0  0  0  0  0  0  0  0  0  0
  1  4  4  0
  1 22  4  0
  2 20  4  0
  2 27  4  0
  3 12  4  0
  3 23  4  0
  4 25  4  0
  4 28  1  0
  5  8  4  0
  5 17  4  0
  6  7  4  0
  6 16  4  0
  7 18  4  0
  8 27  4  0
  9 13  4  0
  9 23  4  0
 10 11  1  0
 11 14  2  0
 11 27  1  0
 12 19  1  0
 12 24  4  0
 13 24  4  0
 15 18  1  0
 16 25  4  0
 16 26  4  0
 17 20  4  0
 17 28  1  0
 18 21  4  0
 21 26  4  0
 22 26  4  0
M  END
$$$$

 Created by Python create_sdf_string function

 28 30  0  0  0  0  0  0  0  0999 V2000
    5.7174   -8.4529   26.7190 C   0  0  0  0  0  0  0  0  0  0  0  0
    0.3974   -7.0711   27.5149 C   0  0  0  0  0  0  0  0  0  0  0  0
    2.5338   -7.6891   16.0102 C   0  0  0  0  0  0  0  0  0  0  0  0
    4.8690   -7.4380   26.4151 C   0  0  0  0  0  0  0  0  0  0  0  0
    2.3021   -5.6726   26.0378 C   0  0  0  0  0  0  0  0  0  0  0  0
    7.0880   -4.6163   27.0010 C   0  0  0  0  0  0  0  0  0  0  0  0
    8.3117   -4.3698   27.4436 C   0  0  0  0  0  0  0  0  0  0  0  0
    1.1339   -5.0515   26.3541 C   0  0  0  0  0  0  0  0  0  0  0  0
    4.8080   -8.0362   16.7101 C   0  0  0  0  0  0  0  0  0  0  0  0
   -1.2173   -3.9294   26.9717 O   0  0  0  0  0  0  0  0  0  0  0  0
   -1.0025   -5.0942   27.4586 C   0  0  0  0  0  0  0  0  0  0  0  0
    2.2474   -8.9123   16.6273 C   0  0  0  0  0  0  0  0  0  0  0  0
    4.4957   -9.2636   17.3041 C   0  0  0  0  0  0  0  0  0  0  0  0
   -1.8070   -5.6086   28.1920 O   0  0  0  0  0  0  0  0  0  0  0  0
   10.4296   -5.1799   28.3140 C   0  0  0  0  0  0  0  0  0  0  0  0
    6.6017   -5.9004   26.9187 C   0  0  0  0  0  0  0  0  0  0  0  0
    2.4761   -6.9940   26.4111 N   0  0  0  0  0  0  0  0  0  0  0  0
    9.1353   -5.4053   27.8239 C   0  0  0  0  0  0  0  0  0  0  0  0
    0.9922   -9.3232   16.5995 O   0  0  0  0  0  0  0  0  0  0  0  0
    1.5232   -7.6869   27.1182 C   0  0  0  0  0  0  0  0  0  0  0  0
    8.6878   -6.6715   27.7262 N   0  0  0  0  0  0  0  0  0  0  0  0
    6.9911   -8.2423   27.1808 C   0  0  0  0  0  0  0  0  0  0  0  0
    3.8436   -7.2758   16.0578 C   0  0  0  0  0  0  0  0  0  0  0  0
    3.1882   -9.7190   17.2566 C   0  0  0  0  0  0  0  0  0  0  0  0
    5.3488   -6.1737   26.5092 C   0  0  0  0  0  0  0  0  0  0  0  0
    7.4567   -6.9464   27.2858 C   0  0  0  0  0  0  0  0  0  0  0  0
    0.1921   -5.7592   27.1123 C   0  0  0  0  0  0  0  0  0  0  0  0
    3.5517   -7.7407   25.9711 C   0  0  0  0  0  0  0  0  0  0  0  0
  1  4  4  0
  1 22  4  0
  2 20  4  0
  2 27  4  0
  3 12  4  0
  3 23  4  0
  4 25  4  0
  4 28  1  0
  5  8  4  0
  5 17  4  0
  6  7  4  0
  6 16  4  0
  7 18  4  0
  8 27  4  0
  9 13  4  0
  9 23  4  0
 10 11  1  0
 11 14  2  0
 11 27  1  0
 12 19  1  0
 12 24  4  0
 13 24  4  0
 15 18  1  0
 16 25  4  0
 16 26  4  0
 17 20  4  0
 17 28  1  0
 18 21  4  0
 21 26  4  0
 22 26  4  0
M  END
$$$$

 Created by Python create_sdf_string function

 28 30  0  0  0  0  0  0  0  0999 V2000
    5.7174   -8.4529   26.7190 C   0  0  0  0  0  0  0  0  0  0  0  0
    0.3974   -7.0711   27.5149 C   0  0  0  0  0  0  0  0  0  0  0  0
    2.5338   -7.6891   16.0102 C   0  0  0  0  0  0  0  0  0  0  0  0
    4.8690   -7.4380   26.4151 C   0  0  0  0  0  0  0  0  0  0  0  0
    2.3021   -5.6726   26.0378 C   0  0  0  0  0  0  0  0  0  0  0  0
    7.0880   -4.6163   27.0010 C   0  0  0  0  0  0  0  0  0  0  0  0
    8.3117   -4.3698   27.4436 C   0  0  0  0  0  0  0  0  0  0  0  0
    1.1339   -5.0515   26.3541 C   0  0  0  0  0  0  0  0  0  0  0  0
    4.8080   -8.0362   16.7101 C   0  0  0  0  0  0  0  0  0  0  0  0
   -1.2173   -3.9294   26.9717 O   0  0  0  0  0  0  0  0  0  0  0  0
   -1.0025   -5.0942   27.4586 C   0  0  0  0  0  0  0  0  0  0  0  0
    2.2474   -8.9123   16.6273 C   0  0  0  0  0  0  0  0  0  0  0  0
    4.4957   -9.2636   17.3041 C   0  0  0  0  0  0  0  0  0  0  0  0
   -1.8070   -5.6086   28.1920 O   0  0  0  0  0  0  0  0  0  0  0  0
   10.4296   -5.1799   28.3140 C   0  0  0  0  0  0  0  0  0  0  0  0
    6.6017   -5.9004   26.9187 C   0  0  0  0  0  0  0  0  0  0  0  0
    2.4761   -6.9940   26.4111 N   0  0  0  0  0  0  0  0  0  0  0  0
    9.1353   -5.4053   27.8239 C   0  0  0  0  0  0  0  0  0  0  0  0
    0.9922   -9.3232   16.5995 O   0  0  0  0  0  0  0  0  0  0  0  0
    1.5232   -7.6869   27.1182 C   0  0  0  0  0  0  0  0  0  0  0  0
    8.6878   -6.6715   27.7262 N   0  0  0  0  0  0  0  0  0  0  0  0
    6.9911   -8.2423   27.1808 C   0  0  0  0  0  0  0  0  0  0  0  0
    3.8436   -7.2758   16.0578 C   0  0  0  0  0  0  0  0  0  0  0  0
    3.1882   -9.7190   17.2566 C   0  0  0  0  0  0  0  0  0  0  0  0
    5.3488   -6.1737   26.5092 C   0  0  0  0  0  0  0  0  0  0  0  0
    7.4567   -6.9464   27.2858 C   0  0  0  0  0  0  0  0  0  0  0  0
    0.1921   -5.7592   27.1123 C   0  0  0  0  0  0  0  0  0  0  0  0
    3.5517   -7.7407   25.9711 C   0  0  0  0  0  0  0  0  0  0  0  0
  1  4  4  0
  1 22  4  0
  2 20  4  0
  2 27  4  0
  3 12  4  0
  3 23  4  0
  4 25  4  0
  4 28  1  0
  5  8  4  0
  5 17  4  0
  6  7  4  0
  6 16  4  0
  7 18  4  0
  8 27  4  0
  9 13  4  0
  9 23  4  0
 10 11  1  0
 11 14  2  0
 11 27  1  0
 12 19  1  0
 12 24  4  0
 13 24  4  0
 15 18  1  0
 16 25  4  0
 16 26  4  0
 17 20  4  0
 17 28  1  0
 18 21  4  0
 21 26  4  0
 22 26  4  0
M  END
$$$$

 Created by Python create_sdf_string function

 28 30  0  0  0  0  0  0  0  0999 V2000
    5.7174   -8.4529   26.7190 C   0  0  0  0  0  0  0  0  0  0  0  0
    0.3974   -7.0711   27.5149 C   0  0  0  0  0  0  0  0  0  0  0  0
    2.5338   -7.6891   16.0102 C   0  0  0  0  0  0  0  0  0  0  0  0
    4.8690   -7.4380   26.4151 C   0  0  0  0  0  0  0  0  0  0  0  0
    2.3021   -5.6726   26.0378 C   0  0  0  0  0  0  0  0  0  0  0  0
    7.0880   -4.6163   27.0010 C   0  0  0  0  0  0  0  0  0  0  0  0
    8.3117   -4.3698   27.4436 C   0  0  0  0  0  0  0  0  0  0  0  0
    1.1339   -5.0515   26.3541 C   0  0  0  0  0  0  0  0  0  0  0  0
    4.8080   -8.0362   16.7101 C   0  0  0  0  0  0  0  0  0  0  0  0
   -1.2173   -3.9294   26.9717 O   0  0  0  0  0  0  0  0  0  0  0  0
   -1.0025   -5.0942   27.4586 C   0  0  0  0  0  0  0  0  0  0  0  0
    2.2474   -8.9123   16.6273 C   0  0  0  0  0  0  0  0  0  0  0  0
    4.4957   -9.2636   17.3041 C   0  0  0  0  0  0  0  0  0  0  0  0
   -1.8070   -5.6086   28.1920 O   0  0  0  0  0  0  0  0  0  0  0  0
   10.4296   -5.1799   28.3140 C   0  0  0  0  0  0  0  0  0  0  0  0
    6.6017   -5.9004   26.9187 C   0  0  0  0  0  0  0  0  0  0  0  0
    2.4761   -6.9940   26.4111 N   0  0  0  0  0  0  0  0  0  0  0  0
    9.1353   -5.4053   27.8239 C   0  0  0  0  0  0  0  0  0  0  0  0
    0.9922   -9.3232   16.5995 O   0  0  0  0  0  0  0  0  0  0  0  0
    1.5232   -7.6869   27.1182 C   0  0  0  0  0  0  0  0  0  0  0  0
    8.6878   -6.6715   27.7262 N   0  0  0  0  0  0  0  0  0  0  0  0
    6.9911   -8.2423   27.1808 C   0  0  0  0  0  0  0  0  0  0  0  0
    3.8436   -7.2758   16.0578 C   0  0  0  0  0  0  0  0  0  0  0  0
    3.1882   -9.7190   17.2566 C   0  0  0  0  0  0  0  0  0  0  0  0
    5.3488   -6.1737   26.5092 C   0  0  0  0  0  0  0  0  0  0  0  0
    7.4567   -6.9464   27.2858 C   0  0  0  0  0  0  0  0  0  0  0  0
    0.1921   -5.7592   27.1123 C   0  0  0  0  0  0  0  0  0  0  0  0
    3.5517   -7.7407   25.9711 C   0  0  0  0  0  0  0  0  0  0  0  0
  1  4  4  0
  1 22  4  0
  2 20  4  0
  2 27  4  0
  3 12  4  0
  3 23  4  0
  4 25  4  0
  4 28  1  0
  5  8  4  0
  5 17  4  0
  6  7  4  0
  6 16  4  0
  7 18  4  0
  8 27  4  0
  9 13  4  0
  9 23  4  0
 10 11  1  0
 11 14  2  0
 11 27  1  0
 12 19  1  0
 12 24  4  0
 13 24  4  0
 15 18  1  0
 16 25  4  0
 16 26  4  0
 17 20  4  0
 17 28  1  0
 18 21  4  0
 21 26  4  0
 22 26  4  0
M  END
$$$$

 Created by Python create_sdf_string function

 28 30  0  0  0  0  0  0  0  0999 V2000
    5.7174   -8.4529   26.7190 C   0  0  0  0  0  0  0  0  0  0  0  0
    0.3974   -7.0711   27.5149 C   0  0  0  0  0  0  0  0  0  0  0  0
    2.5338   -7.6891   16.0102 C   0  0  0  0  0  0  0  0  0  0  0  0
    4.8690   -7.4380   26.4151 C   0  0  0  0  0  0  0  0  0  0  0  0
    2.3021   -5.6726   26.0378 C   0  0  0  0  0  0  0  0  0  0  0  0
    7.0880   -4.6163   27.0010 C   0  0  0  0  0  0  0  0  0  0  0  0
    8.3117   -4.3698   27.4436 C   0  0  0  0  0  0  0  0  0  0  0  0
    1.1339   -5.0515   26.3541 C   0  0  0  0  0  0  0  0  0  0  0  0
    4.8080   -8.0362   16.7101 C   0  0  0  0  0  0  0  0  0  0  0  0
   -1.2173   -3.9294   26.9717 O   0  0  0  0  0  0  0  0  0  0  0  0
   -1.0025   -5.0942   27.4586 C   0  0  0  0  0  0  0  0  0  0  0  0
    2.2474   -8.9123   16.6273 C   0  0  0  0  0  0  0  0  0  0  0  0
    4.4957   -9.2636   17.3041 C   0  0  0  0  0  0  0  0  0  0  0  0
   -1.8070   -5.6086   28.1920 O   0  0  0  0  0  0  0  0  0  0  0  0
   10.4296   -5.1799   28.3140 C   0  0  0  0  0  0  0  0  0  0  0  0
    6.6017   -5.9004   26.9187 C   0  0  0  0  0  0  0  0  0  0  0  0
    2.4761   -6.9940   26.4111 N   0  0  0  0  0  0  0  0  0  0  0  0
    9.1353   -5.4053   27.8239 C   0  0  0  0  0  0  0  0  0  0  0  0
    0.9922   -9.3232   16.5995 O   0  0  0  0  0  0  0  0  0  0  0  0
    1.5232   -7.6869   27.1182 C   0  0  0  0  0  0  0  0  0  0  0  0
    8.6878   -6.6715   27.7262 N   0  0  0  0  0  0  0  0  0  0  0  0
    6.9911   -8.2423   27.1808 C   0  0  0  0  0  0  0  0  0  0  0  0
    3.8436   -7.2758   16.0578 C   0  0  0  0  0  0  0  0  0  0  0  0
    3.1882   -9.7190   17.2566 C   0  0  0  0  0  0  0  0  0  0  0  0
    5.3488   -6.1737   26.5092 C   0  0  0  0  0  0  0  0  0  0  0  0
    7.4567   -6.9464   27.2858 C   0  0  0  0  0  0  0  0  0  0  0  0
    0.1921   -5.7592   27.1123 C   0  0  0  0  0  0  0  0  0  0  0  0
    3.5517   -7.7407   25.9711 C   0  0  0  0  0  0  0  0  0  0  0  0
  1  4  4  0
  1 22  4  0
  2 20  4  0
  2 27  4  0
  3 12  4  0
  3 23  4  0
  4 25  4  0
  4 28  1  0
  5  8  4  0
  5 17  4  0
  6  7  4  0
  6 16  4  0
  7 18  4  0
  8 27  4  0
  9 13  4  0
  9 23  4  0
 10 11  1  0
 11 14  2  0
 11 27  1  0
 12 19  1  0
 12 24  4  0
 13 24  4  0
 15 18  1  0
 16 25  4  0
 16 26  4  0
 17 20  4  0
 17 28  1  0
 18 21  4  0
 21 26  4  0
 22 26  4  0
M  END
$$$$

 Created by Python create_sdf_string function

 28 30  0  0  0  0  0  0  0  0999 V2000
    5.7174   -8.4529   26.7190 C   0  0  0  0  0  0  0  0  0  0  0  0
    0.3974   -7.0711   27.5149 C   0  0  0  0  0  0  0  0  0  0  0  0
    2.5338   -7.6891   16.0102 C   0  0  0  0  0  0  0  0  0  0  0  0
    4.8690   -7.4380   26.4151 C   0  0  0  0  0  0  0  0  0  0  0  0
    2.3021   -5.6726   26.0378 C   0  0  0  0  0  0  0  0  0  0  0  0
    7.0880   -4.6163   27.0010 C   0  0  0  0  0  0  0  0  0  0  0  0
    8.3117   -4.3698   27.4436 C   0  0  0  0  0  0  0  0  0  0  0  0
    1.1339   -5.0515   26.3541 C   0  0  0  0  0  0  0  0  0  0  0  0
    4.8080   -8.0362   16.7101 C   0  0  0  0  0  0  0  0  0  0  0  0
   -1.2173   -3.9294   26.9717 O   0  0  0  0  0  0  0  0  0  0  0  0
   -1.0025   -5.0942   27.4586 C   0  0  0  0  0  0  0  0  0  0  0  0
    2.2474   -8.9123   16.6273 C   0  0  0  0  0  0  0  0  0  0  0  0
    4.4957   -9.2636   17.3041 C   0  0  0  0  0  0  0  0  0  0  0  0
   -1.8070   -5.6086   28.1920 O   0  0  0  0  0  0  0  0  0  0  0  0
   10.4296   -5.1799   28.3140 C   0  0  0  0  0  0  0  0  0  0  0  0
    6.6017   -5.9004   26.9187 C   0  0  0  0  0  0  0  0  0  0  0  0
    2.4761   -6.9940   26.4111 N   0  0  0  0  0  0  0  0  0  0  0  0
    9.1353   -5.4053   27.8239 C   0  0  0  0  0  0  0  0  0  0  0  0
    0.9922   -9.3232   16.5995 O   0  0  0  0  0  0  0  0  0  0  0  0
    1.5232   -7.6869   27.1182 C   0  0  0  0  0  0  0  0  0  0  0  0
    8.6878   -6.6715   27.7262 N   0  0  0  0  0  0  0  0  0  0  0  0
    6.9911   -8.2423   27.1808 C   0  0  0  0  0  0  0  0  0  0  0  0
    3.8436   -7.2758   16.0578 C   0  0  0  0  0  0  0  0  0  0  0  0
    3.1882   -9.7190   17.2566 C   0  0  0  0  0  0  0  0  0  0  0  0
    5.3488   -6.1737   26.5092 C   0  0  0  0  0  0  0  0  0  0  0  0
    7.4567   -6.9464   27.2858 C   0  0  0  0  0  0  0  0  0  0  0  0
    0.1921   -5.7592   27.1123 C   0  0  0  0  0  0  0  0  0  0  0  0
    3.5517   -7.7407   25.9711 C   0  0  0  0  0  0  0  0  0  0  0  0
  1  4  4  0
  1 22  4  0
  2 20  4  0
  2 27  4  0
  3 12  4  0
  3 23  4  0
  4 25  4  0
  4 28  1  0
  5  8  4  0
  5 17  4  0
  6  7  4  0
  6 16  4  0
  7 18  4  0
  8 27  4  0
  9 13  4  0
  9 23  4  0
 10 11  1  0
 11 14  2  0
 11 27  1  0
 12 19  1  0
 12 24  4  0
 13 24  4  0
 15 18  1  0
 16 25  4  0
 16 26  4  0
 17 20  4  0
 17 28  1  0
 18 21  4  0
 21 26  4  0
 22 26  4  0
M  END
$$$$

 Created by Python create_sdf_string function

 28 30  0  0  0  0  0  0  0  0999 V2000
    5.7174   -8.4529   26.7190 C   0  0  0  0  0  0  0  0  0  0  0  0
    0.3974   -7.0711   27.5149 C   0  0  0  0  0  0  0  0  0  0  0  0
    2.5338   -7.6891   16.0102 C   0  0  0  0  0  0  0  0  0  0  0  0
    4.8690   -7.4380   26.4151 C   0  0  0  0  0  0  0  0  0  0  0  0
    2.3021   -5.6726   26.0378 C   0  0  0  0  0  0  0  0  0  0  0  0
    7.0880   -4.6163   27.0010 C   0  0  0  0  0  0  0  0  0  0  0  0
    8.3117   -4.3698   27.4436 C   0  0  0  0  0  0  0  0  0  0  0  0
    1.1339   -5.0515   26.3541 C   0  0  0  0  0  0  0  0  0  0  0  0
    4.8080   -8.0362   16.7101 C   0  0  0  0  0  0  0  0  0  0  0  0
   -1.2173   -3.9294   26.9717 O   0  0  0  0  0  0  0  0  0  0  0  0
   -1.0025   -5.0942   27.4586 C   0  0  0  0  0  0  0  0  0  0  0  0
    2.2474   -8.9123   16.6273 C   0  0  0  0  0  0  0  0  0  0  0  0
    4.4957   -9.2636   17.3041 C   0  0  0  0  0  0  0  0  0  0  0  0
   -1.8070   -5.6086   28.1920 O   0  0  0  0  0  0  0  0  0  0  0  0
   10.4296   -5.1799   28.3140 C   0  0  0  0  0  0  0  0  0  0  0  0
    6.6017   -5.9004   26.9187 C   0  0  0  0  0  0  0  0  0  0  0  0
    2.4761   -6.9940   26.4111 N   0  0  0  0  0  0  0  0  0  0  0  0
    9.1353   -5.4053   27.8239 C   0  0  0  0  0  0  0  0  0  0  0  0
    0.9922   -9.3232   16.5995 O   0  0  0  0  0  0  0  0  0  0  0  0
    1.5232   -7.6869   27.1182 C   0  0  0  0  0  0  0  0  0  0  0  0
    8.6878   -6.6715   27.7262 N   0  0  0  0  0  0  0  0  0  0  0  0
    6.9911   -8.2423   27.1808 C   0  0  0  0  0  0  0  0  0  0  0  0
    3.8436   -7.2758   16.0578 C   0  0  0  0  0  0  0  0  0  0  0  0
    3.1882   -9.7190   17.2566 C   0  0  0  0  0  0  0  0  0  0  0  0
    5.3488   -6.1737   26.5092 C   0  0  0  0  0  0  0  0  0  0  0  0
    7.4567   -6.9464   27.2858 C   0  0  0  0  0  0  0  0  0  0  0  0
    0.1921   -5.7592   27.1123 C   0  0  0  0  0  0  0  0  0  0  0  0
    3.5517   -7.7407   25.9711 C   0  0  0  0  0  0  0  0  0  0  0  0
  1  4  4  0
  1 22  4  0
  2 20  4  0
  2 27  4  0
  3 12  4  0
  3 23  4  0
  4 25  4  0
  4 28  1  0
  5  8  4  0
  5 17  4  0
  6  7  4  0
  6 16  4  0
  7 18  4  0
  8 27  4  0
  9 13  4  0
  9 23  4  0
 10 11  1  0
 11 14  2  0
 11 27  1  0
 12 19  1  0
 12 24  4  0
 13 24  4  0
 15 18  1  0
 16 25  4  0
 16 26  4  0
 17 20  4  0
 17 28  1  0
 18 21  4  0
 21 26  4  0
 22 26  4  0
M  END
$$$$

 Created by Python create_sdf_string function

 28 30  0  0  0  0  0  0  0  0999 V2000
    5.7174   -8.4529   26.7190 C   0  0  0  0  0  0  0  0  0  0  0  0
    0.3974   -7.0711   27.5149 C   0  0  0  0  0  0  0  0  0  0  0  0
    2.5338   -7.6891   16.0102 C   0  0  0  0  0  0  0  0  0  0  0  0
    4.8690   -7.4380   26.4151 C   0  0  0  0  0  0  0  0  0  0  0  0
    2.3021   -5.6726   26.0378 C   0  0  0  0  0  0  0  0  0  0  0  0
    7.0880   -4.6163   27.0010 C   0  0  0  0  0  0  0  0  0  0  0  0
    8.3117   -4.3698   27.4436 C   0  0  0  0  0  0  0  0  0  0  0  0
    1.1339   -5.0515   26.3541 C   0  0  0  0  0  0  0  0  0  0  0  0
    4.8080   -8.0362   16.7101 C   0  0  0  0  0  0  0  0  0  0  0  0
   -1.2173   -3.9294   26.9717 O   0  0  0  0  0  0  0  0  0  0  0  0
   -1.0025   -5.0942   27.4586 C   0  0  0  0  0  0  0  0  0  0  0  0
    2.2474   -8.9123   16.6273 C   0  0  0  0  0  0  0  0  0  0  0  0
    4.4957   -9.2636   17.3041 C   0  0  0  0  0  0  0  0  0  0  0  0
   -1.8070   -5.6086   28.1920 O   0  0  0  0  0  0  0  0  0  0  0  0
   10.4296   -5.1799   28.3140 C   0  0  0  0  0  0  0  0  0  0  0  0
    6.6017   -5.9004   26.9187 C   0  0  0  0  0  0  0  0  0  0  0  0
    2.4761   -6.9940   26.4111 N   0  0  0  0  0  0  0  0  0  0  0  0
    9.1353   -5.4053   27.8239 C   0  0  0  0  0  0  0  0  0  0  0  0
    0.9922   -9.3232   16.5995 O   0  0  0  0  0  0  0  0  0  0  0  0
    1.5232   -7.6869   27.1182 C   0  0  0  0  0  0  0  0  0  0  0  0
    8.6878   -6.6715   27.7262 N   0  0  0  0  0  0  0  0  0  0  0  0
    6.9911   -8.2423   27.1808 C   0  0  0  0  0  0  0  0  0  0  0  0
    3.8436   -7.2758   16.0578 C   0  0  0  0  0  0  0  0  0  0  0  0
    3.1882   -9.7190   17.2566 C   0  0  0  0  0  0  0  0  0  0  0  0
    5.3488   -6.1737   26.5092 C   0  0  0  0  0  0  0  0  0  0  0  0
    7.4567   -6.9464   27.2858 C   0  0  0  0  0  0  0  0  0  0  0  0
    0.1921   -5.7592   27.1123 C   0  0  0  0  0  0  0  0  0  0  0  0
    3.5517   -7.7407   25.9711 C   0  0  0  0  0  0  0  0  0  0  0  0
  1  4  4  0
  1 22  4  0
  2 20  4  0
  2 27  4  0
  3 12  4  0
  3 23  4  0
  4 25  4  0
  4 28  1  0
  5  8  4  0
  5 17  4  0
  6  7  4  0
  6 16  4  0
  7 18  4  0
  8 27  4  0
  9 13  4  0
  9 23  4  0
 10 11  1  0
 11 14  2  0
 11 27  1  0
 12 19  1  0
 12 24  4  0
 13 24  4  0
 15 18  1  0
 16 25  4  0
 16 26  4  0
 17 20  4  0
 17 28  1  0
 18 21  4  0
 21 26  4  0
 22 26  4  0
M  END
$$$$

 Created by Python create_sdf_string function

 28 30  0  0  0  0  0  0  0  0999 V2000
    5.7174   -8.4529   26.7190 C   0  0  0  0  0  0  0  0  0  0  0  0
    0.3974   -7.0711   27.5149 C   0  0  0  0  0  0  0  0  0  0  0  0
    2.5338   -7.6891   16.0102 C   0  0  0  0  0  0  0  0  0  0  0  0
    4.8690   -7.4380   26.4151 C   0  0  0  0  0  0  0  0  0  0  0  0
    2.3021   -5.6726   26.0378 C   0  0  0  0  0  0  0  0  0  0  0  0
    7.0880   -4.6163   27.0010 C   0  0  0  0  0  0  0  0  0  0  0  0
    8.3117   -4.3698   27.4436 C   0  0  0  0  0  0  0  0  0  0  0  0
    1.1339   -5.0515   26.3541 C   0  0  0  0  0  0  0  0  0  0  0  0
    4.8080   -8.0362   16.7101 C   0  0  0  0  0  0  0  0  0  0  0  0
   -1.2173   -3.9294   26.9717 O   0  0  0  0  0  0  0  0  0  0  0  0
   -1.0025   -5.0942   27.4586 C   0  0  0  0  0  0  0  0  0  0  0  0
    2.2474   -8.9123   16.6273 C   0  0  0  0  0  0  0  0  0  0  0  0
    4.4957   -9.2636   17.3041 C   0  0  0  0  0  0  0  0  0  0  0  0
   -1.8070   -5.6086   28.1920 O   0  0  0  0  0  0  0  0  0  0  0  0
   10.4296   -5.1799   28.3140 C   0  0  0  0  0  0  0  0  0  0  0  0
    6.6017   -5.9004   26.9187 C   0  0  0  0  0  0  0  0  0  0  0  0
    2.4761   -6.9940   26.4111 N   0  0  0  0  0  0  0  0  0  0  0  0
    9.1353   -5.4053   27.8239 C   0  0  0  0  0  0  0  0  0  0  0  0
    0.9922   -9.3232   16.5995 O   0  0  0  0  0  0  0  0  0  0  0  0
    1.5232   -7.6869   27.1182 C   0  0  0  0  0  0  0  0  0  0  0  0
    8.6878   -6.6715   27.7262 N   0  0  0  0  0  0  0  0  0  0  0  0
    6.9911   -8.2423   27.1808 C   0  0  0  0  0  0  0  0  0  0  0  0
    3.8436   -7.2758   16.0578 C   0  0  0  0  0  0  0  0  0  0  0  0
    3.1882   -9.7190   17.2566 C   0  0  0  0  0  0  0  0  0  0  0  0
    5.3488   -6.1737   26.5092 C   0  0  0  0  0  0  0  0  0  0  0  0
    7.4567   -6.9464   27.2858 C   0  0  0  0  0  0  0  0  0  0  0  0
    0.1921   -5.7592   27.1123 C   0  0  0  0  0  0  0  0  0  0  0  0
    3.5517   -7.7407   25.9711 C   0  0  0  0  0  0  0  0  0  0  0  0
  1  4  4  0
  1 22  4  0
  2 20  4  0
  2 27  4  0
  3 12  4  0
  3 23  4  0
  4 25  4  0
  4 28  1  0
  5  8  4  0
  5 17  4  0
  6  7  4  0
  6 16  4  0
  7 18  4  0
  8 27  4  0
  9 13  4  0
  9 23  4  0
 10 11  1  0
 11 14  2  0
 11 27  1  0
 12 19  1  0
 12 24  4  0
 13 24  4  0
 15 18  1  0
 16 25  4  0
 16 26  4  0
 17 20  4  0
 17 28  1  0
 18 21  4  0
 21 26  4  0
 22 26  4  0
M  END
$$$$

 Created by Python create_sdf_string function

 28 30  0  0  0  0  0  0  0  0999 V2000
    5.7174   -8.4529   26.7190 C   0  0  0  0  0  0  0  0  0  0  0  0
    0.3974   -7.0711   27.5149 C   0  0  0  0  0  0  0  0  0  0  0  0
    2.5338   -7.6891   16.0102 C   0  0  0  0  0  0  0  0  0  0  0  0
    4.8690   -7.4380   26.4151 C   0  0  0  0  0  0  0  0  0  0  0  0
    2.3021   -5.6726   26.0378 C   0  0  0  0  0  0  0  0  0  0  0  0
    7.0880   -4.6163   27.0010 C   0  0  0  0  0  0  0  0  0  0  0  0
    8.3117   -4.3698   27.4436 C   0  0  0  0  0  0  0  0  0  0  0  0
    1.1339   -5.0515   26.3541 C   0  0  0  0  0  0  0  0  0  0  0  0
    4.8080   -8.0362   16.7101 C   0  0  0  0  0  0  0  0  0  0  0  0
   -1.2173   -3.9294   26.9717 O   0  0  0  0  0  0  0  0  0  0  0  0
   -1.0025   -5.0942   27.4586 C   0  0  0  0  0  0  0  0  0  0  0  0
    2.2474   -8.9123   16.6273 C   0  0  0  0  0  0  0  0  0  0  0  0
    4.4957   -9.2636   17.3041 C   0  0  0  0  0  0  0  0  0  0  0  0
   -1.8070   -5.6086   28.1920 O   0  0  0  0  0  0  0  0  0  0  0  0
   10.4296   -5.1799   28.3140 C   0  0  0  0  0  0  0  0  0  0  0  0
    6.6017   -5.9004   26.9187 C   0  0  0  0  0  0  0  0  0  0  0  0
    2.4761   -6.9940   26.4111 N   0  0  0  0  0  0  0  0  0  0  0  0
    9.1353   -5.4053   27.8239 C   0  0  0  0  0  0  0  0  0  0  0  0
    0.9922   -9.3232   16.5995 O   0  0  0  0  0  0  0  0  0  0  0  0
    1.5232   -7.6869   27.1182 C   0  0  0  0  0  0  0  0  0  0  0  0
    8.6878   -6.6715   27.7262 N   0  0  0  0  0  0  0  0  0  0  0  0
    6.9911   -8.2423   27.1808 C   0  0  0  0  0  0  0  0  0  0  0  0
    3.8436   -7.2758   16.0578 C   0  0  0  0  0  0  0  0  0  0  0  0
    3.1882   -9.7190   17.2566 C   0  0  0  0  0  0  0  0  0  0  0  0
    5.3488   -6.1737   26.5092 C   0  0  0  0  0  0  0  0  0  0  0  0
    7.4567   -6.9464   27.2858 C   0  0  0  0  0  0  0  0  0  0  0  0
    0.1921   -5.7592   27.1123 C   0  0  0  0  0  0  0  0  0  0  0  0
    3.5517   -7.7407   25.9711 C   0  0  0  0  0  0  0  0  0  0  0  0
  1  4  4  0
  1 22  4  0
  2 20  4  0
  2 27  4  0
  3 12  4  0
  3 23  4  0
  4 25  4  0
  4 28  1  0
  5  8  4  0
  5 17  4  0
  6  7  4  0
  6 16  4  0
  7 18  4  0
  8 27  4  0
  9 13  4  0
  9 23  4  0
 10 11  1  0
 11 14  2  0
 11 27  1  0
 12 19  1  0
 12 24  4  0
 13 24  4  0
 15 18  1  0
 16 25  4  0
 16 26  4  0
 17 20  4  0
 17 28  1  0
 18 21  4  0
 21 26  4  0
 22 26  4  0
M  END
$$$$

 Created by Python create_sdf_string function

 28 30  0  0  0  0  0  0  0  0999 V2000
    5.7174   -8.4529   26.7190 C   0  0  0  0  0  0  0  0  0  0  0  0
    0.3974   -7.0711   27.5149 C   0  0  0  0  0  0  0  0  0  0  0  0
    2.5338   -7.6891   16.0102 C   0  0  0  0  0  0  0  0  0  0  0  0
    4.8690   -7.4380   26.4151 C   0  0  0  0  0  0  0  0  0  0  0  0
    2.3021   -5.6726   26.0378 C   0  0  0  0  0  0  0  0  0  0  0  0
    7.0880   -4.6163   27.0010 C   0  0  0  0  0  0  0  0  0  0  0  0
    8.3117   -4.3698   27.4436 C   0  0  0  0  0  0  0  0  0  0  0  0
    1.1339   -5.0515   26.3541 C   0  0  0  0  0  0  0  0  0  0  0  0
    4.8080   -8.0362   16.7101 C   0  0  0  0  0  0  0  0  0  0  0  0
   -1.2173   -3.9294   26.9717 O   0  0  0  0  0  0  0  0  0  0  0  0
   -1.0025   -5.0942   27.4586 C   0  0  0  0  0  0  0  0  0  0  0  0
    2.2474   -8.9123   16.6273 C   0  0  0  0  0  0  0  0  0  0  0  0
    4.4957   -9.2636   17.3041 C   0  0  0  0  0  0  0  0  0  0  0  0
   -1.8070   -5.6086   28.1920 O   0  0  0  0  0  0  0  0  0  0  0  0
   10.4296   -5.1799   28.3140 C   0  0  0  0  0  0  0  0  0  0  0  0
    6.6017   -5.9004   26.9187 C   0  0  0  0  0  0  0  0  0  0  0  0
    2.4761   -6.9940   26.4111 N   0  0  0  0  0  0  0  0  0  0  0  0
    9.1353   -5.4053   27.8239 C   0  0  0  0  0  0  0  0  0  0  0  0
    0.9922   -9.3232   16.5995 O   0  0  0  0  0  0  0  0  0  0  0  0
    1.5232   -7.6869   27.1182 C   0  0  0  0  0  0  0  0  0  0  0  0
    8.6878   -6.6715   27.7262 N   0  0  0  0  0  0  0  0  0  0  0  0
    6.9911   -8.2423   27.1808 C   0  0  0  0  0  0  0  0  0  0  0  0
    3.8436   -7.2758   16.0578 C   0  0  0  0  0  0  0  0  0  0  0  0
    3.1882   -9.7190   17.2566 C   0  0  0  0  0  0  0  0  0  0  0  0
    5.3488   -6.1737   26.5092 C   0  0  0  0  0  0  0  0  0  0  0  0
    7.4567   -6.9464   27.2858 C   0  0  0  0  0  0  0  0  0  0  0  0
    0.1921   -5.7592   27.1123 C   0  0  0  0  0  0  0  0  0  0  0  0
    3.5517   -7.7407   25.9711 C   0  0  0  0  0  0  0  0  0  0  0  0
  1  4  4  0
  1 22  4  0
  2 20  4  0
  2 27  4  0
  3 12  4  0
  3 23  4  0
  4 25  4  0
  4 28  1  0
  5  8  4  0
  5 17  4  0
  6  7  4  0
  6 16  4  0
  7 18  4  0
  8 27  4  0
  9 13  4  0
  9 23  4  0
 10 11  1  0
 11 14  2  0
 11 27  1  0
 12 19  1  0
 12 24  4  0
 13 24  4  0
 15 18  1  0
 16 25  4  0
 16 26  4  0
 17 20  4  0
 17 28  1  0
 18 21  4  0
 21 26  4  0
 22 26  4  0
M  END
$$$$

 Created by Python create_sdf_string function

 28 30  0  0  0  0  0  0  0  0999 V2000
    5.7174   -8.4529   26.7190 C   0  0  0  0  0  0  0  0  0  0  0  0
    0.3974   -7.0711   27.5149 C   0  0  0  0  0  0  0  0  0  0  0  0
    2.5338   -7.6891   16.0102 C   0  0  0  0  0  0  0  0  0  0  0  0
    4.8690   -7.4380   26.4151 C   0  0  0  0  0  0  0  0  0  0  0  0
    2.3021   -5.6726   26.0378 C   0  0  0  0  0  0  0  0  0  0  0  0
    7.0880   -4.6163   27.0010 C   0  0  0  0  0  0  0  0  0  0  0  0
    8.3117   -4.3698   27.4436 C   0  0  0  0  0  0  0  0  0  0  0  0
    1.1339   -5.0515   26.3541 C   0  0  0  0  0  0  0  0  0  0  0  0
    4.8080   -8.0362   16.7101 C   0  0  0  0  0  0  0  0  0  0  0  0
   -1.2173   -3.9294   26.9717 O   0  0  0  0  0  0  0  0  0  0  0  0
   -1.0025   -5.0942   27.4586 C   0  0  0  0  0  0  0  0  0  0  0  0
    2.2474   -8.9123   16.6273 C   0  0  0  0  0  0  0  0  0  0  0  0
    4.4957   -9.2636   17.3041 C   0  0  0  0  0  0  0  0  0  0  0  0
   -1.8070   -5.6086   28.1920 O   0  0  0  0  0  0  0  0  0  0  0  0
   10.4296   -5.1799   28.3140 C   0  0  0  0  0  0  0  0  0  0  0  0
    6.6017   -5.9004   26.9187 C   0  0  0  0  0  0  0  0  0  0  0  0
    2.4761   -6.9940   26.4111 N   0  0  0  0  0  0  0  0  0  0  0  0
    9.1353   -5.4053   27.8239 C   0  0  0  0  0  0  0  0  0  0  0  0
    0.9922   -9.3232   16.5995 O   0  0  0  0  0  0  0  0  0  0  0  0
    1.5232   -7.6869   27.1182 C   0  0  0  0  0  0  0  0  0  0  0  0
    8.6878   -6.6715   27.7262 N   0  0  0  0  0  0  0  0  0  0  0  0
    6.9911   -8.2423   27.1808 C   0  0  0  0  0  0  0  0  0  0  0  0
    3.8436   -7.2758   16.0578 C   0  0  0  0  0  0  0  0  0  0  0  0
    3.1882   -9.7190   17.2566 C   0  0  0  0  0  0  0  0  0  0  0  0
    5.3488   -6.1737   26.5092 C   0  0  0  0  0  0  0  0  0  0  0  0
    7.4567   -6.9464   27.2858 C   0  0  0  0  0  0  0  0  0  0  0  0
    0.1921   -5.7592   27.1123 C   0  0  0  0  0  0  0  0  0  0  0  0
    3.5517   -7.7407   25.9711 C   0  0  0  0  0  0  0  0  0  0  0  0
  1  4  4  0
  1 22  4  0
  2 20  4  0
  2 27  4  0
  3 12  4  0
  3 23  4  0
  4 25  4  0
  4 28  1  0
  5  8  4  0
  5 17  4  0
  6  7  4  0
  6 16  4  0
  7 18  4  0
  8 27  4  0
  9 13  4  0
  9 23  4  0
 10 11  1  0
 11 14  2  0
 11 27  1  0
 12 19  1  0
 12 24  4  0
 13 24  4  0
 15 18  1  0
 16 25  4  0
 16 26  4  0
 17 20  4  0
 17 28  1  0
 18 21  4  0
 21 26  4  0
 22 26  4  0
M  END
$$$$

 Created by Python create_sdf_string function

 28 30  0  0  0  0  0  0  0  0999 V2000
    5.7174   -8.4529   26.7190 C   0  0  0  0  0  0  0  0  0  0  0  0
    0.3974   -7.0711   27.5149 C   0  0  0  0  0  0  0  0  0  0  0  0
    2.5338   -7.6891   16.0102 C   0  0  0  0  0  0  0  0  0  0  0  0
    4.8690   -7.4380   26.4151 C   0  0  0  0  0  0  0  0  0  0  0  0
    2.3021   -5.6726   26.0378 C   0  0  0  0  0  0  0  0  0  0  0  0
    7.0880   -4.6163   27.0010 C   0  0  0  0  0  0  0  0  0  0  0  0
    8.3117   -4.3698   27.4436 C   0  0  0  0  0  0  0  0  0  0  0  0
    1.1339   -5.0515   26.3541 C   0  0  0  0  0  0  0  0  0  0  0  0
    4.8080   -8.0362   16.7101 C   0  0  0  0  0  0  0  0  0  0  0  0
   -1.2173   -3.9294   26.9717 O   0  0  0  0  0  0  0  0  0  0  0  0
   -1.0025   -5.0942   27.4586 C   0  0  0  0  0  0  0  0  0  0  0  0
    2.2474   -8.9123   16.6273 C   0  0  0  0  0  0  0  0  0  0  0  0
    4.4957   -9.2636   17.3041 C   0  0  0  0  0  0  0  0  0  0  0  0
   -1.8070   -5.6086   28.1920 O   0  0  0  0  0  0  0  0  0  0  0  0
   10.4296   -5.1799   28.3140 C   0  0  0  0  0  0  0  0  0  0  0  0
    6.6017   -5.9004   26.9187 C   0  0  0  0  0  0  0  0  0  0  0  0
    2.4761   -6.9940   26.4111 N   0  0  0  0  0  0  0  0  0  0  0  0
    9.1353   -5.4053   27.8239 C   0  0  0  0  0  0  0  0  0  0  0  0
    0.9922   -9.3232   16.5995 O   0  0  0  0  0  0  0  0  0  0  0  0
    1.5232   -7.6869   27.1182 C   0  0  0  0  0  0  0  0  0  0  0  0
    8.6878   -6.6715   27.7262 N   0  0  0  0  0  0  0  0  0  0  0  0
    6.9911   -8.2423   27.1808 C   0  0  0  0  0  0  0  0  0  0  0  0
    3.8436   -7.2758   16.0578 C   0  0  0  0  0  0  0  0  0  0  0  0
    3.1882   -9.7190   17.2566 C   0  0  0  0  0  0  0  0  0  0  0  0
    5.3488   -6.1737   26.5092 C   0  0  0  0  0  0  0  0  0  0  0  0
    7.4567   -6.9464   27.2858 C   0  0  0  0  0  0  0  0  0  0  0  0
    0.1921   -5.7592   27.1123 C   0  0  0  0  0  0  0  0  0  0  0  0
    3.5517   -7.7407   25.9711 C   0  0  0  0  0  0  0  0  0  0  0  0
  1  4  4  0
  1 22  4  0
  2 20  4  0
  2 27  4  0
  3 12  4  0
  3 23  4  0
  4 25  4  0
  4 28  1  0
  5  8  4  0
  5 17  4  0
  6  7  4  0
  6 16  4  0
  7 18  4  0
  8 27  4  0
  9 13  4  0
  9 23  4  0
 10 11  1  0
 11 14  2  0
 11 27  1  0
 12 19  1  0
 12 24  4  0
 13 24  4  0
 15 18  1  0
 16 25  4  0
 16 26  4  0
 17 20  4  0
 17 28  1  0
 18 21  4  0
 21 26  4  0
 22 26  4  0
M  END
$$$$

 Created by Python create_sdf_string function

 28 30  0  0  0  0  0  0  0  0999 V2000
    5.7174   -8.4529   26.7190 C   0  0  0  0  0  0  0  0  0  0  0  0
    0.3974   -7.0711   27.5149 C   0  0  0  0  0  0  0  0  0  0  0  0
    2.5338   -7.6891   16.0102 C   0  0  0  0  0  0  0  0  0  0  0  0
    4.8690   -7.4380   26.4151 C   0  0  0  0  0  0  0  0  0  0  0  0
    2.3021   -5.6726   26.0378 C   0  0  0  0  0  0  0  0  0  0  0  0
    7.0880   -4.6163   27.0010 C   0  0  0  0  0  0  0  0  0  0  0  0
    8.3117   -4.3698   27.4436 C   0  0  0  0  0  0  0  0  0  0  0  0
    1.1339   -5.0515   26.3541 C   0  0  0  0  0  0  0  0  0  0  0  0
    4.8080   -8.0362   16.7101 C   0  0  0  0  0  0  0  0  0  0  0  0
   -1.2173   -3.9294   26.9717 O   0  0  0  0  0  0  0  0  0  0  0  0
   -1.0025   -5.0942   27.4586 C   0  0  0  0  0  0  0  0  0  0  0  0
    2.2474   -8.9123   16.6273 C   0  0  0  0  0  0  0  0  0  0  0  0
    4.4957   -9.2636   17.3041 C   0  0  0  0  0  0  0  0  0  0  0  0
   -1.8070   -5.6086   28.1920 O   0  0  0  0  0  0  0  0  0  0  0  0
   10.4296   -5.1799   28.3140 C   0  0  0  0  0  0  0  0  0  0  0  0
    6.6017   -5.9004   26.9187 C   0  0  0  0  0  0  0  0  0  0  0  0
    2.4761   -6.9940   26.4111 N   0  0  0  0  0  0  0  0  0  0  0  0
    9.1353   -5.4053   27.8239 C   0  0  0  0  0  0  0  0  0  0  0  0
    0.9922   -9.3232   16.5995 O   0  0  0  0  0  0  0  0  0  0  0  0
    1.5232   -7.6869   27.1182 C   0  0  0  0  0  0  0  0  0  0  0  0
    8.6878   -6.6715   27.7262 N   0  0  0  0  0  0  0  0  0  0  0  0
    6.9911   -8.2423   27.1808 C   0  0  0  0  0  0  0  0  0  0  0  0
    3.8436   -7.2758   16.0578 C   0  0  0  0  0  0  0  0  0  0  0  0
    3.1882   -9.7190   17.2566 C   0  0  0  0  0  0  0  0  0  0  0  0
    5.3488   -6.1737   26.5092 C   0  0  0  0  0  0  0  0  0  0  0  0
    7.4567   -6.9464   27.2858 C   0  0  0  0  0  0  0  0  0  0  0  0
    0.1921   -5.7592   27.1123 C   0  0  0  0  0  0  0  0  0  0  0  0
    3.5517   -7.7407   25.9711 C   0  0  0  0  0  0  0  0  0  0  0  0
  1  4  4  0
  1 22  4  0
  2 20  4  0
  2 27  4  0
  3 12  4  0
  3 23  4  0
  4 25  4  0
  4 28  1  0
  5  8  4  0
  5 17  4  0
  6  7  4  0
  6 16  4  0
  7 18  4  0
  8 27  4  0
  9 13  4  0
  9 23  4  0
 10 11  1  0
 11 14  2  0
 11 27  1  0
 12 19  1  0
 12 24  4  0
 13 24  4  0
 15 18  1  0
 16 25  4  0
 16 26  4  0
 17 20  4  0
 17 28  1  0
 18 21  4  0
 21 26  4  0
 22 26  4  0
M  END
$$$$

 Created by Python create_sdf_string function

 28 30  0  0  0  0  0  0  0  0999 V2000
    5.7174   -8.4529   26.7190 C   0  0  0  0  0  0  0  0  0  0  0  0
    0.3974   -7.0711   27.5149 C   0  0  0  0  0  0  0  0  0  0  0  0
    2.5338   -7.6891   16.0102 C   0  0  0  0  0  0  0  0  0  0  0  0
    4.8690   -7.4380   26.4151 C   0  0  0  0  0  0  0  0  0  0  0  0
    2.3021   -5.6726   26.0378 C   0  0  0  0  0  0  0  0  0  0  0  0
    7.0880   -4.6163   27.0010 C   0  0  0  0  0  0  0  0  0  0  0  0
    8.3117   -4.3698   27.4436 C   0  0  0  0  0  0  0  0  0  0  0  0
    1.1339   -5.0515   26.3541 C   0  0  0  0  0  0  0  0  0  0  0  0
    4.8080   -8.0362   16.7101 C   0  0  0  0  0  0  0  0  0  0  0  0
   -1.2173   -3.9294   26.9717 O   0  0  0  0  0  0  0  0  0  0  0  0
   -1.0025   -5.0942   27.4586 C   0  0  0  0  0  0  0  0  0  0  0  0
    2.2474   -8.9123   16.6273 C   0  0  0  0  0  0  0  0  0  0  0  0
    4.4957   -9.2636   17.3041 C   0  0  0  0  0  0  0  0  0  0  0  0
   -1.8070   -5.6086   28.1920 O   0  0  0  0  0  0  0  0  0  0  0  0
   10.4296   -5.1799   28.3140 C   0  0  0  0  0  0  0  0  0  0  0  0
    6.6017   -5.9004   26.9187 C   0  0  0  0  0  0  0  0  0  0  0  0
    2.4761   -6.9940   26.4111 N   0  0  0  0  0  0  0  0  0  0  0  0
    9.1353   -5.4053   27.8239 C   0  0  0  0  0  0  0  0  0  0  0  0
    0.9922   -9.3232   16.5995 O   0  0  0  0  0  0  0  0  0  0  0  0
    1.5232   -7.6869   27.1182 C   0  0  0  0  0  0  0  0  0  0  0  0
    8.6878   -6.6715   27.7262 N   0  0  0  0  0  0  0  0  0  0  0  0
    6.9911   -8.2423   27.1808 C   0  0  0  0  0  0  0  0  0  0  0  0
    3.8436   -7.2758   16.0578 C   0  0  0  0  0  0  0  0  0  0  0  0
    3.1882   -9.7190   17.2566 C   0  0  0  0  0  0  0  0  0  0  0  0
    5.3488   -6.1737   26.5092 C   0  0  0  0  0  0  0  0  0  0  0  0
    7.4567   -6.9464   27.2858 C   0  0  0  0  0  0  0  0  0  0  0  0
    0.1921   -5.7592   27.1123 C   0  0  0  0  0  0  0  0  0  0  0  0
    3.5517   -7.7407   25.9711 C   0  0  0  0  0  0  0  0  0  0  0  0
  1  4  4  0
  1 22  4  0
  2 20  4  0
  2 27  4  0
  3 12  4  0
  3 23  4  0
  4 25  4  0
  4 28  1  0
  5  8  4  0
  5 17  4  0
  6  7  4  0
  6 16  4  0
  7 18  4  0
  8 27  4  0
  9 13  4  0
  9 23  4  0
 10 11  1  0
 11 14  2  0
 11 27  1  0
 12 19  1  0
 12 24  4  0
 13 24  4  0
 15 18  1  0
 16 25  4  0
 16 26  4  0
 17 20  4  0
 17 28  1  0
 18 21  4  0
 21 26  4  0
 22 26  4  0
M  END
$$$$

 Created by Python create_sdf_string function

 28 30  0  0  0  0  0  0  0  0999 V2000
    5.7174   -8.4529   26.7190 C   0  0  0  0  0  0  0  0  0  0  0  0
    0.3974   -7.0711   27.5149 C   0  0  0  0  0  0  0  0  0  0  0  0
    2.5338   -7.6891   16.0102 C   0  0  0  0  0  0  0  0  0  0  0  0
    4.8690   -7.4380   26.4151 C   0  0  0  0  0  0  0  0  0  0  0  0
    2.3021   -5.6726   26.0378 C   0  0  0  0  0  0  0  0  0  0  0  0
    7.0880   -4.6163   27.0010 C   0  0  0  0  0  0  0  0  0  0  0  0
    8.3117   -4.3698   27.4436 C   0  0  0  0  0  0  0  0  0  0  0  0
    1.1339   -5.0515   26.3541 C   0  0  0  0  0  0  0  0  0  0  0  0
    4.8080   -8.0362   16.7101 C   0  0  0  0  0  0  0  0  0  0  0  0
   -1.2173   -3.9294   26.9717 O   0  0  0  0  0  0  0  0  0  0  0  0
   -1.0025   -5.0942   27.4586 C   0  0  0  0  0  0  0  0  0  0  0  0
    2.2474   -8.9123   16.6273 C   0  0  0  0  0  0  0  0  0  0  0  0
    4.4957   -9.2636   17.3041 C   0  0  0  0  0  0  0  0  0  0  0  0
   -1.8070   -5.6086   28.1920 O   0  0  0  0  0  0  0  0  0  0  0  0
   10.4296   -5.1799   28.3140 C   0  0  0  0  0  0  0  0  0  0  0  0
    6.6017   -5.9004   26.9187 C   0  0  0  0  0  0  0  0  0  0  0  0
    2.4761   -6.9940   26.4111 N   0  0  0  0  0  0  0  0  0  0  0  0
    9.1353   -5.4053   27.8239 C   0  0  0  0  0  0  0  0  0  0  0  0
    0.9922   -9.3232   16.5995 O   0  0  0  0  0  0  0  0  0  0  0  0
    1.5232   -7.6869   27.1182 C   0  0  0  0  0  0  0  0  0  0  0  0
    8.6878   -6.6715   27.7262 N   0  0  0  0  0  0  0  0  0  0  0  0
    6.9911   -8.2423   27.1808 C   0  0  0  0  0  0  0  0  0  0  0  0
    3.8436   -7.2758   16.0578 C   0  0  0  0  0  0  0  0  0  0  0  0
    3.1882   -9.7190   17.2566 C   0  0  0  0  0  0  0  0  0  0  0  0
    5.3488   -6.1737   26.5092 C   0  0  0  0  0  0  0  0  0  0  0  0
    7.4567   -6.9464   27.2858 C   0  0  0  0  0  0  0  0  0  0  0  0
    0.1921   -5.7592   27.1123 C   0  0  0  0  0  0  0  0  0  0  0  0
    3.5517   -7.7407   25.9711 C   0  0  0  0  0  0  0  0  0  0  0  0
  1  4  4  0
  1 22  4  0
  2 20  4  0
  2 27  4  0
  3 12  4  0
  3 23  4  0
  4 25  4  0
  4 28  1  0
  5  8  4  0
  5 17  4  0
  6  7  4  0
  6 16  4  0
  7 18  4  0
  8 27  4  0
  9 13  4  0
  9 23  4  0
 10 11  1  0
 11 14  2  0
 11 27  1  0
 12 19  1  0
 12 24  4  0
 13 24  4  0
 15 18  1  0
 16 25  4  0
 16 26  4  0
 17 20  4  0
 17 28  1  0
 18 21  4  0
 21 26  4  0
 22 26  4  0
M  END
$$$$

 Created by Python create_sdf_string function

 28 30  0  0  0  0  0  0  0  0999 V2000
    5.7174   -8.4529   26.7190 C   0  0  0  0  0  0  0  0  0  0  0  0
    0.3974   -7.0711   27.5149 C   0  0  0  0  0  0  0  0  0  0  0  0
    2.5338   -7.6891   16.0102 C   0  0  0  0  0  0  0  0  0  0  0  0
    4.8690   -7.4380   26.4151 C   0  0  0  0  0  0  0  0  0  0  0  0
    2.3021   -5.6726   26.0378 C   0  0  0  0  0  0  0  0  0  0  0  0
    7.0880   -4.6163   27.0010 C   0  0  0  0  0  0  0  0  0  0  0  0
    8.3117   -4.3698   27.4436 C   0  0  0  0  0  0  0  0  0  0  0  0
    1.1339   -5.0515   26.3541 C   0  0  0  0  0  0  0  0  0  0  0  0
    4.8080   -8.0362   16.7101 C   0  0  0  0  0  0  0  0  0  0  0  0
   -1.2173   -3.9294   26.9717 O   0  0  0  0  0  0  0  0  0  0  0  0
   -1.0025   -5.0942   27.4586 C   0  0  0  0  0  0  0  0  0  0  0  0
    2.2474   -8.9123   16.6273 C   0  0  0  0  0  0  0  0  0  0  0  0
    4.4957   -9.2636   17.3041 C   0  0  0  0  0  0  0  0  0  0  0  0
   -1.8070   -5.6086   28.1920 O   0  0  0  0  0  0  0  0  0  0  0  0
   10.4296   -5.1799   28.3140 C   0  0  0  0  0  0  0  0  0  0  0  0
    6.6017   -5.9004   26.9187 C   0  0  0  0  0  0  0  0  0  0  0  0
    2.4761   -6.9940   26.4111 N   0  0  0  0  0  0  0  0  0  0  0  0
    9.1353   -5.4053   27.8239 C   0  0  0  0  0  0  0  0  0  0  0  0
    0.9922   -9.3232   16.5995 O   0  0  0  0  0  0  0  0  0  0  0  0
    1.5232   -7.6869   27.1182 C   0  0  0  0  0  0  0  0  0  0  0  0
    8.6878   -6.6715   27.7262 N   0  0  0  0  0  0  0  0  0  0  0  0
    6.9911   -8.2423   27.1808 C   0  0  0  0  0  0  0  0  0  0  0  0
    3.8436   -7.2758   16.0578 C   0  0  0  0  0  0  0  0  0  0  0  0
    3.1882   -9.7190   17.2566 C   0  0  0  0  0  0  0  0  0  0  0  0
    5.3488   -6.1737   26.5092 C   0  0  0  0  0  0  0  0  0  0  0  0
    7.4567   -6.9464   27.2858 C   0  0  0  0  0  0  0  0  0  0  0  0
    0.1921   -5.7592   27.1123 C   0  0  0  0  0  0  0  0  0  0  0  0
    3.5517   -7.7407   25.9711 C   0  0  0  0  0  0  0  0  0  0  0  0
  1  4  4  0
  1 22  4  0
  2 20  4  0
  2 27  4  0
  3 12  4  0
  3 23  4  0
  4 25  4  0
  4 28  1  0
  5  8  4  0
  5 17  4  0
  6  7  4  0
  6 16  4  0
  7 18  4  0
  8 27  4  0
  9 13  4  0
  9 23  4  0
 10 11  1  0
 11 14  2  0
 11 27  1  0
 12 19  1  0
 12 24  4  0
 13 24  4  0
 15 18  1  0
 16 25  4  0
 16 26  4  0
 17 20  4  0
 17 28  1  0
 18 21  4  0
 21 26  4  0
 22 26  4  0
M  END
$$$$

 Created by Python create_sdf_string function

 28 30  0  0  0  0  0  0  0  0999 V2000
    5.7174   -8.4529   26.7190 C   0  0  0  0  0  0  0  0  0  0  0  0
    0.3974   -7.0711   27.5149 C   0  0  0  0  0  0  0  0  0  0  0  0
    2.5338   -7.6891   16.0102 C   0  0  0  0  0  0  0  0  0  0  0  0
    4.8690   -7.4380   26.4151 C   0  0  0  0  0  0  0  0  0  0  0  0
    2.3021   -5.6726   26.0378 C   0  0  0  0  0  0  0  0  0  0  0  0
    7.0880   -4.6163   27.0010 C   0  0  0  0  0  0  0  0  0  0  0  0
    8.3117   -4.3698   27.4436 C   0  0  0  0  0  0  0  0  0  0  0  0
    1.1339   -5.0515   26.3541 C   0  0  0  0  0  0  0  0  0  0  0  0
    4.8080   -8.0362   16.7101 C   0  0  0  0  0  0  0  0  0  0  0  0
   -1.2173   -3.9294   26.9717 O   0  0  0  0  0  0  0  0  0  0  0  0
   -1.0025   -5.0942   27.4586 C   0  0  0  0  0  0  0  0  0  0  0  0
    2.2474   -8.9123   16.6273 C   0  0  0  0  0  0  0  0  0  0  0  0
    4.4957   -9.2636   17.3041 C   0  0  0  0  0  0  0  0  0  0  0  0
   -1.8070   -5.6086   28.1920 O   0  0  0  0  0  0  0  0  0  0  0  0
   10.4296   -5.1799   28.3140 C   0  0  0  0  0  0  0  0  0  0  0  0
    6.6017   -5.9004   26.9187 C   0  0  0  0  0  0  0  0  0  0  0  0
    2.4761   -6.9940   26.4111 N   0  0  0  0  0  0  0  0  0  0  0  0
    9.1353   -5.4053   27.8239 C   0  0  0  0  0  0  0  0  0  0  0  0
    0.9922   -9.3232   16.5995 O   0  0  0  0  0  0  0  0  0  0  0  0
    1.5232   -7.6869   27.1182 C   0  0  0  0  0  0  0  0  0  0  0  0
    8.6878   -6.6715   27.7262 N   0  0  0  0  0  0  0  0  0  0  0  0
    6.9911   -8.2423   27.1808 C   0  0  0  0  0  0  0  0  0  0  0  0
    3.8436   -7.2758   16.0578 C   0  0  0  0  0  0  0  0  0  0  0  0
    3.1882   -9.7190   17.2566 C   0  0  0  0  0  0  0  0  0  0  0  0
    5.3488   -6.1737   26.5092 C   0  0  0  0  0  0  0  0  0  0  0  0
    7.4567   -6.9464   27.2858 C   0  0  0  0  0  0  0  0  0  0  0  0
    0.1921   -5.7592   27.1123 C   0  0  0  0  0  0  0  0  0  0  0  0
    3.5517   -7.7407   25.9711 C   0  0  0  0  0  0  0  0  0  0  0  0
  1  4  4  0
  1 22  4  0
  2 20  4  0
  2 27  4  0
  3 12  4  0
  3 23  4  0
  4 25  4  0
  4 28  1  0
  5  8  4  0
  5 17  4  0
  6  7  4  0
  6 16  4  0
  7 18  4  0
  8 27  4  0
  9 13  4  0
  9 23  4  0
 10 11  1  0
 11 14  2  0
 11 27  1  0
 12 19  1  0
 12 24  4  0
 13 24  4  0
 15 18  1  0
 16 25  4  0
 16 26  4  0
 17 20  4  0
 17 28  1  0
 18 21  4  0
 21 26  4  0
 22 26  4  0
M  END
$$$$

 Created by Python create_sdf_string function

 28 30  0  0  0  0  0  0  0  0999 V2000
    5.7174   -8.4529   26.7190 C   0  0  0  0  0  0  0  0  0  0  0  0
    0.3974   -7.0711   27.5149 C   0  0  0  0  0  0  0  0  0  0  0  0
    2.5338   -7.6891   16.0102 C   0  0  0  0  0  0  0  0  0  0  0  0
    4.8690   -7.4380   26.4151 C   0  0  0  0  0  0  0  0  0  0  0  0
    2.3021   -5.6726   26.0378 C   0  0  0  0  0  0  0  0  0  0  0  0
    7.0880   -4.6163   27.0010 C   0  0  0  0  0  0  0  0  0  0  0  0
    8.3117   -4.3698   27.4436 C   0  0  0  0  0  0  0  0  0  0  0  0
    1.1339   -5.0515   26.3541 C   0  0  0  0  0  0  0  0  0  0  0  0
    4.8080   -8.0362   16.7101 C   0  0  0  0  0  0  0  0  0  0  0  0
   -1.2173   -3.9294   26.9717 O   0  0  0  0  0  0  0  0  0  0  0  0
   -1.0025   -5.0942   27.4586 C   0  0  0  0  0  0  0  0  0  0  0  0
    2.2474   -8.9123   16.6273 C   0  0  0  0  0  0  0  0  0  0  0  0
    4.4957   -9.2636   17.3041 C   0  0  0  0  0  0  0  0  0  0  0  0
   -1.8070   -5.6086   28.1920 O   0  0  0  0  0  0  0  0  0  0  0  0
   10.4296   -5.1799   28.3140 C   0  0  0  0  0  0  0  0  0  0  0  0
    6.6017   -5.9004   26.9187 C   0  0  0  0  0  0  0  0  0  0  0  0
    2.4761   -6.9940   26.4111 N   0  0  0  0  0  0  0  0  0  0  0  0
    9.1353   -5.4053   27.8239 C   0  0  0  0  0  0  0  0  0  0  0  0
    0.9922   -9.3232   16.5995 O   0  0  0  0  0  0  0  0  0  0  0  0
    1.5232   -7.6869   27.1182 C   0  0  0  0  0  0  0  0  0  0  0  0
    8.6878   -6.6715   27.7262 N   0  0  0  0  0  0  0  0  0  0  0  0
    6.9911   -8.2423   27.1808 C   0  0  0  0  0  0  0  0  0  0  0  0
    3.8436   -7.2758   16.0578 C   0  0  0  0  0  0  0  0  0  0  0  0
    3.1882   -9.7190   17.2566 C   0  0  0  0  0  0  0  0  0  0  0  0
    5.3488   -6.1737   26.5092 C   0  0  0  0  0  0  0  0  0  0  0  0
    7.4567   -6.9464   27.2858 C   0  0  0  0  0  0  0  0  0  0  0  0
    0.1921   -5.7592   27.1123 C   0  0  0  0  0  0  0  0  0  0  0  0
    3.5517   -7.7407   25.9711 C   0  0  0  0  0  0  0  0  0  0  0  0
  1  4  4  0
  1 22  4  0
  2 20  4  0
  2 27  4  0
  3 12  4  0
  3 23  4  0
  4 25  4  0
  4 28  1  0
  5  8  4  0
  5 17  4  0
  6  7  4  0
  6 16  4  0
  7 18  4  0
  8 27  4  0
  9 13  4  0
  9 23  4  0
 10 11  1  0
 11 14  2  0
 11 27  1  0
 12 19  1  0
 12 24  4  0
 13 24  4  0
 15 18  1  0
 16 25  4  0
 16 26  4  0
 17 20  4  0
 17 28  1  0
 18 21  4  0
 21 26  4  0
 22 26  4  0
M  END
$$$$

 Created by Python create_sdf_string function

 28 30  0  0  0  0  0  0  0  0999 V2000
    5.7174   -8.4529   26.7190 C   0  0  0  0  0  0  0  0  0  0  0  0
    0.3974   -7.0711   27.5149 C   0  0  0  0  0  0  0  0  0  0  0  0
    2.5338   -7.6891   16.0102 C   0  0  0  0  0  0  0  0  0  0  0  0
    4.8690   -7.4380   26.4151 C   0  0  0  0  0  0  0  0  0  0  0  0
    2.3021   -5.6726   26.0378 C   0  0  0  0  0  0  0  0  0  0  0  0
    7.0880   -4.6163   27.0010 C   0  0  0  0  0  0  0  0  0  0  0  0
    8.3117   -4.3698   27.4436 C   0  0  0  0  0  0  0  0  0  0  0  0
    1.1339   -5.0515   26.3541 C   0  0  0  0  0  0  0  0  0  0  0  0
    4.8080   -8.0362   16.7101 C   0  0  0  0  0  0  0  0  0  0  0  0
   -1.2173   -3.9294   26.9717 O   0  0  0  0  0  0  0  0  0  0  0  0
   -1.0025   -5.0942   27.4586 C   0  0  0  0  0  0  0  0  0  0  0  0
    2.2474   -8.9123   16.6273 C   0  0  0  0  0  0  0  0  0  0  0  0
    4.4957   -9.2636   17.3041 C   0  0  0  0  0  0  0  0  0  0  0  0
   -1.8070   -5.6086   28.1920 O   0  0  0  0  0  0  0  0  0  0  0  0
   10.4296   -5.1799   28.3140 C   0  0  0  0  0  0  0  0  0  0  0  0
    6.6017   -5.9004   26.9187 C   0  0  0  0  0  0  0  0  0  0  0  0
    2.4761   -6.9940   26.4111 N   0  0  0  0  0  0  0  0  0  0  0  0
    9.1353   -5.4053   27.8239 C   0  0  0  0  0  0  0  0  0  0  0  0
    0.9922   -9.3232   16.5995 O   0  0  0  0  0  0  0  0  0  0  0  0
    1.5232   -7.6869   27.1182 C   0  0  0  0  0  0  0  0  0  0  0  0
    8.6878   -6.6715   27.7262 N   0  0  0  0  0  0  0  0  0  0  0  0
    6.9911   -8.2423   27.1808 C   0  0  0  0  0  0  0  0  0  0  0  0
    3.8436   -7.2758   16.0578 C   0  0  0  0  0  0  0  0  0  0  0  0
    3.1882   -9.7190   17.2566 C   0  0  0  0  0  0  0  0  0  0  0  0
    5.3488   -6.1737   26.5092 C   0  0  0  0  0  0  0  0  0  0  0  0
    7.4567   -6.9464   27.2858 C   0  0  0  0  0  0  0  0  0  0  0  0
    0.1921   -5.7592   27.1123 C   0  0  0  0  0  0  0  0  0  0  0  0
    3.5517   -7.7407   25.9711 C   0  0  0  0  0  0  0  0  0  0  0  0
  1  4  4  0
  1 22  4  0
  2 20  4  0
  2 27  4  0
  3 12  4  0
  3 23  4  0
  4 25  4  0
  4 28  1  0
  5  8  4  0
  5 17  4  0
  6  7  4  0
  6 16  4  0
  7 18  4  0
  8 27  4  0
  9 13  4  0
  9 23  4  0
 10 11  1  0
 11 14  2  0
 11 27  1  0
 12 19  1  0
 12 24  4  0
 13 24  4  0
 15 18  1  0
 16 25  4  0
 16 26  4  0
 17 20  4  0
 17 28  1  0
 18 21  4  0
 21 26  4  0
 22 26  4  0
M  END
$$$$

 Created by Python create_sdf_string function

 28 30  0  0  0  0  0  0  0  0999 V2000
    5.7174   -8.4529   26.7190 C   0  0  0  0  0  0  0  0  0  0  0  0
    0.3974   -7.0711   27.5149 C   0  0  0  0  0  0  0  0  0  0  0  0
    2.5338   -7.6891   16.0102 C   0  0  0  0  0  0  0  0  0  0  0  0
    4.8690   -7.4380   26.4151 C   0  0  0  0  0  0  0  0  0  0  0  0
    2.3021   -5.6726   26.0378 C   0  0  0  0  0  0  0  0  0  0  0  0
    7.0880   -4.6163   27.0010 C   0  0  0  0  0  0  0  0  0  0  0  0
    8.3117   -4.3698   27.4436 C   0  0  0  0  0  0  0  0  0  0  0  0
    1.1339   -5.0515   26.3541 C   0  0  0  0  0  0  0  0  0  0  0  0
    4.8080   -8.0362   16.7101 C   0  0  0  0  0  0  0  0  0  0  0  0
   -1.2173   -3.9294   26.9717 O   0  0  0  0  0  0  0  0  0  0  0  0
   -1.0025   -5.0942   27.4586 C   0  0  0  0  0  0  0  0  0  0  0  0
    2.2474   -8.9123   16.6273 C   0  0  0  0  0  0  0  0  0  0  0  0
    4.4957   -9.2636   17.3041 C   0  0  0  0  0  0  0  0  0  0  0  0
   -1.8070   -5.6086   28.1920 O   0  0  0  0  0  0  0  0  0  0  0  0
   10.4296   -5.1799   28.3140 C   0  0  0  0  0  0  0  0  0  0  0  0
    6.6017   -5.9004   26.9187 C   0  0  0  0  0  0  0  0  0  0  0  0
    2.4761   -6.9940   26.4111 N   0  0  0  0  0  0  0  0  0  0  0  0
    9.1353   -5.4053   27.8239 C   0  0  0  0  0  0  0  0  0  0  0  0
    0.9922   -9.3232   16.5995 O   0  0  0  0  0  0  0  0  0  0  0  0
    1.5232   -7.6869   27.1182 C   0  0  0  0  0  0  0  0  0  0  0  0
    8.6878   -6.6715   27.7262 N   0  0  0  0  0  0  0  0  0  0  0  0
    6.9911   -8.2423   27.1808 C   0  0  0  0  0  0  0  0  0  0  0  0
    3.8436   -7.2758   16.0578 C   0  0  0  0  0  0  0  0  0  0  0  0
    3.1882   -9.7190   17.2566 C   0  0  0  0  0  0  0  0  0  0  0  0
    5.3488   -6.1737   26.5092 C   0  0  0  0  0  0  0  0  0  0  0  0
    7.4567   -6.9464   27.2858 C   0  0  0  0  0  0  0  0  0  0  0  0
    0.1921   -5.7592   27.1123 C   0  0  0  0  0  0  0  0  0  0  0  0
    3.5517   -7.7407   25.9711 C   0  0  0  0  0  0  0  0  0  0  0  0
  1  4  4  0
  1 22  4  0
  2 20  4  0
  2 27  4  0
  3 12  4  0
  3 23  4  0
  4 25  4  0
  4 28  1  0
  5  8  4  0
  5 17  4  0
  6  7  4  0
  6 16  4  0
  7 18  4  0
  8 27  4  0
  9 13  4  0
  9 23  4  0
 10 11  1  0
 11 14  2  0
 11 27  1  0
 12 19  1  0
 12 24  4  0
 13 24  4  0
 15 18  1  0
 16 25  4  0
 16 26  4  0
 17 20  4  0
 17 28  1  0
 18 21  4  0
 21 26  4  0
 22 26  4  0
M  END
$$$$

 Created by Python create_sdf_string function

 28 30  0  0  0  0  0  0  0  0999 V2000
    5.7174   -8.4529   26.7190 C   0  0  0  0  0  0  0  0  0  0  0  0
    0.3974   -7.0711   27.5149 C   0  0  0  0  0  0  0  0  0  0  0  0
    2.5338   -7.6891   16.0102 C   0  0  0  0  0  0  0  0  0  0  0  0
    4.8690   -7.4380   26.4151 C   0  0  0  0  0  0  0  0  0  0  0  0
    2.3021   -5.6726   26.0378 C   0  0  0  0  0  0  0  0  0  0  0  0
    7.0880   -4.6163   27.0010 C   0  0  0  0  0  0  0  0  0  0  0  0
    8.3117   -4.3698   27.4436 C   0  0  0  0  0  0  0  0  0  0  0  0
    1.1339   -5.0515   26.3541 C   0  0  0  0  0  0  0  0  0  0  0  0
    4.8080   -8.0362   16.7101 C   0  0  0  0  0  0  0  0  0  0  0  0
   -1.2173   -3.9294   26.9717 O   0  0  0  0  0  0  0  0  0  0  0  0
   -1.0025   -5.0942   27.4586 C   0  0  0  0  0  0  0  0  0  0  0  0
    2.2474   -8.9123   16.6273 C   0  0  0  0  0  0  0  0  0  0  0  0
    4.4957   -9.2636   17.3041 C   0  0  0  0  0  0  0  0  0  0  0  0
   -1.8070   -5.6086   28.1920 O   0  0  0  0  0  0  0  0  0  0  0  0
   10.4296   -5.1799   28.3140 C   0  0  0  0  0  0  0  0  0  0  0  0
    6.6017   -5.9004   26.9187 C   0  0  0  0  0  0  0  0  0  0  0  0
    2.4761   -6.9940   26.4111 N   0  0  0  0  0  0  0  0  0  0  0  0
    9.1353   -5.4053   27.8239 C   0  0  0  0  0  0  0  0  0  0  0  0
    0.9922   -9.3232   16.5995 O   0  0  0  0  0  0  0  0  0  0  0  0
    1.5232   -7.6869   27.1182 C   0  0  0  0  0  0  0  0  0  0  0  0
    8.6878   -6.6715   27.7262 N   0  0  0  0  0  0  0  0  0  0  0  0
    6.9911   -8.2423   27.1808 C   0  0  0  0  0  0  0  0  0  0  0  0
    3.8436   -7.2758   16.0578 C   0  0  0  0  0  0  0  0  0  0  0  0
    3.1882   -9.7190   17.2566 C   0  0  0  0  0  0  0  0  0  0  0  0
    5.3488   -6.1737   26.5092 C   0  0  0  0  0  0  0  0  0  0  0  0
    7.4567   -6.9464   27.2858 C   0  0  0  0  0  0  0  0  0  0  0  0
    0.1921   -5.7592   27.1123 C   0  0  0  0  0  0  0  0  0  0  0  0
    3.5517   -7.7407   25.9711 C   0  0  0  0  0  0  0  0  0  0  0  0
  1  4  4  0
  1 22  4  0
  2 20  4  0
  2 27  4  0
  3 12  4  0
  3 23  4  0
  4 25  4  0
  4 28  1  0
  5  8  4  0
  5 17  4  0
  6  7  4  0
  6 16  4  0
  7 18  4  0
  8 27  4  0
  9 13  4  0
  9 23  4  0
 10 11  1  0
 11 14  2  0
 11 27  1  0
 12 19  1  0
 12 24  4  0
 13 24  4  0
 15 18  1  0
 16 25  4  0
 16 26  4  0
 17 20  4  0
 17 28  1  0
 18 21  4  0
 21 26  4  0
 22 26  4  0
M  END
$$$$

 Created by Python create_sdf_string function

 28 30  0  0  0  0  0  0  0  0999 V2000
    5.7174   -8.4529   26.7190 C   0  0  0  0  0  0  0  0  0  0  0  0
    0.3974   -7.0711   27.5149 C   0  0  0  0  0  0  0  0  0  0  0  0
    2.5338   -7.6891   16.0102 C   0  0  0  0  0  0  0  0  0  0  0  0
    4.8690   -7.4380   26.4151 C   0  0  0  0  0  0  0  0  0  0  0  0
    2.3021   -5.6726   26.0378 C   0  0  0  0  0  0  0  0  0  0  0  0
    7.0880   -4.6163   27.0010 C   0  0  0  0  0  0  0  0  0  0  0  0
    8.3117   -4.3698   27.4436 C   0  0  0  0  0  0  0  0  0  0  0  0
    1.1339   -5.0515   26.3541 C   0  0  0  0  0  0  0  0  0  0  0  0
    4.8080   -8.0362   16.7101 C   0  0  0  0  0  0  0  0  0  0  0  0
   -1.2173   -3.9294   26.9717 O   0  0  0  0  0  0  0  0  0  0  0  0
   -1.0025   -5.0942   27.4586 C   0  0  0  0  0  0  0  0  0  0  0  0
    2.2474   -8.9123   16.6273 C   0  0  0  0  0  0  0  0  0  0  0  0
    4.4957   -9.2636   17.3041 C   0  0  0  0  0  0  0  0  0  0  0  0
   -1.8070   -5.6086   28.1920 O   0  0  0  0  0  0  0  0  0  0  0  0
   10.4296   -5.1799   28.3140 C   0  0  0  0  0  0  0  0  0  0  0  0
    6.6017   -5.9004   26.9187 C   0  0  0  0  0  0  0  0  0  0  0  0
    2.4761   -6.9940   26.4111 N   0  0  0  0  0  0  0  0  0  0  0  0
    9.1353   -5.4053   27.8239 C   0  0  0  0  0  0  0  0  0  0  0  0
    0.9922   -9.3232   16.5995 O   0  0  0  0  0  0  0  0  0  0  0  0
    1.5232   -7.6869   27.1182 C   0  0  0  0  0  0  0  0  0  0  0  0
    8.6878   -6.6715   27.7262 N   0  0  0  0  0  0  0  0  0  0  0  0
    6.9911   -8.2423   27.1808 C   0  0  0  0  0  0  0  0  0  0  0  0
    3.8436   -7.2758   16.0578 C   0  0  0  0  0  0  0  0  0  0  0  0
    3.1882   -9.7190   17.2566 C   0  0  0  0  0  0  0  0  0  0  0  0
    5.3488   -6.1737   26.5092 C   0  0  0  0  0  0  0  0  0  0  0  0
    7.4567   -6.9464   27.2858 C   0  0  0  0  0  0  0  0  0  0  0  0
    0.1921   -5.7592   27.1123 C   0  0  0  0  0  0  0  0  0  0  0  0
    3.5517   -7.7407   25.9711 C   0  0  0  0  0  0  0  0  0  0  0  0
  1  4  4  0
  1 22  4  0
  2 20  4  0
  2 27  4  0
  3 12  4  0
  3 23  4  0
  4 25  4  0
  4 28  1  0
  5  8  4  0
  5 17  4  0
  6  7  4  0
  6 16  4  0
  7 18  4  0
  8 27  4  0
  9 13  4  0
  9 23  4  0
 10 11  1  0
 11 14  2  0
 11 27  1  0
 12 19  1  0
 12 24  4  0
 13 24  4  0
 15 18  1  0
 16 25  4  0
 16 26  4  0
 17 20  4  0
 17 28  1  0
 18 21  4  0
 21 26  4  0
 22 26  4  0
M  END
$$$$

 Created by Python create_sdf_string function

 28 30  0  0  0  0  0  0  0  0999 V2000
    5.7174   -8.4529   26.7190 C   0  0  0  0  0  0  0  0  0  0  0  0
    0.3974   -7.0711   27.5149 C   0  0  0  0  0  0  0  0  0  0  0  0
    2.5338   -7.6891   16.0102 C   0  0  0  0  0  0  0  0  0  0  0  0
    4.8690   -7.4380   26.4151 C   0  0  0  0  0  0  0  0  0  0  0  0
    2.3021   -5.6726   26.0378 C   0  0  0  0  0  0  0  0  0  0  0  0
    7.0880   -4.6163   27.0010 C   0  0  0  0  0  0  0  0  0  0  0  0
    8.3117   -4.3698   27.4436 C   0  0  0  0  0  0  0  0  0  0  0  0
    1.1339   -5.0515   26.3541 C   0  0  0  0  0  0  0  0  0  0  0  0
    4.8080   -8.0362   16.7101 C   0  0  0  0  0  0  0  0  0  0  0  0
   -1.2173   -3.9294   26.9717 O   0  0  0  0  0  0  0  0  0  0  0  0
   -1.0025   -5.0942   27.4586 C   0  0  0  0  0  0  0  0  0  0  0  0
    2.2474   -8.9123   16.6273 C   0  0  0  0  0  0  0  0  0  0  0  0
    4.4957   -9.2636   17.3041 C   0  0  0  0  0  0  0  0  0  0  0  0
   -1.8070   -5.6086   28.1920 O   0  0  0  0  0  0  0  0  0  0  0  0
   10.4296   -5.1799   28.3140 C   0  0  0  0  0  0  0  0  0  0  0  0
    6.6017   -5.9004   26.9187 C   0  0  0  0  0  0  0  0  0  0  0  0
    2.4761   -6.9940   26.4111 N   0  0  0  0  0  0  0  0  0  0  0  0
    9.1353   -5.4053   27.8239 C   0  0  0  0  0  0  0  0  0  0  0  0
    0.9922   -9.3232   16.5995 O   0  0  0  0  0  0  0  0  0  0  0  0
    1.5232   -7.6869   27.1182 C   0  0  0  0  0  0  0  0  0  0  0  0
    8.6878   -6.6715   27.7262 N   0  0  0  0  0  0  0  0  0  0  0  0
    6.9911   -8.2423   27.1808 C   0  0  0  0  0  0  0  0  0  0  0  0
    3.8436   -7.2758   16.0578 C   0  0  0  0  0  0  0  0  0  0  0  0
    3.1882   -9.7190   17.2566 C   0  0  0  0  0  0  0  0  0  0  0  0
    5.3488   -6.1737   26.5092 C   0  0  0  0  0  0  0  0  0  0  0  0
    7.4567   -6.9464   27.2858 C   0  0  0  0  0  0  0  0  0  0  0  0
    0.1921   -5.7592   27.1123 C   0  0  0  0  0  0  0  0  0  0  0  0
    3.5517   -7.7407   25.9711 C   0  0  0  0  0  0  0  0  0  0  0  0
  1  4  4  0
  1 22  4  0
  2 20  4  0
  2 27  4  0
  3 12  4  0
  3 23  4  0
  4 25  4  0
  4 28  1  0
  5  8  4  0
  5 17  4  0
  6  7  4  0
  6 16  4  0
  7 18  4  0
  8 27  4  0
  9 13  4  0
  9 23  4  0
 10 11  1  0
 11 14  2  0
 11 27  1  0
 12 19  1  0
 12 24  4  0
 13 24  4  0
 15 18  1  0
 16 25  4  0
 16 26  4  0
 17 20  4  0
 17 28  1  0
 18 21  4  0
 21 26  4  0
 22 26  4  0
M  END
$$$$

 Created by Python create_sdf_string function

 28 30  0  0  0  0  0  0  0  0999 V2000
    5.7174   -8.4529   26.7190 C   0  0  0  0  0  0  0  0  0  0  0  0
    0.3974   -7.0711   27.5149 C   0  0  0  0  0  0  0  0  0  0  0  0
    2.5338   -7.6891   16.0102 C   0  0  0  0  0  0  0  0  0  0  0  0
    4.8690   -7.4380   26.4151 C   0  0  0  0  0  0  0  0  0  0  0  0
    2.3021   -5.6726   26.0378 C   0  0  0  0  0  0  0  0  0  0  0  0
    7.0880   -4.6163   27.0010 C   0  0  0  0  0  0  0  0  0  0  0  0
    8.3117   -4.3698   27.4436 C   0  0  0  0  0  0  0  0  0  0  0  0
    1.1339   -5.0515   26.3541 C   0  0  0  0  0  0  0  0  0  0  0  0
    4.8080   -8.0362   16.7101 C   0  0  0  0  0  0  0  0  0  0  0  0
   -1.2173   -3.9294   26.9717 O   0  0  0  0  0  0  0  0  0  0  0  0
   -1.0025   -5.0942   27.4586 C   0  0  0  0  0  0  0  0  0  0  0  0
    2.2474   -8.9123   16.6273 C   0  0  0  0  0  0  0  0  0  0  0  0
    4.4957   -9.2636   17.3041 C   0  0  0  0  0  0  0  0  0  0  0  0
   -1.8070   -5.6086   28.1920 O   0  0  0  0  0  0  0  0  0  0  0  0
   10.4296   -5.1799   28.3140 C   0  0  0  0  0  0  0  0  0  0  0  0
    6.6017   -5.9004   26.9187 C   0  0  0  0  0  0  0  0  0  0  0  0
    2.4761   -6.9940   26.4111 N   0  0  0  0  0  0  0  0  0  0  0  0
    9.1353   -5.4053   27.8239 C   0  0  0  0  0  0  0  0  0  0  0  0
    0.9922   -9.3232   16.5995 O   0  0  0  0  0  0  0  0  0  0  0  0
    1.5232   -7.6869   27.1182 C   0  0  0  0  0  0  0  0  0  0  0  0
    8.6878   -6.6715   27.7262 N   0  0  0  0  0  0  0  0  0  0  0  0
    6.9911   -8.2423   27.1808 C   0  0  0  0  0  0  0  0  0  0  0  0
    3.8436   -7.2758   16.0578 C   0  0  0  0  0  0  0  0  0  0  0  0
    3.1882   -9.7190   17.2566 C   0  0  0  0  0  0  0  0  0  0  0  0
    5.3488   -6.1737   26.5092 C   0  0  0  0  0  0  0  0  0  0  0  0
    7.4567   -6.9464   27.2858 C   0  0  0  0  0  0  0  0  0  0  0  0
    0.1921   -5.7592   27.1123 C   0  0  0  0  0  0  0  0  0  0  0  0
    3.5517   -7.7407   25.9711 C   0  0  0  0  0  0  0  0  0  0  0  0
  1  4  4  0
  1 22  4  0
  2 20  4  0
  2 27  4  0
  3 12  4  0
  3 23  4  0
  4 25  4  0
  4 28  1  0
  5  8  4  0
  5 17  4  0
  6  7  4  0
  6 16  4  0
  7 18  4  0
  8 27  4  0
  9 13  4  0
  9 23  4  0
 10 11  1  0
 11 14  2  0
 11 27  1  0
 12 19  1  0
 12 24  4  0
 13 24  4  0
 15 18  1  0
 16 25  4  0
 16 26  4  0
 17 20  4  0
 17 28  1  0
 18 21  4  0
 21 26  4  0
 22 26  4  0
M  END
$$$$

 Created by Python create_sdf_string function

 28 30  0  0  0  0  0  0  0  0999 V2000
    5.7174   -8.4529   26.7190 C   0  0  0  0  0  0  0  0  0  0  0  0
    0.3974   -7.0711   27.5149 C   0  0  0  0  0  0  0  0  0  0  0  0
    2.5338   -7.6891   16.0102 C   0  0  0  0  0  0  0  0  0  0  0  0
    4.8690   -7.4380   26.4151 C   0  0  0  0  0  0  0  0  0  0  0  0
    2.3021   -5.6726   26.0378 C   0  0  0  0  0  0  0  0  0  0  0  0
    7.0880   -4.6163   27.0010 C   0  0  0  0  0  0  0  0  0  0  0  0
    8.3117   -4.3698   27.4436 C   0  0  0  0  0  0  0  0  0  0  0  0
    1.1339   -5.0515   26.3541 C   0  0  0  0  0  0  0  0  0  0  0  0
    4.8080   -8.0362   16.7101 C   0  0  0  0  0  0  0  0  0  0  0  0
   -1.2173   -3.9294   26.9717 O   0  0  0  0  0  0  0  0  0  0  0  0
   -1.0025   -5.0942   27.4586 C   0  0  0  0  0  0  0  0  0  0  0  0
    2.2474   -8.9123   16.6273 C   0  0  0  0  0  0  0  0  0  0  0  0
    4.4957   -9.2636   17.3041 C   0  0  0  0  0  0  0  0  0  0  0  0
   -1.8070   -5.6086   28.1920 O   0  0  0  0  0  0  0  0  0  0  0  0
   10.4296   -5.1799   28.3140 C   0  0  0  0  0  0  0  0  0  0  0  0
    6.6017   -5.9004   26.9187 C   0  0  0  0  0  0  0  0  0  0  0  0
    2.4761   -6.9940   26.4111 N   0  0  0  0  0  0  0  0  0  0  0  0
    9.1353   -5.4053   27.8239 C   0  0  0  0  0  0  0  0  0  0  0  0
    0.9922   -9.3232   16.5995 O   0  0  0  0  0  0  0  0  0  0  0  0
    1.5232   -7.6869   27.1182 C   0  0  0  0  0  0  0  0  0  0  0  0
    8.6878   -6.6715   27.7262 N   0  0  0  0  0  0  0  0  0  0  0  0
    6.9911   -8.2423   27.1808 C   0  0  0  0  0  0  0  0  0  0  0  0
    3.8436   -7.2758   16.0578 C   0  0  0  0  0  0  0  0  0  0  0  0
    3.1882   -9.7190   17.2566 C   0  0  0  0  0  0  0  0  0  0  0  0
    5.3488   -6.1737   26.5092 C   0  0  0  0  0  0  0  0  0  0  0  0
    7.4567   -6.9464   27.2858 C   0  0  0  0  0  0  0  0  0  0  0  0
    0.1921   -5.7592   27.1123 C   0  0  0  0  0  0  0  0  0  0  0  0
    3.5517   -7.7407   25.9711 C   0  0  0  0  0  0  0  0  0  0  0  0
  1  4  4  0
  1 22  4  0
  2 20  4  0
  2 27  4  0
  3 12  4  0
  3 23  4  0
  4 25  4  0
  4 28  1  0
  5  8  4  0
  5 17  4  0
  6  7  4  0
  6 16  4  0
  7 18  4  0
  8 27  4  0
  9 13  4  0
  9 23  4  0
 10 11  1  0
 11 14  2  0
 11 27  1  0
 12 19  1  0
 12 24  4  0
 13 24  4  0
 15 18  1  0
 16 25  4  0
 16 26  4  0
 17 20  4  0
 17 28  1  0
 18 21  4  0
 21 26  4  0
 22 26  4  0
M  END
$$$$

 Created by Python create_sdf_string function

 28 30  0  0  0  0  0  0  0  0999 V2000
    5.7174   -8.4529   26.7190 C   0  0  0  0  0  0  0  0  0  0  0  0
    0.3974   -7.0711   27.5149 C   0  0  0  0  0  0  0  0  0  0  0  0
    2.5338   -7.6891   16.0102 C   0  0  0  0  0  0  0  0  0  0  0  0
    4.8690   -7.4380   26.4151 C   0  0  0  0  0  0  0  0  0  0  0  0
    2.3021   -5.6726   26.0378 C   0  0  0  0  0  0  0  0  0  0  0  0
    7.0880   -4.6163   27.0010 C   0  0  0  0  0  0  0  0  0  0  0  0
    8.3117   -4.3698   27.4436 C   0  0  0  0  0  0  0  0  0  0  0  0
    1.1339   -5.0515   26.3541 C   0  0  0  0  0  0  0  0  0  0  0  0
    4.8080   -8.0362   16.7101 C   0  0  0  0  0  0  0  0  0  0  0  0
   -1.2173   -3.9294   26.9717 O   0  0  0  0  0  0  0  0  0  0  0  0
   -1.0025   -5.0942   27.4586 C   0  0  0  0  0  0  0  0  0  0  0  0
    2.2474   -8.9123   16.6273 C   0  0  0  0  0  0  0  0  0  0  0  0
    4.4957   -9.2636   17.3041 C   0  0  0  0  0  0  0  0  0  0  0  0
   -1.8070   -5.6086   28.1920 O   0  0  0  0  0  0  0  0  0  0  0  0
   10.4296   -5.1799   28.3140 C   0  0  0  0  0  0  0  0  0  0  0  0
    6.6017   -5.9004   26.9187 C   0  0  0  0  0  0  0  0  0  0  0  0
    2.4761   -6.9940   26.4111 N   0  0  0  0  0  0  0  0  0  0  0  0
    9.1353   -5.4053   27.8239 C   0  0  0  0  0  0  0  0  0  0  0  0
    0.9922   -9.3232   16.5995 O   0  0  0  0  0  0  0  0  0  0  0  0
    1.5232   -7.6869   27.1182 C   0  0  0  0  0  0  0  0  0  0  0  0
    8.6878   -6.6715   27.7262 N   0  0  0  0  0  0  0  0  0  0  0  0
    6.9911   -8.2423   27.1808 C   0  0  0  0  0  0  0  0  0  0  0  0
    3.8436   -7.2758   16.0578 C   0  0  0  0  0  0  0  0  0  0  0  0
    3.1882   -9.7190   17.2566 C   0  0  0  0  0  0  0  0  0  0  0  0
    5.3488   -6.1737   26.5092 C   0  0  0  0  0  0  0  0  0  0  0  0
    7.4567   -6.9464   27.2858 C   0  0  0  0  0  0  0  0  0  0  0  0
    0.1921   -5.7592   27.1123 C   0  0  0  0  0  0  0  0  0  0  0  0
    3.5517   -7.7407   25.9711 C   0  0  0  0  0  0  0  0  0  0  0  0
  1  4  4  0
  1 22  4  0
  2 20  4  0
  2 27  4  0
  3 12  4  0
  3 23  4  0
  4 25  4  0
  4 28  1  0
  5  8  4  0
  5 17  4  0
  6  7  4  0
  6 16  4  0
  7 18  4  0
  8 27  4  0
  9 13  4  0
  9 23  4  0
 10 11  1  0
 11 14  2  0
 11 27  1  0
 12 19  1  0
 12 24  4  0
 13 24  4  0
 15 18  1  0
 16 25  4  0
 16 26  4  0
 17 20  4  0
 17 28  1  0
 18 21  4  0
 21 26  4  0
 22 26  4  0
M  END
$$$$

 Created by Python create_sdf_string function

 28 30  0  0  0  0  0  0  0  0999 V2000
    5.7174   -8.4529   26.7190 C   0  0  0  0  0  0  0  0  0  0  0  0
    0.3974   -7.0711   27.5149 C   0  0  0  0  0  0  0  0  0  0  0  0
    2.5338   -7.6891   16.0102 C   0  0  0  0  0  0  0  0  0  0  0  0
    4.8690   -7.4380   26.4151 C   0  0  0  0  0  0  0  0  0  0  0  0
    2.3021   -5.6726   26.0378 C   0  0  0  0  0  0  0  0  0  0  0  0
    7.0880   -4.6163   27.0010 C   0  0  0  0  0  0  0  0  0  0  0  0
    8.3117   -4.3698   27.4436 C   0  0  0  0  0  0  0  0  0  0  0  0
    1.1339   -5.0515   26.3541 C   0  0  0  0  0  0  0  0  0  0  0  0
    4.8080   -8.0362   16.7101 C   0  0  0  0  0  0  0  0  0  0  0  0
   -1.2173   -3.9294   26.9717 O   0  0  0  0  0  0  0  0  0  0  0  0
   -1.0025   -5.0942   27.4586 C   0  0  0  0  0  0  0  0  0  0  0  0
    2.2474   -8.9123   16.6273 C   0  0  0  0  0  0  0  0  0  0  0  0
    4.4957   -9.2636   17.3041 C   0  0  0  0  0  0  0  0  0  0  0  0
   -1.8070   -5.6086   28.1920 O   0  0  0  0  0  0  0  0  0  0  0  0
   10.4296   -5.1799   28.3140 C   0  0  0  0  0  0  0  0  0  0  0  0
    6.6017   -5.9004   26.9187 C   0  0  0  0  0  0  0  0  0  0  0  0
    2.4761   -6.9940   26.4111 N   0  0  0  0  0  0  0  0  0  0  0  0
    9.1353   -5.4053   27.8239 C   0  0  0  0  0  0  0  0  0  0  0  0
    0.9922   -9.3232   16.5995 O   0  0  0  0  0  0  0  0  0  0  0  0
    1.5232   -7.6869   27.1182 C   0  0  0  0  0  0  0  0  0  0  0  0
    8.6878   -6.6715   27.7262 N   0  0  0  0  0  0  0  0  0  0  0  0
    6.9911   -8.2423   27.1808 C   0  0  0  0  0  0  0  0  0  0  0  0
    3.8436   -7.2758   16.0578 C   0  0  0  0  0  0  0  0  0  0  0  0
    3.1882   -9.7190   17.2566 C   0  0  0  0  0  0  0  0  0  0  0  0
    5.3488   -6.1737   26.5092 C   0  0  0  0  0  0  0  0  0  0  0  0
    7.4567   -6.9464   27.2858 C   0  0  0  0  0  0  0  0  0  0  0  0
    0.1921   -5.7592   27.1123 C   0  0  0  0  0  0  0  0  0  0  0  0
    3.5517   -7.7407   25.9711 C   0  0  0  0  0  0  0  0  0  0  0  0
  1  4  4  0
  1 22  4  0
  2 20  4  0
  2 27  4  0
  3 12  4  0
  3 23  4  0
  4 25  4  0
  4 28  1  0
  5  8  4  0
  5 17  4  0
  6  7  4  0
  6 16  4  0
  7 18  4  0
  8 27  4  0
  9 13  4  0
  9 23  4  0
 10 11  1  0
 11 14  2  0
 11 27  1  0
 12 19  1  0
 12 24  4  0
 13 24  4  0
 15 18  1  0
 16 25  4  0
 16 26  4  0
 17 20  4  0
 17 28  1  0
 18 21  4  0
 21 26  4  0
 22 26  4  0
M  END
$$$$

 Created by Python create_sdf_string function

 28 30  0  0  0  0  0  0  0  0999 V2000
    5.7174   -8.4529   26.7190 C   0  0  0  0  0  0  0  0  0  0  0  0
    0.3974   -7.0711   27.5149 C   0  0  0  0  0  0  0  0  0  0  0  0
    2.5338   -7.6891   16.0102 C   0  0  0  0  0  0  0  0  0  0  0  0
    4.8690   -7.4380   26.4151 C   0  0  0  0  0  0  0  0  0  0  0  0
    2.3021   -5.6726   26.0378 C   0  0  0  0  0  0  0  0  0  0  0  0
    7.0880   -4.6163   27.0010 C   0  0  0  0  0  0  0  0  0  0  0  0
    8.3117   -4.3698   27.4436 C   0  0  0  0  0  0  0  0  0  0  0  0
    1.1339   -5.0515   26.3541 C   0  0  0  0  0  0  0  0  0  0  0  0
    4.8080   -8.0362   16.7101 C   0  0  0  0  0  0  0  0  0  0  0  0
   -1.2173   -3.9294   26.9717 O   0  0  0  0  0  0  0  0  0  0  0  0
   -1.0025   -5.0942   27.4586 C   0  0  0  0  0  0  0  0  0  0  0  0
    2.2474   -8.9123   16.6273 C   0  0  0  0  0  0  0  0  0  0  0  0
    4.4957   -9.2636   17.3041 C   0  0  0  0  0  0  0  0  0  0  0  0
   -1.8070   -5.6086   28.1920 O   0  0  0  0  0  0  0  0  0  0  0  0
   10.4296   -5.1799   28.3140 C   0  0  0  0  0  0  0  0  0  0  0  0
    6.6017   -5.9004   26.9187 C   0  0  0  0  0  0  0  0  0  0  0  0
    2.4761   -6.9940   26.4111 N   0  0  0  0  0  0  0  0  0  0  0  0
    9.1353   -5.4053   27.8239 C   0  0  0  0  0  0  0  0  0  0  0  0
    0.9922   -9.3232   16.5995 O   0  0  0  0  0  0  0  0  0  0  0  0
    1.5232   -7.6869   27.1182 C   0  0  0  0  0  0  0  0  0  0  0  0
    8.6878   -6.6715   27.7262 N   0  0  0  0  0  0  0  0  0  0  0  0
    6.9911   -8.2423   27.1808 C   0  0  0  0  0  0  0  0  0  0  0  0
    3.8436   -7.2758   16.0578 C   0  0  0  0  0  0  0  0  0  0  0  0
    3.1882   -9.7190   17.2566 C   0  0  0  0  0  0  0  0  0  0  0  0
    5.3488   -6.1737   26.5092 C   0  0  0  0  0  0  0  0  0  0  0  0
    7.4567   -6.9464   27.2858 C   0  0  0  0  0  0  0  0  0  0  0  0
    0.1921   -5.7592   27.1123 C   0  0  0  0  0  0  0  0  0  0  0  0
    3.5517   -7.7407   25.9711 C   0  0  0  0  0  0  0  0  0  0  0  0
  1  4  4  0
  1 22  4  0
  2 20  4  0
  2 27  4  0
  3 12  4  0
  3 23  4  0
  4 25  4  0
  4 28  1  0
  5  8  4  0
  5 17  4  0
  6  7  4  0
  6 16  4  0
  7 18  4  0
  8 27  4  0
  9 13  4  0
  9 23  4  0
 10 11  1  0
 11 14  2  0
 11 27  1  0
 12 19  1  0
 12 24  4  0
 13 24  4  0
 15 18  1  0
 16 25  4  0
 16 26  4  0
 17 20  4  0
 17 28  1  0
 18 21  4  0
 21 26  4  0
 22 26  4  0
M  END
$$$$

 Created by Python create_sdf_string function

 28 30  0  0  0  0  0  0  0  0999 V2000
    5.7174   -8.4529   26.7190 C   0  0  0  0  0  0  0  0  0  0  0  0
    0.3974   -7.0711   27.5149 C   0  0  0  0  0  0  0  0  0  0  0  0
    2.5338   -7.6891   16.0102 C   0  0  0  0  0  0  0  0  0  0  0  0
    4.8690   -7.4380   26.4151 C   0  0  0  0  0  0  0  0  0  0  0  0
    2.3021   -5.6726   26.0378 C   0  0  0  0  0  0  0  0  0  0  0  0
    7.0880   -4.6163   27.0010 C   0  0  0  0  0  0  0  0  0  0  0  0
    8.3117   -4.3698   27.4436 C   0  0  0  0  0  0  0  0  0  0  0  0
    1.1339   -5.0515   26.3541 C   0  0  0  0  0  0  0  0  0  0  0  0
    4.8080   -8.0362   16.7101 C   0  0  0  0  0  0  0  0  0  0  0  0
   -1.2173   -3.9294   26.9717 O   0  0  0  0  0  0  0  0  0  0  0  0
   -1.0025   -5.0942   27.4586 C   0  0  0  0  0  0  0  0  0  0  0  0
    2.2474   -8.9123   16.6273 C   0  0  0  0  0  0  0  0  0  0  0  0
    4.4957   -9.2636   17.3041 C   0  0  0  0  0  0  0  0  0  0  0  0
   -1.8070   -5.6086   28.1920 O   0  0  0  0  0  0  0  0  0  0  0  0
   10.4296   -5.1799   28.3140 C   0  0  0  0  0  0  0  0  0  0  0  0
    6.6017   -5.9004   26.9187 C   0  0  0  0  0  0  0  0  0  0  0  0
    2.4761   -6.9940   26.4111 N   0  0  0  0  0  0  0  0  0  0  0  0
    9.1353   -5.4053   27.8239 C   0  0  0  0  0  0  0  0  0  0  0  0
    0.9922   -9.3232   16.5995 O   0  0  0  0  0  0  0  0  0  0  0  0
    1.5232   -7.6869   27.1182 C   0  0  0  0  0  0  0  0  0  0  0  0
    8.6878   -6.6715   27.7262 N   0  0  0  0  0  0  0  0  0  0  0  0
    6.9911   -8.2423   27.1808 C   0  0  0  0  0  0  0  0  0  0  0  0
    3.8436   -7.2758   16.0578 C   0  0  0  0  0  0  0  0  0  0  0  0
    3.1882   -9.7190   17.2566 C   0  0  0  0  0  0  0  0  0  0  0  0
    5.3488   -6.1737   26.5092 C   0  0  0  0  0  0  0  0  0  0  0  0
    7.4567   -6.9464   27.2858 C   0  0  0  0  0  0  0  0  0  0  0  0
    0.1921   -5.7592   27.1123 C   0  0  0  0  0  0  0  0  0  0  0  0
    3.5517   -7.7407   25.9711 C   0  0  0  0  0  0  0  0  0  0  0  0
  1  4  4  0
  1 22  4  0
  2 20  4  0
  2 27  4  0
  3 12  4  0
  3 23  4  0
  4 25  4  0
  4 28  1  0
  5  8  4  0
  5 17  4  0
  6  7  4  0
  6 16  4  0
  7 18  4  0
  8 27  4  0
  9 13  4  0
  9 23  4  0
 10 11  1  0
 11 14  2  0
 11 27  1  0
 12 19  1  0
 12 24  4  0
 13 24  4  0
 15 18  1  0
 16 25  4  0
 16 26  4  0
 17 20  4  0
 17 28  1  0
 18 21  4  0
 21 26  4  0
 22 26  4  0
M  END
$$$$

 Created by Python create_sdf_string function

 28 30  0  0  0  0  0  0  0  0999 V2000
    5.7174   -8.4529   26.7190 C   0  0  0  0  0  0  0  0  0  0  0  0
    0.3974   -7.0711   27.5149 C   0  0  0  0  0  0  0  0  0  0  0  0
    2.5338   -7.6891   16.0102 C   0  0  0  0  0  0  0  0  0  0  0  0
    4.8690   -7.4380   26.4151 C   0  0  0  0  0  0  0  0  0  0  0  0
    2.3021   -5.6726   26.0378 C   0  0  0  0  0  0  0  0  0  0  0  0
    7.0880   -4.6163   27.0010 C   0  0  0  0  0  0  0  0  0  0  0  0
    8.3117   -4.3698   27.4436 C   0  0  0  0  0  0  0  0  0  0  0  0
    1.1339   -5.0515   26.3541 C   0  0  0  0  0  0  0  0  0  0  0  0
    4.8080   -8.0362   16.7101 C   0  0  0  0  0  0  0  0  0  0  0  0
   -1.2173   -3.9294   26.9717 O   0  0  0  0  0  0  0  0  0  0  0  0
   -1.0025   -5.0942   27.4586 C   0  0  0  0  0  0  0  0  0  0  0  0
    2.2474   -8.9123   16.6273 C   0  0  0  0  0  0  0  0  0  0  0  0
    4.4957   -9.2636   17.3041 C   0  0  0  0  0  0  0  0  0  0  0  0
   -1.8070   -5.6086   28.1920 O   0  0  0  0  0  0  0  0  0  0  0  0
   10.4296   -5.1799   28.3140 C   0  0  0  0  0  0  0  0  0  0  0  0
    6.6017   -5.9004   26.9187 C   0  0  0  0  0  0  0  0  0  0  0  0
    2.4761   -6.9940   26.4111 N   0  0  0  0  0  0  0  0  0  0  0  0
    9.1353   -5.4053   27.8239 C   0  0  0  0  0  0  0  0  0  0  0  0
    0.9922   -9.3232   16.5995 O   0  0  0  0  0  0  0  0  0  0  0  0
    1.5232   -7.6869   27.1182 C   0  0  0  0  0  0  0  0  0  0  0  0
    8.6878   -6.6715   27.7262 N   0  0  0  0  0  0  0  0  0  0  0  0
    6.9911   -8.2423   27.1808 C   0  0  0  0  0  0  0  0  0  0  0  0
    3.8436   -7.2758   16.0578 C   0  0  0  0  0  0  0  0  0  0  0  0
    3.1882   -9.7190   17.2566 C   0  0  0  0  0  0  0  0  0  0  0  0
    5.3488   -6.1737   26.5092 C   0  0  0  0  0  0  0  0  0  0  0  0
    7.4567   -6.9464   27.2858 C   0  0  0  0  0  0  0  0  0  0  0  0
    0.1921   -5.7592   27.1123 C   0  0  0  0  0  0  0  0  0  0  0  0
    3.5517   -7.7407   25.9711 C   0  0  0  0  0  0  0  0  0  0  0  0
  1  4  4  0
  1 22  4  0
  2 20  4  0
  2 27  4  0
  3 12  4  0
  3 23  4  0
  4 25  4  0
  4 28  1  0
  5  8  4  0
  5 17  4  0
  6  7  4  0
  6 16  4  0
  7 18  4  0
  8 27  4  0
  9 13  4  0
  9 23  4  0
 10 11  1  0
 11 14  2  0
 11 27  1  0
 12 19  1  0
 12 24  4  0
 13 24  4  0
 15 18  1  0
 16 25  4  0
 16 26  4  0
 17 20  4  0
 17 28  1  0
 18 21  4  0
 21 26  4  0
 22 26  4  0
M  END
$$$$

 Created by Python create_sdf_string function

 28 30  0  0  0  0  0  0  0  0999 V2000
    5.7174   -8.4529   26.7190 C   0  0  0  0  0  0  0  0  0  0  0  0
    0.3974   -7.0711   27.5149 C   0  0  0  0  0  0  0  0  0  0  0  0
    2.5338   -7.6891   16.0102 C   0  0  0  0  0  0  0  0  0  0  0  0
    4.8690   -7.4380   26.4151 C   0  0  0  0  0  0  0  0  0  0  0  0
    2.3021   -5.6726   26.0378 C   0  0  0  0  0  0  0  0  0  0  0  0
    7.0880   -4.6163   27.0010 C   0  0  0  0  0  0  0  0  0  0  0  0
    8.3117   -4.3698   27.4436 C   0  0  0  0  0  0  0  0  0  0  0  0
    1.1339   -5.0515   26.3541 C   0  0  0  0  0  0  0  0  0  0  0  0
    4.8080   -8.0362   16.7101 C   0  0  0  0  0  0  0  0  0  0  0  0
   -1.2173   -3.9294   26.9717 O   0  0  0  0  0  0  0  0  0  0  0  0
   -1.0025   -5.0942   27.4586 C   0  0  0  0  0  0  0  0  0  0  0  0
    2.2474   -8.9123   16.6273 C   0  0  0  0  0  0  0  0  0  0  0  0
    4.4957   -9.2636   17.3041 C   0  0  0  0  0  0  0  0  0  0  0  0
   -1.8070   -5.6086   28.1920 O   0  0  0  0  0  0  0  0  0  0  0  0
   10.4296   -5.1799   28.3140 C   0  0  0  0  0  0  0  0  0  0  0  0
    6.6017   -5.9004   26.9187 C   0  0  0  0  0  0  0  0  0  0  0  0
    2.4761   -6.9940   26.4111 N   0  0  0  0  0  0  0  0  0  0  0  0
    9.1353   -5.4053   27.8239 C   0  0  0  0  0  0  0  0  0  0  0  0
    0.9922   -9.3232   16.5995 O   0  0  0  0  0  0  0  0  0  0  0  0
    1.5232   -7.6869   27.1182 C   0  0  0  0  0  0  0  0  0  0  0  0
    8.6878   -6.6715   27.7262 N   0  0  0  0  0  0  0  0  0  0  0  0
    6.9911   -8.2423   27.1808 C   0  0  0  0  0  0  0  0  0  0  0  0
    3.8436   -7.2758   16.0578 C   0  0  0  0  0  0  0  0  0  0  0  0
    3.1882   -9.7190   17.2566 C   0  0  0  0  0  0  0  0  0  0  0  0
    5.3488   -6.1737   26.5092 C   0  0  0  0  0  0  0  0  0  0  0  0
    7.4567   -6.9464   27.2858 C   0  0  0  0  0  0  0  0  0  0  0  0
    0.1921   -5.7592   27.1123 C   0  0  0  0  0  0  0  0  0  0  0  0
    3.5517   -7.7407   25.9711 C   0  0  0  0  0  0  0  0  0  0  0  0
  1  4  4  0
  1 22  4  0
  2 20  4  0
  2 27  4  0
  3 12  4  0
  3 23  4  0
  4 25  4  0
  4 28  1  0
  5  8  4  0
  5 17  4  0
  6  7  4  0
  6 16  4  0
  7 18  4  0
  8 27  4  0
  9 13  4  0
  9 23  4  0
 10 11  1  0
 11 14  2  0
 11 27  1  0
 12 19  1  0
 12 24  4  0
 13 24  4  0
 15 18  1  0
 16 25  4  0
 16 26  4  0
 17 20  4  0
 17 28  1  0
 18 21  4  0
 21 26  4  0
 22 26  4  0
M  END
$$$$

 Created by Python create_sdf_string function

 28 30  0  0  0  0  0  0  0  0999 V2000
    5.7174   -8.4529   26.7190 C   0  0  0  0  0  0  0  0  0  0  0  0
    0.3974   -7.0711   27.5149 C   0  0  0  0  0  0  0  0  0  0  0  0
    2.5338   -7.6891   16.0102 C   0  0  0  0  0  0  0  0  0  0  0  0
    4.8690   -7.4380   26.4151 C   0  0  0  0  0  0  0  0  0  0  0  0
    2.3021   -5.6726   26.0378 C   0  0  0  0  0  0  0  0  0  0  0  0
    7.0880   -4.6163   27.0010 C   0  0  0  0  0  0  0  0  0  0  0  0
    8.3117   -4.3698   27.4436 C   0  0  0  0  0  0  0  0  0  0  0  0
    1.1339   -5.0515   26.3541 C   0  0  0  0  0  0  0  0  0  0  0  0
    4.8080   -8.0362   16.7101 C   0  0  0  0  0  0  0  0  0  0  0  0
   -1.2173   -3.9294   26.9717 O   0  0  0  0  0  0  0  0  0  0  0  0
   -1.0025   -5.0942   27.4586 C   0  0  0  0  0  0  0  0  0  0  0  0
    2.2474   -8.9123   16.6273 C   0  0  0  0  0  0  0  0  0  0  0  0
    4.4957   -9.2636   17.3041 C   0  0  0  0  0  0  0  0  0  0  0  0
   -1.8070   -5.6086   28.1920 O   0  0  0  0  0  0  0  0  0  0  0  0
   10.4296   -5.1799   28.3140 C   0  0  0  0  0  0  0  0  0  0  0  0
    6.6017   -5.9004   26.9187 C   0  0  0  0  0  0  0  0  0  0  0  0
    2.4761   -6.9940   26.4111 N   0  0  0  0  0  0  0  0  0  0  0  0
    9.1353   -5.4053   27.8239 C   0  0  0  0  0  0  0  0  0  0  0  0
    0.9922   -9.3232   16.5995 O   0  0  0  0  0  0  0  0  0  0  0  0
    1.5232   -7.6869   27.1182 C   0  0  0  0  0  0  0  0  0  0  0  0
    8.6878   -6.6715   27.7262 N   0  0  0  0  0  0  0  0  0  0  0  0
    6.9911   -8.2423   27.1808 C   0  0  0  0  0  0  0  0  0  0  0  0
    3.8436   -7.2758   16.0578 C   0  0  0  0  0  0  0  0  0  0  0  0
    3.1882   -9.7190   17.2566 C   0  0  0  0  0  0  0  0  0  0  0  0
    5.3488   -6.1737   26.5092 C   0  0  0  0  0  0  0  0  0  0  0  0
    7.4567   -6.9464   27.2858 C   0  0  0  0  0  0  0  0  0  0  0  0
    0.1921   -5.7592   27.1123 C   0  0  0  0  0  0  0  0  0  0  0  0
    3.5517   -7.7407   25.9711 C   0  0  0  0  0  0  0  0  0  0  0  0
  1  4  4  0
  1 22  4  0
  2 20  4  0
  2 27  4  0
  3 12  4  0
  3 23  4  0
  4 25  4  0
  4 28  1  0
  5  8  4  0
  5 17  4  0
  6  7  4  0
  6 16  4  0
  7 18  4  0
  8 27  4  0
  9 13  4  0
  9 23  4  0
 10 11  1  0
 11 14  2  0
 11 27  1  0
 12 19  1  0
 12 24  4  0
 13 24  4  0
 15 18  1  0
 16 25  4  0
 16 26  4  0
 17 20  4  0
 17 28  1  0
 18 21  4  0
 21 26  4  0
 22 26  4  0
M  END
$$$$

 Created by Python create_sdf_string function

 28 30  0  0  0  0  0  0  0  0999 V2000
    5.7174   -8.4529   26.7190 C   0  0  0  0  0  0  0  0  0  0  0  0
    0.3974   -7.0711   27.5149 C   0  0  0  0  0  0  0  0  0  0  0  0
    2.5338   -7.6891   16.0102 C   0  0  0  0  0  0  0  0  0  0  0  0
    4.8690   -7.4380   26.4151 C   0  0  0  0  0  0  0  0  0  0  0  0
    2.3021   -5.6726   26.0378 C   0  0  0  0  0  0  0  0  0  0  0  0
    7.0880   -4.6163   27.0010 C   0  0  0  0  0  0  0  0  0  0  0  0
    8.3117   -4.3698   27.4436 C   0  0  0  0  0  0  0  0  0  0  0  0
    1.1339   -5.0515   26.3541 C   0  0  0  0  0  0  0  0  0  0  0  0
    4.8080   -8.0362   16.7101 C   0  0  0  0  0  0  0  0  0  0  0  0
   -1.2173   -3.9294   26.9717 O   0  0  0  0  0  0  0  0  0  0  0  0
   -1.0025   -5.0942   27.4586 C   0  0  0  0  0  0  0  0  0  0  0  0
    2.2474   -8.9123   16.6273 C   0  0  0  0  0  0  0  0  0  0  0  0
    4.4957   -9.2636   17.3041 C   0  0  0  0  0  0  0  0  0  0  0  0
   -1.8070   -5.6086   28.1920 O   0  0  0  0  0  0  0  0  0  0  0  0
   10.4296   -5.1799   28.3140 C   0  0  0  0  0  0  0  0  0  0  0  0
    6.6017   -5.9004   26.9187 C   0  0  0  0  0  0  0  0  0  0  0  0
    2.4761   -6.9940   26.4111 N   0  0  0  0  0  0  0  0  0  0  0  0
    9.1353   -5.4053   27.8239 C   0  0  0  0  0  0  0  0  0  0  0  0
    0.9922   -9.3232   16.5995 O   0  0  0  0  0  0  0  0  0  0  0  0
    1.5232   -7.6869   27.1182 C   0  0  0  0  0  0  0  0  0  0  0  0
    8.6878   -6.6715   27.7262 N   0  0  0  0  0  0  0  0  0  0  0  0
    6.9911   -8.2423   27.1808 C   0  0  0  0  0  0  0  0  0  0  0  0
    3.8436   -7.2758   16.0578 C   0  0  0  0  0  0  0  0  0  0  0  0
    3.1882   -9.7190   17.2566 C   0  0  0  0  0  0  0  0  0  0  0  0
    5.3488   -6.1737   26.5092 C   0  0  0  0  0  0  0  0  0  0  0  0
    7.4567   -6.9464   27.2858 C   0  0  0  0  0  0  0  0  0  0  0  0
    0.1921   -5.7592   27.1123 C   0  0  0  0  0  0  0  0  0  0  0  0
    3.5517   -7.7407   25.9711 C   0  0  0  0  0  0  0  0  0  0  0  0
  1  4  4  0
  1 22  4  0
  2 20  4  0
  2 27  4  0
  3 12  4  0
  3 23  4  0
  4 25  4  0
  4 28  1  0
  5  8  4  0
  5 17  4  0
  6  7  4  0
  6 16  4  0
  7 18  4  0
  8 27  4  0
  9 13  4  0
  9 23  4  0
 10 11  1  0
 11 14  2  0
 11 27  1  0
 12 19  1  0
 12 24  4  0
 13 24  4  0
 15 18  1  0
 16 25  4  0
 16 26  4  0
 17 20  4  0
 17 28  1  0
 18 21  4  0
 21 26  4  0
 22 26  4  0
M  END
$$$$

 Created by Python create_sdf_string function

 28 30  0  0  0  0  0  0  0  0999 V2000
    5.7174   -8.4529   26.7190 C   0  0  0  0  0  0  0  0  0  0  0  0
    0.3974   -7.0711   27.5149 C   0  0  0  0  0  0  0  0  0  0  0  0
    2.5338   -7.6891   16.0102 C   0  0  0  0  0  0  0  0  0  0  0  0
    4.8690   -7.4380   26.4151 C   0  0  0  0  0  0  0  0  0  0  0  0
    2.3021   -5.6726   26.0378 C   0  0  0  0  0  0  0  0  0  0  0  0
    7.0880   -4.6163   27.0010 C   0  0  0  0  0  0  0  0  0  0  0  0
    8.3117   -4.3698   27.4436 C   0  0  0  0  0  0  0  0  0  0  0  0
    1.1339   -5.0515   26.3541 C   0  0  0  0  0  0  0  0  0  0  0  0
    4.8080   -8.0362   16.7101 C   0  0  0  0  0  0  0  0  0  0  0  0
   -1.2173   -3.9294   26.9717 O   0  0  0  0  0  0  0  0  0  0  0  0
   -1.0025   -5.0942   27.4586 C   0  0  0  0  0  0  0  0  0  0  0  0
    2.2474   -8.9123   16.6273 C   0  0  0  0  0  0  0  0  0  0  0  0
    4.4957   -9.2636   17.3041 C   0  0  0  0  0  0  0  0  0  0  0  0
   -1.8070   -5.6086   28.1920 O   0  0  0  0  0  0  0  0  0  0  0  0
   10.4296   -5.1799   28.3140 C   0  0  0  0  0  0  0  0  0  0  0  0
    6.6017   -5.9004   26.9187 C   0  0  0  0  0  0  0  0  0  0  0  0
    2.4761   -6.9940   26.4111 N   0  0  0  0  0  0  0  0  0  0  0  0
    9.1353   -5.4053   27.8239 C   0  0  0  0  0  0  0  0  0  0  0  0
    0.9922   -9.3232   16.5995 O   0  0  0  0  0  0  0  0  0  0  0  0
    1.5232   -7.6869   27.1182 C   0  0  0  0  0  0  0  0  0  0  0  0
    8.6878   -6.6715   27.7262 N   0  0  0  0  0  0  0  0  0  0  0  0
    6.9911   -8.2423   27.1808 C   0  0  0  0  0  0  0  0  0  0  0  0
    3.8436   -7.2758   16.0578 C   0  0  0  0  0  0  0  0  0  0  0  0
    3.1882   -9.7190   17.2566 C   0  0  0  0  0  0  0  0  0  0  0  0
    5.3488   -6.1737   26.5092 C   0  0  0  0  0  0  0  0  0  0  0  0
    7.4567   -6.9464   27.2858 C   0  0  0  0  0  0  0  0  0  0  0  0
    0.1921   -5.7592   27.1123 C   0  0  0  0  0  0  0  0  0  0  0  0
    3.5517   -7.7407   25.9711 C   0  0  0  0  0  0  0  0  0  0  0  0
  1  4  4  0
  1 22  4  0
  2 20  4  0
  2 27  4  0
  3 12  4  0
  3 23  4  0
  4 25  4  0
  4 28  1  0
  5  8  4  0
  5 17  4  0
  6  7  4  0
  6 16  4  0
  7 18  4  0
  8 27  4  0
  9 13  4  0
  9 23  4  0
 10 11  1  0
 11 14  2  0
 11 27  1  0
 12 19  1  0
 12 24  4  0
 13 24  4  0
 15 18  1  0
 16 25  4  0
 16 26  4  0
 17 20  4  0
 17 28  1  0
 18 21  4  0
 21 26  4  0
 22 26  4  0
M  END
$$$$

 Created by Python create_sdf_string function

 28 30  0  0  0  0  0  0  0  0999 V2000
    5.7174   -8.4529   26.7190 C   0  0  0  0  0  0  0  0  0  0  0  0
    0.3974   -7.0711   27.5149 C   0  0  0  0  0  0  0  0  0  0  0  0
    2.5338   -7.6891   16.0102 C   0  0  0  0  0  0  0  0  0  0  0  0
    4.8690   -7.4380   26.4151 C   0  0  0  0  0  0  0  0  0  0  0  0
    2.3021   -5.6726   26.0378 C   0  0  0  0  0  0  0  0  0  0  0  0
    7.0880   -4.6163   27.0010 C   0  0  0  0  0  0  0  0  0  0  0  0
    8.3117   -4.3698   27.4436 C   0  0  0  0  0  0  0  0  0  0  0  0
    1.1339   -5.0515   26.3541 C   0  0  0  0  0  0  0  0  0  0  0  0
    4.8080   -8.0362   16.7101 C   0  0  0  0  0  0  0  0  0  0  0  0
   -1.2173   -3.9294   26.9717 O   0  0  0  0  0  0  0  0  0  0  0  0
   -1.0025   -5.0942   27.4586 C   0  0  0  0  0  0  0  0  0  0  0  0
    2.2474   -8.9123   16.6273 C   0  0  0  0  0  0  0  0  0  0  0  0
    4.4957   -9.2636   17.3041 C   0  0  0  0  0  0  0  0  0  0  0  0
   -1.8070   -5.6086   28.1920 O   0  0  0  0  0  0  0  0  0  0  0  0
   10.4296   -5.1799   28.3140 C   0  0  0  0  0  0  0  0  0  0  0  0
    6.6017   -5.9004   26.9187 C   0  0  0  0  0  0  0  0  0  0  0  0
    2.4761   -6.9940   26.4111 N   0  0  0  0  0  0  0  0  0  0  0  0
    9.1353   -5.4053   27.8239 C   0  0  0  0  0  0  0  0  0  0  0  0
    0.9922   -9.3232   16.5995 O   0  0  0  0  0  0  0  0  0  0  0  0
    1.5232   -7.6869   27.1182 C   0  0  0  0  0  0  0  0  0  0  0  0
    8.6878   -6.6715   27.7262 N   0  0  0  0  0  0  0  0  0  0  0  0
    6.9911   -8.2423   27.1808 C   0  0  0  0  0  0  0  0  0  0  0  0
    3.8436   -7.2758   16.0578 C   0  0  0  0  0  0  0  0  0  0  0  0
    3.1882   -9.7190   17.2566 C   0  0  0  0  0  0  0  0  0  0  0  0
    5.3488   -6.1737   26.5092 C   0  0  0  0  0  0  0  0  0  0  0  0
    7.4567   -6.9464   27.2858 C   0  0  0  0  0  0  0  0  0  0  0  0
    0.1921   -5.7592   27.1123 C   0  0  0  0  0  0  0  0  0  0  0  0
    3.5517   -7.7407   25.9711 C   0  0  0  0  0  0  0  0  0  0  0  0
  1  4  4  0
  1 22  4  0
  2 20  4  0
  2 27  4  0
  3 12  4  0
  3 23  4  0
  4 25  4  0
  4 28  1  0
  5  8  4  0
  5 17  4  0
  6  7  4  0
  6 16  4  0
  7 18  4  0
  8 27  4  0
  9 13  4  0
  9 23  4  0
 10 11  1  0
 11 14  2  0
 11 27  1  0
 12 19  1  0
 12 24  4  0
 13 24  4  0
 15 18  1  0
 16 25  4  0
 16 26  4  0
 17 20  4  0
 17 28  1  0
 18 21  4  0
 21 26  4  0
 22 26  4  0
M  END
$$$$

 Created by Python create_sdf_string function

 28 30  0  0  0  0  0  0  0  0999 V2000
    5.7174   -8.4529   26.7190 C   0  0  0  0  0  0  0  0  0  0  0  0
    0.3974   -7.0711   27.5149 C   0  0  0  0  0  0  0  0  0  0  0  0
    2.5338   -7.6891   16.0102 C   0  0  0  0  0  0  0  0  0  0  0  0
    4.8690   -7.4380   26.4151 C   0  0  0  0  0  0  0  0  0  0  0  0
    2.3021   -5.6726   26.0378 C   0  0  0  0  0  0  0  0  0  0  0  0
    7.0880   -4.6163   27.0010 C   0  0  0  0  0  0  0  0  0  0  0  0
    8.3117   -4.3698   27.4436 C   0  0  0  0  0  0  0  0  0  0  0  0
    1.1339   -5.0515   26.3541 C   0  0  0  0  0  0  0  0  0  0  0  0
    4.8080   -8.0362   16.7101 C   0  0  0  0  0  0  0  0  0  0  0  0
   -1.2173   -3.9294   26.9717 O   0  0  0  0  0  0  0  0  0  0  0  0
   -1.0025   -5.0942   27.4586 C   0  0  0  0  0  0  0  0  0  0  0  0
    2.2474   -8.9123   16.6273 C   0  0  0  0  0  0  0  0  0  0  0  0
    4.4957   -9.2636   17.3041 C   0  0  0  0  0  0  0  0  0  0  0  0
   -1.8070   -5.6086   28.1920 O   0  0  0  0  0  0  0  0  0  0  0  0
   10.4296   -5.1799   28.3140 C   0  0  0  0  0  0  0  0  0  0  0  0
    6.6017   -5.9004   26.9187 C   0  0  0  0  0  0  0  0  0  0  0  0
    2.4761   -6.9940   26.4111 N   0  0  0  0  0  0  0  0  0  0  0  0
    9.1353   -5.4053   27.8239 C   0  0  0  0  0  0  0  0  0  0  0  0
    0.9922   -9.3232   16.5995 O   0  0  0  0  0  0  0  0  0  0  0  0
    1.5232   -7.6869   27.1182 C   0  0  0  0  0  0  0  0  0  0  0  0
    8.6878   -6.6715   27.7262 N   0  0  0  0  0  0  0  0  0  0  0  0
    6.9911   -8.2423   27.1808 C   0  0  0  0  0  0  0  0  0  0  0  0
    3.8436   -7.2758   16.0578 C   0  0  0  0  0  0  0  0  0  0  0  0
    3.1882   -9.7190   17.2566 C   0  0  0  0  0  0  0  0  0  0  0  0
    5.3488   -6.1737   26.5092 C   0  0  0  0  0  0  0  0  0  0  0  0
    7.4567   -6.9464   27.2858 C   0  0  0  0  0  0  0  0  0  0  0  0
    0.1921   -5.7592   27.1123 C   0  0  0  0  0  0  0  0  0  0  0  0
    3.5517   -7.7407   25.9711 C   0  0  0  0  0  0  0  0  0  0  0  0
  1  4  4  0
  1 22  4  0
  2 20  4  0
  2 27  4  0
  3 12  4  0
  3 23  4  0
  4 25  4  0
  4 28  1  0
  5  8  4  0
  5 17  4  0
  6  7  4  0
  6 16  4  0
  7 18  4  0
  8 27  4  0
  9 13  4  0
  9 23  4  0
 10 11  1  0
 11 14  2  0
 11 27  1  0
 12 19  1  0
 12 24  4  0
 13 24  4  0
 15 18  1  0
 16 25  4  0
 16 26  4  0
 17 20  4  0
 17 28  1  0
 18 21  4  0
 21 26  4  0
 22 26  4  0
M  END
$$$$

 Created by Python create_sdf_string function

 28 30  0  0  0  0  0  0  0  0999 V2000
    5.7174   -8.4529   26.7190 C   0  0  0  0  0  0  0  0  0  0  0  0
    0.3974   -7.0711   27.5149 C   0  0  0  0  0  0  0  0  0  0  0  0
    2.5338   -7.6891   16.0102 C   0  0  0  0  0  0  0  0  0  0  0  0
    4.8690   -7.4380   26.4151 C   0  0  0  0  0  0  0  0  0  0  0  0
    2.3021   -5.6726   26.0378 C   0  0  0  0  0  0  0  0  0  0  0  0
    7.0880   -4.6163   27.0010 C   0  0  0  0  0  0  0  0  0  0  0  0
    8.3117   -4.3698   27.4436 C   0  0  0  0  0  0  0  0  0  0  0  0
    1.1339   -5.0515   26.3541 C   0  0  0  0  0  0  0  0  0  0  0  0
    4.8080   -8.0362   16.7101 C   0  0  0  0  0  0  0  0  0  0  0  0
   -1.2173   -3.9294   26.9717 O   0  0  0  0  0  0  0  0  0  0  0  0
   -1.0025   -5.0942   27.4586 C   0  0  0  0  0  0  0  0  0  0  0  0
    2.2474   -8.9123   16.6273 C   0  0  0  0  0  0  0  0  0  0  0  0
    4.4957   -9.2636   17.3041 C   0  0  0  0  0  0  0  0  0  0  0  0
   -1.8070   -5.6086   28.1920 O   0  0  0  0  0  0  0  0  0  0  0  0
   10.4296   -5.1799   28.3140 C   0  0  0  0  0  0  0  0  0  0  0  0
    6.6017   -5.9004   26.9187 C   0  0  0  0  0  0  0  0  0  0  0  0
    2.4761   -6.9940   26.4111 N   0  0  0  0  0  0  0  0  0  0  0  0
    9.1353   -5.4053   27.8239 C   0  0  0  0  0  0  0  0  0  0  0  0
    0.9922   -9.3232   16.5995 O   0  0  0  0  0  0  0  0  0  0  0  0
    1.5232   -7.6869   27.1182 C   0  0  0  0  0  0  0  0  0  0  0  0
    8.6878   -6.6715   27.7262 N   0  0  0  0  0  0  0  0  0  0  0  0
    6.9911   -8.2423   27.1808 C   0  0  0  0  0  0  0  0  0  0  0  0
    3.8436   -7.2758   16.0578 C   0  0  0  0  0  0  0  0  0  0  0  0
    3.1882   -9.7190   17.2566 C   0  0  0  0  0  0  0  0  0  0  0  0
    5.3488   -6.1737   26.5092 C   0  0  0  0  0  0  0  0  0  0  0  0
    7.4567   -6.9464   27.2858 C   0  0  0  0  0  0  0  0  0  0  0  0
    0.1921   -5.7592   27.1123 C   0  0  0  0  0  0  0  0  0  0  0  0
    3.5517   -7.7407   25.9711 C   0  0  0  0  0  0  0  0  0  0  0  0
  1  4  4  0
  1 22  4  0
  2 20  4  0
  2 27  4  0
  3 12  4  0
  3 23  4  0
  4 25  4  0
  4 28  1  0
  5  8  4  0
  5 17  4  0
  6  7  4  0
  6 16  4  0
  7 18  4  0
  8 27  4  0
  9 13  4  0
  9 23  4  0
 10 11  1  0
 11 14  2  0
 11 27  1  0
 12 19  1  0
 12 24  4  0
 13 24  4  0
 15 18  1  0
 16 25  4  0
 16 26  4  0
 17 20  4  0
 17 28  1  0
 18 21  4  0
 21 26  4  0
 22 26  4  0
M  END
$$$$

 Created by Python create_sdf_string function

 28 30  0  0  0  0  0  0  0  0999 V2000
    5.7174   -8.4529   26.7190 C   0  0  0  0  0  0  0  0  0  0  0  0
    0.3974   -7.0711   27.5149 C   0  0  0  0  0  0  0  0  0  0  0  0
    2.5338   -7.6891   16.0102 C   0  0  0  0  0  0  0  0  0  0  0  0
    4.8690   -7.4380   26.4151 C   0  0  0  0  0  0  0  0  0  0  0  0
    2.3021   -5.6726   26.0378 C   0  0  0  0  0  0  0  0  0  0  0  0
    7.0880   -4.6163   27.0010 C   0  0  0  0  0  0  0  0  0  0  0  0
    8.3117   -4.3698   27.4436 C   0  0  0  0  0  0  0  0  0  0  0  0
    1.1339   -5.0515   26.3541 C   0  0  0  0  0  0  0  0  0  0  0  0
    4.8080   -8.0362   16.7101 C   0  0  0  0  0  0  0  0  0  0  0  0
   -1.2173   -3.9294   26.9717 O   0  0  0  0  0  0  0  0  0  0  0  0
   -1.0025   -5.0942   27.4586 C   0  0  0  0  0  0  0  0  0  0  0  0
    2.2474   -8.9123   16.6273 C   0  0  0  0  0  0  0  0  0  0  0  0
    4.4957   -9.2636   17.3041 C   0  0  0  0  0  0  0  0  0  0  0  0
   -1.8070   -5.6086   28.1920 O   0  0  0  0  0  0  0  0  0  0  0  0
   10.4296   -5.1799   28.3140 C   0  0  0  0  0  0  0  0  0  0  0  0
    6.6017   -5.9004   26.9187 C   0  0  0  0  0  0  0  0  0  0  0  0
    2.4761   -6.9940   26.4111 N   0  0  0  0  0  0  0  0  0  0  0  0
    9.1353   -5.4053   27.8239 C   0  0  0  0  0  0  0  0  0  0  0  0
    0.9922   -9.3232   16.5995 O   0  0  0  0  0  0  0  0  0  0  0  0
    1.5232   -7.6869   27.1182 C   0  0  0  0  0  0  0  0  0  0  0  0
    8.6878   -6.6715   27.7262 N   0  0  0  0  0  0  0  0  0  0  0  0
    6.9911   -8.2423   27.1808 C   0  0  0  0  0  0  0  0  0  0  0  0
    3.8436   -7.2758   16.0578 C   0  0  0  0  0  0  0  0  0  0  0  0
    3.1882   -9.7190   17.2566 C   0  0  0  0  0  0  0  0  0  0  0  0
    5.3488   -6.1737   26.5092 C   0  0  0  0  0  0  0  0  0  0  0  0
    7.4567   -6.9464   27.2858 C   0  0  0  0  0  0  0  0  0  0  0  0
    0.1921   -5.7592   27.1123 C   0  0  0  0  0  0  0  0  0  0  0  0
    3.5517   -7.7407   25.9711 C   0  0  0  0  0  0  0  0  0  0  0  0
  1  4  4  0
  1 22  4  0
  2 20  4  0
  2 27  4  0
  3 12  4  0
  3 23  4  0
  4 25  4  0
  4 28  1  0
  5  8  4  0
  5 17  4  0
  6  7  4  0
  6 16  4  0
  7 18  4  0
  8 27  4  0
  9 13  4  0
  9 23  4  0
 10 11  1  0
 11 14  2  0
 11 27  1  0
 12 19  1  0
 12 24  4  0
 13 24  4  0
 15 18  1  0
 16 25  4  0
 16 26  4  0
 17 20  4  0
 17 28  1  0
 18 21  4  0
 21 26  4  0
 22 26  4  0
M  END
$$$$

 Created by Python create_sdf_string function

 28 30  0  0  0  0  0  0  0  0999 V2000
    5.7174   -8.4529   26.7190 C   0  0  0  0  0  0  0  0  0  0  0  0
    0.3974   -7.0711   27.5149 C   0  0  0  0  0  0  0  0  0  0  0  0
    2.5338   -7.6891   16.0102 C   0  0  0  0  0  0  0  0  0  0  0  0
    4.8690   -7.4380   26.4151 C   0  0  0  0  0  0  0  0  0  0  0  0
    2.3021   -5.6726   26.0378 C   0  0  0  0  0  0  0  0  0  0  0  0
    7.0880   -4.6163   27.0010 C   0  0  0  0  0  0  0  0  0  0  0  0
    8.3117   -4.3698   27.4436 C   0  0  0  0  0  0  0  0  0  0  0  0
    1.1339   -5.0515   26.3541 C   0  0  0  0  0  0  0  0  0  0  0  0
    4.8080   -8.0362   16.7101 C   0  0  0  0  0  0  0  0  0  0  0  0
   -1.2173   -3.9294   26.9717 O   0  0  0  0  0  0  0  0  0  0  0  0
   -1.0025   -5.0942   27.4586 C   0  0  0  0  0  0  0  0  0  0  0  0
    2.2474   -8.9123   16.6273 C   0  0  0  0  0  0  0  0  0  0  0  0
    4.4957   -9.2636   17.3041 C   0  0  0  0  0  0  0  0  0  0  0  0
   -1.8070   -5.6086   28.1920 O   0  0  0  0  0  0  0  0  0  0  0  0
   10.4296   -5.1799   28.3140 C   0  0  0  0  0  0  0  0  0  0  0  0
    6.6017   -5.9004   26.9187 C   0  0  0  0  0  0  0  0  0  0  0  0
    2.4761   -6.9940   26.4111 N   0  0  0  0  0  0  0  0  0  0  0  0
    9.1353   -5.4053   27.8239 C   0  0  0  0  0  0  0  0  0  0  0  0
    0.9922   -9.3232   16.5995 O   0  0  0  0  0  0  0  0  0  0  0  0
    1.5232   -7.6869   27.1182 C   0  0  0  0  0  0  0  0  0  0  0  0
    8.6878   -6.6715   27.7262 N   0  0  0  0  0  0  0  0  0  0  0  0
    6.9911   -8.2423   27.1808 C   0  0  0  0  0  0  0  0  0  0  0  0
    3.8436   -7.2758   16.0578 C   0  0  0  0  0  0  0  0  0  0  0  0
    3.1882   -9.7190   17.2566 C   0  0  0  0  0  0  0  0  0  0  0  0
    5.3488   -6.1737   26.5092 C   0  0  0  0  0  0  0  0  0  0  0  0
    7.4567   -6.9464   27.2858 C   0  0  0  0  0  0  0  0  0  0  0  0
    0.1921   -5.7592   27.1123 C   0  0  0  0  0  0  0  0  0  0  0  0
    3.5517   -7.7407   25.9711 C   0  0  0  0  0  0  0  0  0  0  0  0
  1  4  4  0
  1 22  4  0
  2 20  4  0
  2 27  4  0
  3 12  4  0
  3 23  4  0
  4 25  4  0
  4 28  1  0
  5  8  4  0
  5 17  4  0
  6  7  4  0
  6 16  4  0
  7 18  4  0
  8 27  4  0
  9 13  4  0
  9 23  4  0
 10 11  1  0
 11 14  2  0
 11 27  1  0
 12 19  1  0
 12 24  4  0
 13 24  4  0
 15 18  1  0
 16 25  4  0
 16 26  4  0
 17 20  4  0
 17 28  1  0
 18 21  4  0
 21 26  4  0
 22 26  4  0
M  END
$$$$

 Created by Python create_sdf_string function

 28 30  0  0  0  0  0  0  0  0999 V2000
    5.7174   -8.4529   26.7190 C   0  0  0  0  0  0  0  0  0  0  0  0
    0.3974   -7.0711   27.5149 C   0  0  0  0  0  0  0  0  0  0  0  0
    2.5338   -7.6891   16.0102 C   0  0  0  0  0  0  0  0  0  0  0  0
    4.8690   -7.4380   26.4151 C   0  0  0  0  0  0  0  0  0  0  0  0
    2.3021   -5.6726   26.0378 C   0  0  0  0  0  0  0  0  0  0  0  0
    7.0880   -4.6163   27.0010 C   0  0  0  0  0  0  0  0  0  0  0  0
    8.3117   -4.3698   27.4436 C   0  0  0  0  0  0  0  0  0  0  0  0
    1.1339   -5.0515   26.3541 C   0  0  0  0  0  0  0  0  0  0  0  0
    4.8080   -8.0362   16.7101 C   0  0  0  0  0  0  0  0  0  0  0  0
   -1.2173   -3.9294   26.9717 O   0  0  0  0  0  0  0  0  0  0  0  0
   -1.0025   -5.0942   27.4586 C   0  0  0  0  0  0  0  0  0  0  0  0
    2.2474   -8.9123   16.6273 C   0  0  0  0  0  0  0  0  0  0  0  0
    4.4957   -9.2636   17.3041 C   0  0  0  0  0  0  0  0  0  0  0  0
   -1.8070   -5.6086   28.1920 O   0  0  0  0  0  0  0  0  0  0  0  0
   10.4296   -5.1799   28.3140 C   0  0  0  0  0  0  0  0  0  0  0  0
    6.6017   -5.9004   26.9187 C   0  0  0  0  0  0  0  0  0  0  0  0
    2.4761   -6.9940   26.4111 N   0  0  0  0  0  0  0  0  0  0  0  0
    9.1353   -5.4053   27.8239 C   0  0  0  0  0  0  0  0  0  0  0  0
    0.9922   -9.3232   16.5995 O   0  0  0  0  0  0  0  0  0  0  0  0
    1.5232   -7.6869   27.1182 C   0  0  0  0  0  0  0  0  0  0  0  0
    8.6878   -6.6715   27.7262 N   0  0  0  0  0  0  0  0  0  0  0  0
    6.9911   -8.2423   27.1808 C   0  0  0  0  0  0  0  0  0  0  0  0
    3.8436   -7.2758   16.0578 C   0  0  0  0  0  0  0  0  0  0  0  0
    3.1882   -9.7190   17.2566 C   0  0  0  0  0  0  0  0  0  0  0  0
    5.3488   -6.1737   26.5092 C   0  0  0  0  0  0  0  0  0  0  0  0
    7.4567   -6.9464   27.2858 C   0  0  0  0  0  0  0  0  0  0  0  0
    0.1921   -5.7592   27.1123 C   0  0  0  0  0  0  0  0  0  0  0  0
    3.5517   -7.7407   25.9711 C   0  0  0  0  0  0  0  0  0  0  0  0
  1  4  4  0
  1 22  4  0
  2 20  4  0
  2 27  4  0
  3 12  4  0
  3 23  4  0
  4 25  4  0
  4 28  1  0
  5  8  4  0
  5 17  4  0
  6  7  4  0
  6 16  4  0
  7 18  4  0
  8 27  4  0
  9 13  4  0
  9 23  4  0
 10 11  1  0
 11 14  2  0
 11 27  1  0
 12 19  1  0
 12 24  4  0
 13 24  4  0
 15 18  1  0
 16 25  4  0
 16 26  4  0
 17 20  4  0
 17 28  1  0
 18 21  4  0
 21 26  4  0
 22 26  4  0
M  END
$$$$

 Created by Python create_sdf_string function

 28 30  0  0  0  0  0  0  0  0999 V2000
    5.7174   -8.4529   26.7190 C   0  0  0  0  0  0  0  0  0  0  0  0
    0.3974   -7.0711   27.5149 C   0  0  0  0  0  0  0  0  0  0  0  0
    2.5338   -7.6891   16.0102 C   0  0  0  0  0  0  0  0  0  0  0  0
    4.8690   -7.4380   26.4151 C   0  0  0  0  0  0  0  0  0  0  0  0
    2.3021   -5.6726   26.0378 C   0  0  0  0  0  0  0  0  0  0  0  0
    7.0880   -4.6163   27.0010 C   0  0  0  0  0  0  0  0  0  0  0  0
    8.3117   -4.3698   27.4436 C   0  0  0  0  0  0  0  0  0  0  0  0
    1.1339   -5.0515   26.3541 C   0  0  0  0  0  0  0  0  0  0  0  0
    4.8080   -8.0362   16.7101 C   0  0  0  0  0  0  0  0  0  0  0  0
   -1.2173   -3.9294   26.9717 O   0  0  0  0  0  0  0  0  0  0  0  0
   -1.0025   -5.0942   27.4586 C   0  0  0  0  0  0  0  0  0  0  0  0
    2.2474   -8.9123   16.6273 C   0  0  0  0  0  0  0  0  0  0  0  0
    4.4957   -9.2636   17.3041 C   0  0  0  0  0  0  0  0  0  0  0  0
   -1.8070   -5.6086   28.1920 O   0  0  0  0  0  0  0  0  0  0  0  0
   10.4296   -5.1799   28.3140 C   0  0  0  0  0  0  0  0  0  0  0  0
    6.6017   -5.9004   26.9187 C   0  0  0  0  0  0  0  0  0  0  0  0
    2.4761   -6.9940   26.4111 N   0  0  0  0  0  0  0  0  0  0  0  0
    9.1353   -5.4053   27.8239 C   0  0  0  0  0  0  0  0  0  0  0  0
    0.9922   -9.3232   16.5995 O   0  0  0  0  0  0  0  0  0  0  0  0
    1.5232   -7.6869   27.1182 C   0  0  0  0  0  0  0  0  0  0  0  0
    8.6878   -6.6715   27.7262 N   0  0  0  0  0  0  0  0  0  0  0  0
    6.9911   -8.2423   27.1808 C   0  0  0  0  0  0  0  0  0  0  0  0
    3.8436   -7.2758   16.0578 C   0  0  0  0  0  0  0  0  0  0  0  0
    3.1882   -9.7190   17.2566 C   0  0  0  0  0  0  0  0  0  0  0  0
    5.3488   -6.1737   26.5092 C   0  0  0  0  0  0  0  0  0  0  0  0
    7.4567   -6.9464   27.2858 C   0  0  0  0  0  0  0  0  0  0  0  0
    0.1921   -5.7592   27.1123 C   0  0  0  0  0  0  0  0  0  0  0  0
    3.5517   -7.7407   25.9711 C   0  0  0  0  0  0  0  0  0  0  0  0
  1  4  4  0
  1 22  4  0
  2 20  4  0
  2 27  4  0
  3 12  4  0
  3 23  4  0
  4 25  4  0
  4 28  1  0
  5  8  4  0
  5 17  4  0
  6  7  4  0
  6 16  4  0
  7 18  4  0
  8 27  4  0
  9 13  4  0
  9 23  4  0
 10 11  1  0
 11 14  2  0
 11 27  1  0
 12 19  1  0
 12 24  4  0
 13 24  4  0
 15 18  1  0
 16 25  4  0
 16 26  4  0
 17 20  4  0
 17 28  1  0
 18 21  4  0
 21 26  4  0
 22 26  4  0
M  END
$$$$

 Created by Python create_sdf_string function

 28 30  0  0  0  0  0  0  0  0999 V2000
    5.7174   -8.4529   26.7190 C   0  0  0  0  0  0  0  0  0  0  0  0
    0.3974   -7.0711   27.5149 C   0  0  0  0  0  0  0  0  0  0  0  0
    2.5338   -7.6891   16.0102 C   0  0  0  0  0  0  0  0  0  0  0  0
    4.8690   -7.4380   26.4151 C   0  0  0  0  0  0  0  0  0  0  0  0
    2.3021   -5.6726   26.0378 C   0  0  0  0  0  0  0  0  0  0  0  0
    7.0880   -4.6163   27.0010 C   0  0  0  0  0  0  0  0  0  0  0  0
    8.3117   -4.3698   27.4436 C   0  0  0  0  0  0  0  0  0  0  0  0
    1.1339   -5.0515   26.3541 C   0  0  0  0  0  0  0  0  0  0  0  0
    4.8080   -8.0362   16.7101 C   0  0  0  0  0  0  0  0  0  0  0  0
   -1.2173   -3.9294   26.9717 O   0  0  0  0  0  0  0  0  0  0  0  0
   -1.0025   -5.0942   27.4586 C   0  0  0  0  0  0  0  0  0  0  0  0
    2.2474   -8.9123   16.6273 C   0  0  0  0  0  0  0  0  0  0  0  0
    4.4957   -9.2636   17.3041 C   0  0  0  0  0  0  0  0  0  0  0  0
   -1.8070   -5.6086   28.1920 O   0  0  0  0  0  0  0  0  0  0  0  0
   10.4296   -5.1799   28.3140 C   0  0  0  0  0  0  0  0  0  0  0  0
    6.6017   -5.9004   26.9187 C   0  0  0  0  0  0  0  0  0  0  0  0
    2.4761   -6.9940   26.4111 N   0  0  0  0  0  0  0  0  0  0  0  0
    9.1353   -5.4053   27.8239 C   0  0  0  0  0  0  0  0  0  0  0  0
    0.9922   -9.3232   16.5995 O   0  0  0  0  0  0  0  0  0  0  0  0
    1.5232   -7.6869   27.1182 C   0  0  0  0  0  0  0  0  0  0  0  0
    8.6878   -6.6715   27.7262 N   0  0  0  0  0  0  0  0  0  0  0  0
    6.9911   -8.2423   27.1808 C   0  0  0  0  0  0  0  0  0  0  0  0
    3.8436   -7.2758   16.0578 C   0  0  0  0  0  0  0  0  0  0  0  0
    3.1882   -9.7190   17.2566 C   0  0  0  0  0  0  0  0  0  0  0  0
    5.3488   -6.1737   26.5092 C   0  0  0  0  0  0  0  0  0  0  0  0
    7.4567   -6.9464   27.2858 C   0  0  0  0  0  0  0  0  0  0  0  0
    0.1921   -5.7592   27.1123 C   0  0  0  0  0  0  0  0  0  0  0  0
    3.5517   -7.7407   25.9711 C   0  0  0  0  0  0  0  0  0  0  0  0
  1  4  4  0
  1 22  4  0
  2 20  4  0
  2 27  4  0
  3 12  4  0
  3 23  4  0
  4 25  4  0
  4 28  1  0
  5  8  4  0
  5 17  4  0
  6  7  4  0
  6 16  4  0
  7 18  4  0
  8 27  4  0
  9 13  4  0
  9 23  4  0
 10 11  1  0
 11 14  2  0
 11 27  1  0
 12 19  1  0
 12 24  4  0
 13 24  4  0
 15 18  1  0
 16 25  4  0
 16 26  4  0
 17 20  4  0
 17 28  1  0
 18 21  4  0
 21 26  4  0
 22 26  4  0
M  END
$$$$

 Created by Python create_sdf_string function

 28 30  0  0  0  0  0  0  0  0999 V2000
    5.7174   -8.4529   26.7190 C   0  0  0  0  0  0  0  0  0  0  0  0
    0.3974   -7.0711   27.5149 C   0  0  0  0  0  0  0  0  0  0  0  0
    2.5338   -7.6891   16.0102 C   0  0  0  0  0  0  0  0  0  0  0  0
    4.8690   -7.4380   26.4151 C   0  0  0  0  0  0  0  0  0  0  0  0
    2.3021   -5.6726   26.0378 C   0  0  0  0  0  0  0  0  0  0  0  0
    7.0880   -4.6163   27.0010 C   0  0  0  0  0  0  0  0  0  0  0  0
    8.3117   -4.3698   27.4436 C   0  0  0  0  0  0  0  0  0  0  0  0
    1.1339   -5.0515   26.3541 C   0  0  0  0  0  0  0  0  0  0  0  0
    4.8080   -8.0362   16.7101 C   0  0  0  0  0  0  0  0  0  0  0  0
   -1.2173   -3.9294   26.9717 O   0  0  0  0  0  0  0  0  0  0  0  0
   -1.0025   -5.0942   27.4586 C   0  0  0  0  0  0  0  0  0  0  0  0
    2.2474   -8.9123   16.6273 C   0  0  0  0  0  0  0  0  0  0  0  0
    4.4957   -9.2636   17.3041 C   0  0  0  0  0  0  0  0  0  0  0  0
   -1.8070   -5.6086   28.1920 O   0  0  0  0  0  0  0  0  0  0  0  0
   10.4296   -5.1799   28.3140 C   0  0  0  0  0  0  0  0  0  0  0  0
    6.6017   -5.9004   26.9187 C   0  0  0  0  0  0  0  0  0  0  0  0
    2.4761   -6.9940   26.4111 N   0  0  0  0  0  0  0  0  0  0  0  0
    9.1353   -5.4053   27.8239 C   0  0  0  0  0  0  0  0  0  0  0  0
    0.9922   -9.3232   16.5995 O   0  0  0  0  0  0  0  0  0  0  0  0
    1.5232   -7.6869   27.1182 C   0  0  0  0  0  0  0  0  0  0  0  0
    8.6878   -6.6715   27.7262 N   0  0  0  0  0  0  0  0  0  0  0  0
    6.9911   -8.2423   27.1808 C   0  0  0  0  0  0  0  0  0  0  0  0
    3.8436   -7.2758   16.0578 C   0  0  0  0  0  0  0  0  0  0  0  0
    3.1882   -9.7190   17.2566 C   0  0  0  0  0  0  0  0  0  0  0  0
    5.3488   -6.1737   26.5092 C   0  0  0  0  0  0  0  0  0  0  0  0
    7.4567   -6.9464   27.2858 C   0  0  0  0  0  0  0  0  0  0  0  0
    0.1921   -5.7592   27.1123 C   0  0  0  0  0  0  0  0  0  0  0  0
    3.5517   -7.7407   25.9711 C   0  0  0  0  0  0  0  0  0  0  0  0
  1  4  4  0
  1 22  4  0
  2 20  4  0
  2 27  4  0
  3 12  4  0
  3 23  4  0
  4 25  4  0
  4 28  1  0
  5  8  4  0
  5 17  4  0
  6  7  4  0
  6 16  4  0
  7 18  4  0
  8 27  4  0
  9 13  4  0
  9 23  4  0
 10 11  1  0
 11 14  2  0
 11 27  1  0
 12 19  1  0
 12 24  4  0
 13 24  4  0
 15 18  1  0
 16 25  4  0
 16 26  4  0
 17 20  4  0
 17 28  1  0
 18 21  4  0
 21 26  4  0
 22 26  4  0
M  END
$$$$

 Created by Python create_sdf_string function

 28 30  0  0  0  0  0  0  0  0999 V2000
    5.7174   -8.4529   26.7190 C   0  0  0  0  0  0  0  0  0  0  0  0
    0.3974   -7.0711   27.5149 C   0  0  0  0  0  0  0  0  0  0  0  0
    2.5338   -7.6891   16.0102 C   0  0  0  0  0  0  0  0  0  0  0  0
    4.8690   -7.4380   26.4151 C   0  0  0  0  0  0  0  0  0  0  0  0
    2.3021   -5.6726   26.0378 C   0  0  0  0  0  0  0  0  0  0  0  0
    7.0880   -4.6163   27.0010 C   0  0  0  0  0  0  0  0  0  0  0  0
    8.3117   -4.3698   27.4436 C   0  0  0  0  0  0  0  0  0  0  0  0
    1.1339   -5.0515   26.3541 C   0  0  0  0  0  0  0  0  0  0  0  0
    4.8080   -8.0362   16.7101 C   0  0  0  0  0  0  0  0  0  0  0  0
   -1.2173   -3.9294   26.9717 O   0  0  0  0  0  0  0  0  0  0  0  0
   -1.0025   -5.0942   27.4586 C   0  0  0  0  0  0  0  0  0  0  0  0
    2.2474   -8.9123   16.6273 C   0  0  0  0  0  0  0  0  0  0  0  0
    4.4957   -9.2636   17.3041 C   0  0  0  0  0  0  0  0  0  0  0  0
   -1.8070   -5.6086   28.1920 O   0  0  0  0  0  0  0  0  0  0  0  0
   10.4296   -5.1799   28.3140 C   0  0  0  0  0  0  0  0  0  0  0  0
    6.6017   -5.9004   26.9187 C   0  0  0  0  0  0  0  0  0  0  0  0
    2.4761   -6.9940   26.4111 N   0  0  0  0  0  0  0  0  0  0  0  0
    9.1353   -5.4053   27.8239 C   0  0  0  0  0  0  0  0  0  0  0  0
    0.9922   -9.3232   16.5995 O   0  0  0  0  0  0  0  0  0  0  0  0
    1.5232   -7.6869   27.1182 C   0  0  0  0  0  0  0  0  0  0  0  0
    8.6878   -6.6715   27.7262 N   0  0  0  0  0  0  0  0  0  0  0  0
    6.9911   -8.2423   27.1808 C   0  0  0  0  0  0  0  0  0  0  0  0
    3.8436   -7.2758   16.0578 C   0  0  0  0  0  0  0  0  0  0  0  0
    3.1882   -9.7190   17.2566 C   0  0  0  0  0  0  0  0  0  0  0  0
    5.3488   -6.1737   26.5092 C   0  0  0  0  0  0  0  0  0  0  0  0
    7.4567   -6.9464   27.2858 C   0  0  0  0  0  0  0  0  0  0  0  0
    0.1921   -5.7592   27.1123 C   0  0  0  0  0  0  0  0  0  0  0  0
    3.5517   -7.7407   25.9711 C   0  0  0  0  0  0  0  0  0  0  0  0
  1  4  4  0
  1 22  4  0
  2 20  4  0
  2 27  4  0
  3 12  4  0
  3 23  4  0
  4 25  4  0
  4 28  1  0
  5  8  4  0
  5 17  4  0
  6  7  4  0
  6 16  4  0
  7 18  4  0
  8 27  4  0
  9 13  4  0
  9 23  4  0
 10 11  1  0
 11 14  2  0
 11 27  1  0
 12 19  1  0
 12 24  4  0
 13 24  4  0
 15 18  1  0
 16 25  4  0
 16 26  4  0
 17 20  4  0
 17 28  1  0
 18 21  4  0
 21 26  4  0
 22 26  4  0
M  END
$$$$

 Created by Python create_sdf_string function

 28 30  0  0  0  0  0  0  0  0999 V2000
    5.7174   -8.4529   26.7190 C   0  0  0  0  0  0  0  0  0  0  0  0
    0.3974   -7.0711   27.5149 C   0  0  0  0  0  0  0  0  0  0  0  0
    2.5338   -7.6891   16.0102 C   0  0  0  0  0  0  0  0  0  0  0  0
    4.8690   -7.4380   26.4151 C   0  0  0  0  0  0  0  0  0  0  0  0
    2.3021   -5.6726   26.0378 C   0  0  0  0  0  0  0  0  0  0  0  0
    7.0880   -4.6163   27.0010 C   0  0  0  0  0  0  0  0  0  0  0  0
    8.3117   -4.3698   27.4436 C   0  0  0  0  0  0  0  0  0  0  0  0
    1.1339   -5.0515   26.3541 C   0  0  0  0  0  0  0  0  0  0  0  0
    4.8080   -8.0362   16.7101 C   0  0  0  0  0  0  0  0  0  0  0  0
   -1.2173   -3.9294   26.9717 O   0  0  0  0  0  0  0  0  0  0  0  0
   -1.0025   -5.0942   27.4586 C   0  0  0  0  0  0  0  0  0  0  0  0
    2.2474   -8.9123   16.6273 C   0  0  0  0  0  0  0  0  0  0  0  0
    4.4957   -9.2636   17.3041 C   0  0  0  0  0  0  0  0  0  0  0  0
   -1.8070   -5.6086   28.1920 O   0  0  0  0  0  0  0  0  0  0  0  0
   10.4296   -5.1799   28.3140 C   0  0  0  0  0  0  0  0  0  0  0  0
    6.6017   -5.9004   26.9187 C   0  0  0  0  0  0  0  0  0  0  0  0
    2.4761   -6.9940   26.4111 N   0  0  0  0  0  0  0  0  0  0  0  0
    9.1353   -5.4053   27.8239 C   0  0  0  0  0  0  0  0  0  0  0  0
    0.9922   -9.3232   16.5995 O   0  0  0  0  0  0  0  0  0  0  0  0
    1.5232   -7.6869   27.1182 C   0  0  0  0  0  0  0  0  0  0  0  0
    8.6878   -6.6715   27.7262 N   0  0  0  0  0  0  0  0  0  0  0  0
    6.9911   -8.2423   27.1808 C   0  0  0  0  0  0  0  0  0  0  0  0
    3.8436   -7.2758   16.0578 C   0  0  0  0  0  0  0  0  0  0  0  0
    3.1882   -9.7190   17.2566 C   0  0  0  0  0  0  0  0  0  0  0  0
    5.3488   -6.1737   26.5092 C   0  0  0  0  0  0  0  0  0  0  0  0
    7.4567   -6.9464   27.2858 C   0  0  0  0  0  0  0  0  0  0  0  0
    0.1921   -5.7592   27.1123 C   0  0  0  0  0  0  0  0  0  0  0  0
    3.5517   -7.7407   25.9711 C   0  0  0  0  0  0  0  0  0  0  0  0
  1  4  4  0
  1 22  4  0
  2 20  4  0
  2 27  4  0
  3 12  4  0
  3 23  4  0
  4 25  4  0
  4 28  1  0
  5  8  4  0
  5 17  4  0
  6  7  4  0
  6 16  4  0
  7 18  4  0
  8 27  4  0
  9 13  4  0
  9 23  4  0
 10 11  1  0
 11 14  2  0
 11 27  1  0
 12 19  1  0
 12 24  4  0
 13 24  4  0
 15 18  1  0
 16 25  4  0
 16 26  4  0
 17 20  4  0
 17 28  1  0
 18 21  4  0
 21 26  4  0
 22 26  4  0
M  END
$$$$

 Created by Python create_sdf_string function

 28 30  0  0  0  0  0  0  0  0999 V2000
    5.7174   -8.4529   26.7190 C   0  0  0  0  0  0  0  0  0  0  0  0
    0.3974   -7.0711   27.5149 C   0  0  0  0  0  0  0  0  0  0  0  0
    2.5338   -7.6891   16.0102 C   0  0  0  0  0  0  0  0  0  0  0  0
    4.8690   -7.4380   26.4151 C   0  0  0  0  0  0  0  0  0  0  0  0
    2.3021   -5.6726   26.0378 C   0  0  0  0  0  0  0  0  0  0  0  0
    7.0880   -4.6163   27.0010 C   0  0  0  0  0  0  0  0  0  0  0  0
    8.3117   -4.3698   27.4436 C   0  0  0  0  0  0  0  0  0  0  0  0
    1.1339   -5.0515   26.3541 C   0  0  0  0  0  0  0  0  0  0  0  0
    4.8080   -8.0362   16.7101 C   0  0  0  0  0  0  0  0  0  0  0  0
   -1.2173   -3.9294   26.9717 O   0  0  0  0  0  0  0  0  0  0  0  0
   -1.0025   -5.0942   27.4586 C   0  0  0  0  0  0  0  0  0  0  0  0
    2.2474   -8.9123   16.6273 C   0  0  0  0  0  0  0  0  0  0  0  0
    4.4957   -9.2636   17.3041 C   0  0  0  0  0  0  0  0  0  0  0  0
   -1.8070   -5.6086   28.1920 O   0  0  0  0  0  0  0  0  0  0  0  0
   10.4296   -5.1799   28.3140 C   0  0  0  0  0  0  0  0  0  0  0  0
    6.6017   -5.9004   26.9187 C   0  0  0  0  0  0  0  0  0  0  0  0
    2.4761   -6.9940   26.4111 N   0  0  0  0  0  0  0  0  0  0  0  0
    9.1353   -5.4053   27.8239 C   0  0  0  0  0  0  0  0  0  0  0  0
    0.9922   -9.3232   16.5995 O   0  0  0  0  0  0  0  0  0  0  0  0
    1.5232   -7.6869   27.1182 C   0  0  0  0  0  0  0  0  0  0  0  0
    8.6878   -6.6715   27.7262 N   0  0  0  0  0  0  0  0  0  0  0  0
    6.9911   -8.2423   27.1808 C   0  0  0  0  0  0  0  0  0  0  0  0
    3.8436   -7.2758   16.0578 C   0  0  0  0  0  0  0  0  0  0  0  0
    3.1882   -9.7190   17.2566 C   0  0  0  0  0  0  0  0  0  0  0  0
    5.3488   -6.1737   26.5092 C   0  0  0  0  0  0  0  0  0  0  0  0
    7.4567   -6.9464   27.2858 C   0  0  0  0  0  0  0  0  0  0  0  0
    0.1921   -5.7592   27.1123 C   0  0  0  0  0  0  0  0  0  0  0  0
    3.5517   -7.7407   25.9711 C   0  0  0  0  0  0  0  0  0  0  0  0
  1  4  4  0
  1 22  4  0
  2 20  4  0
  2 27  4  0
  3 12  4  0
  3 23  4  0
  4 25  4  0
  4 28  1  0
  5  8  4  0
  5 17  4  0
  6  7  4  0
  6 16  4  0
  7 18  4  0
  8 27  4  0
  9 13  4  0
  9 23  4  0
 10 11  1  0
 11 14  2  0
 11 27  1  0
 12 19  1  0
 12 24  4  0
 13 24  4  0
 15 18  1  0
 16 25  4  0
 16 26  4  0
 17 20  4  0
 17 28  1  0
 18 21  4  0
 21 26  4  0
 22 26  4  0
M  END
$$$$

 Created by Python create_sdf_string function

 28 30  0  0  0  0  0  0  0  0999 V2000
    5.7174   -8.4529   26.7190 C   0  0  0  0  0  0  0  0  0  0  0  0
    0.3974   -7.0711   27.5149 C   0  0  0  0  0  0  0  0  0  0  0  0
    2.5338   -7.6891   16.0102 C   0  0  0  0  0  0  0  0  0  0  0  0
    4.8690   -7.4380   26.4151 C   0  0  0  0  0  0  0  0  0  0  0  0
    2.3021   -5.6726   26.0378 C   0  0  0  0  0  0  0  0  0  0  0  0
    7.0880   -4.6163   27.0010 C   0  0  0  0  0  0  0  0  0  0  0  0
    8.3117   -4.3698   27.4436 C   0  0  0  0  0  0  0  0  0  0  0  0
    1.1339   -5.0515   26.3541 C   0  0  0  0  0  0  0  0  0  0  0  0
    4.8080   -8.0362   16.7101 C   0  0  0  0  0  0  0  0  0  0  0  0
   -1.2173   -3.9294   26.9717 O   0  0  0  0  0  0  0  0  0  0  0  0
   -1.0025   -5.0942   27.4586 C   0  0  0  0  0  0  0  0  0  0  0  0
    2.2474   -8.9123   16.6273 C   0  0  0  0  0  0  0  0  0  0  0  0
    4.4957   -9.2636   17.3041 C   0  0  0  0  0  0  0  0  0  0  0  0
   -1.8070   -5.6086   28.1920 O   0  0  0  0  0  0  0  0  0  0  0  0
   10.4296   -5.1799   28.3140 C   0  0  0  0  0  0  0  0  0  0  0  0
    6.6017   -5.9004   26.9187 C   0  0  0  0  0  0  0  0  0  0  0  0
    2.4761   -6.9940   26.4111 N   0  0  0  0  0  0  0  0  0  0  0  0
    9.1353   -5.4053   27.8239 C   0  0  0  0  0  0  0  0  0  0  0  0
    0.9922   -9.3232   16.5995 O   0  0  0  0  0  0  0  0  0  0  0  0
    1.5232   -7.6869   27.1182 C   0  0  0  0  0  0  0  0  0  0  0  0
    8.6878   -6.6715   27.7262 N   0  0  0  0  0  0  0  0  0  0  0  0
    6.9911   -8.2423   27.1808 C   0  0  0  0  0  0  0  0  0  0  0  0
    3.8436   -7.2758   16.0578 C   0  0  0  0  0  0  0  0  0  0  0  0
    3.1882   -9.7190   17.2566 C   0  0  0  0  0  0  0  0  0  0  0  0
    5.3488   -6.1737   26.5092 C   0  0  0  0  0  0  0  0  0  0  0  0
    7.4567   -6.9464   27.2858 C   0  0  0  0  0  0  0  0  0  0  0  0
    0.1921   -5.7592   27.1123 C   0  0  0  0  0  0  0  0  0  0  0  0
    3.5517   -7.7407   25.9711 C   0  0  0  0  0  0  0  0  0  0  0  0
  1  4  4  0
  1 22  4  0
  2 20  4  0
  2 27  4  0
  3 12  4  0
  3 23  4  0
  4 25  4  0
  4 28  1  0
  5  8  4  0
  5 17  4  0
  6  7  4  0
  6 16  4  0
  7 18  4  0
  8 27  4  0
  9 13  4  0
  9 23  4  0
 10 11  1  0
 11 14  2  0
 11 27  1  0
 12 19  1  0
 12 24  4  0
 13 24  4  0
 15 18  1  0
 16 25  4  0
 16 26  4  0
 17 20  4  0
 17 28  1  0
 18 21  4  0
 21 26  4  0
 22 26  4  0
M  END
$$$$

 Created by Python create_sdf_string function

 28 30  0  0  0  0  0  0  0  0999 V2000
    5.7174   -8.4529   26.7190 C   0  0  0  0  0  0  0  0  0  0  0  0
    0.3974   -7.0711   27.5149 C   0  0  0  0  0  0  0  0  0  0  0  0
    2.5338   -7.6891   16.0102 C   0  0  0  0  0  0  0  0  0  0  0  0
    4.8690   -7.4380   26.4151 C   0  0  0  0  0  0  0  0  0  0  0  0
    2.3021   -5.6726   26.0378 C   0  0  0  0  0  0  0  0  0  0  0  0
    7.0880   -4.6163   27.0010 C   0  0  0  0  0  0  0  0  0  0  0  0
    8.3117   -4.3698   27.4436 C   0  0  0  0  0  0  0  0  0  0  0  0
    1.1339   -5.0515   26.3541 C   0  0  0  0  0  0  0  0  0  0  0  0
    4.8080   -8.0362   16.7101 C   0  0  0  0  0  0  0  0  0  0  0  0
   -1.2173   -3.9294   26.9717 O   0  0  0  0  0  0  0  0  0  0  0  0
   -1.0025   -5.0942   27.4586 C   0  0  0  0  0  0  0  0  0  0  0  0
    2.2474   -8.9123   16.6273 C   0  0  0  0  0  0  0  0  0  0  0  0
    4.4957   -9.2636   17.3041 C   0  0  0  0  0  0  0  0  0  0  0  0
   -1.8070   -5.6086   28.1920 O   0  0  0  0  0  0  0  0  0  0  0  0
   10.4296   -5.1799   28.3140 C   0  0  0  0  0  0  0  0  0  0  0  0
    6.6017   -5.9004   26.9187 C   0  0  0  0  0  0  0  0  0  0  0  0
    2.4761   -6.9940   26.4111 N   0  0  0  0  0  0  0  0  0  0  0  0
    9.1353   -5.4053   27.8239 C   0  0  0  0  0  0  0  0  0  0  0  0
    0.9922   -9.3232   16.5995 O   0  0  0  0  0  0  0  0  0  0  0  0
    1.5232   -7.6869   27.1182 C   0  0  0  0  0  0  0  0  0  0  0  0
    8.6878   -6.6715   27.7262 N   0  0  0  0  0  0  0  0  0  0  0  0
    6.9911   -8.2423   27.1808 C   0  0  0  0  0  0  0  0  0  0  0  0
    3.8436   -7.2758   16.0578 C   0  0  0  0  0  0  0  0  0  0  0  0
    3.1882   -9.7190   17.2566 C   0  0  0  0  0  0  0  0  0  0  0  0
    5.3488   -6.1737   26.5092 C   0  0  0  0  0  0  0  0  0  0  0  0
    7.4567   -6.9464   27.2858 C   0  0  0  0  0  0  0  0  0  0  0  0
    0.1921   -5.7592   27.1123 C   0  0  0  0  0  0  0  0  0  0  0  0
    3.5517   -7.7407   25.9711 C   0  0  0  0  0  0  0  0  0  0  0  0
  1  4  4  0
  1 22  4  0
  2 20  4  0
  2 27  4  0
  3 12  4  0
  3 23  4  0
  4 25  4  0
  4 28  1  0
  5  8  4  0
  5 17  4  0
  6  7  4  0
  6 16  4  0
  7 18  4  0
  8 27  4  0
  9 13  4  0
  9 23  4  0
 10 11  1  0
 11 14  2  0
 11 27  1  0
 12 19  1  0
 12 24  4  0
 13 24  4  0
 15 18  1  0
 16 25  4  0
 16 26  4  0
 17 20  4  0
 17 28  1  0
 18 21  4  0
 21 26  4  0
 22 26  4  0
M  END
$$$$

 Created by Python create_sdf_string function

 28 30  0  0  0  0  0  0  0  0999 V2000
    5.7174   -8.4529   26.7190 C   0  0  0  0  0  0  0  0  0  0  0  0
    0.3974   -7.0711   27.5149 C   0  0  0  0  0  0  0  0  0  0  0  0
    2.5338   -7.6891   16.0102 C   0  0  0  0  0  0  0  0  0  0  0  0
    4.8690   -7.4380   26.4151 C   0  0  0  0  0  0  0  0  0  0  0  0
    2.3021   -5.6726   26.0378 C   0  0  0  0  0  0  0  0  0  0  0  0
    7.0880   -4.6163   27.0010 C   0  0  0  0  0  0  0  0  0  0  0  0
    8.3117   -4.3698   27.4436 C   0  0  0  0  0  0  0  0  0  0  0  0
    1.1339   -5.0515   26.3541 C   0  0  0  0  0  0  0  0  0  0  0  0
    4.8080   -8.0362   16.7101 C   0  0  0  0  0  0  0  0  0  0  0  0
   -1.2173   -3.9294   26.9717 O   0  0  0  0  0  0  0  0  0  0  0  0
   -1.0025   -5.0942   27.4586 C   0  0  0  0  0  0  0  0  0  0  0  0
    2.2474   -8.9123   16.6273 C   0  0  0  0  0  0  0  0  0  0  0  0
    4.4957   -9.2636   17.3041 C   0  0  0  0  0  0  0  0  0  0  0  0
   -1.8070   -5.6086   28.1920 O   0  0  0  0  0  0  0  0  0  0  0  0
   10.4296   -5.1799   28.3140 C   0  0  0  0  0  0  0  0  0  0  0  0
    6.6017   -5.9004   26.9187 C   0  0  0  0  0  0  0  0  0  0  0  0
    2.4761   -6.9940   26.4111 N   0  0  0  0  0  0  0  0  0  0  0  0
    9.1353   -5.4053   27.8239 C   0  0  0  0  0  0  0  0  0  0  0  0
    0.9922   -9.3232   16.5995 O   0  0  0  0  0  0  0  0  0  0  0  0
    1.5232   -7.6869   27.1182 C   0  0  0  0  0  0  0  0  0  0  0  0
    8.6878   -6.6715   27.7262 N   0  0  0  0  0  0  0  0  0  0  0  0
    6.9911   -8.2423   27.1808 C   0  0  0  0  0  0  0  0  0  0  0  0
    3.8436   -7.2758   16.0578 C   0  0  0  0  0  0  0  0  0  0  0  0
    3.1882   -9.7190   17.2566 C   0  0  0  0  0  0  0  0  0  0  0  0
    5.3488   -6.1737   26.5092 C   0  0  0  0  0  0  0  0  0  0  0  0
    7.4567   -6.9464   27.2858 C   0  0  0  0  0  0  0  0  0  0  0  0
    0.1921   -5.7592   27.1123 C   0  0  0  0  0  0  0  0  0  0  0  0
    3.5517   -7.7407   25.9711 C   0  0  0  0  0  0  0  0  0  0  0  0
  1  4  4  0
  1 22  4  0
  2 20  4  0
  2 27  4  0
  3 12  4  0
  3 23  4  0
  4 25  4  0
  4 28  1  0
  5  8  4  0
  5 17  4  0
  6  7  4  0
  6 16  4  0
  7 18  4  0
  8 27  4  0
  9 13  4  0
  9 23  4  0
 10 11  1  0
 11 14  2  0
 11 27  1  0
 12 19  1  0
 12 24  4  0
 13 24  4  0
 15 18  1  0
 16 25  4  0
 16 26  4  0
 17 20  4  0
 17 28  1  0
 18 21  4  0
 21 26  4  0
 22 26  4  0
M  END
$$$$

 Created by Python create_sdf_string function

 28 30  0  0  0  0  0  0  0  0999 V2000
    5.7174   -8.4529   26.7190 C   0  0  0  0  0  0  0  0  0  0  0  0
    0.3974   -7.0711   27.5149 C   0  0  0  0  0  0  0  0  0  0  0  0
    2.5338   -7.6891   16.0102 C   0  0  0  0  0  0  0  0  0  0  0  0
    4.8690   -7.4380   26.4151 C   0  0  0  0  0  0  0  0  0  0  0  0
    2.3021   -5.6726   26.0378 C   0  0  0  0  0  0  0  0  0  0  0  0
    7.0880   -4.6163   27.0010 C   0  0  0  0  0  0  0  0  0  0  0  0
    8.3117   -4.3698   27.4436 C   0  0  0  0  0  0  0  0  0  0  0  0
    1.1339   -5.0515   26.3541 C   0  0  0  0  0  0  0  0  0  0  0  0
    4.8080   -8.0362   16.7101 C   0  0  0  0  0  0  0  0  0  0  0  0
   -1.2173   -3.9294   26.9717 O   0  0  0  0  0  0  0  0  0  0  0  0
   -1.0025   -5.0942   27.4586 C   0  0  0  0  0  0  0  0  0  0  0  0
    2.2474   -8.9123   16.6273 C   0  0  0  0  0  0  0  0  0  0  0  0
    4.4957   -9.2636   17.3041 C   0  0  0  0  0  0  0  0  0  0  0  0
   -1.8070   -5.6086   28.1920 O   0  0  0  0  0  0  0  0  0  0  0  0
   10.4296   -5.1799   28.3140 C   0  0  0  0  0  0  0  0  0  0  0  0
    6.6017   -5.9004   26.9187 C   0  0  0  0  0  0  0  0  0  0  0  0
    2.4761   -6.9940   26.4111 N   0  0  0  0  0  0  0  0  0  0  0  0
    9.1353   -5.4053   27.8239 C   0  0  0  0  0  0  0  0  0  0  0  0
    0.9922   -9.3232   16.5995 O   0  0  0  0  0  0  0  0  0  0  0  0
    1.5232   -7.6869   27.1182 C   0  0  0  0  0  0  0  0  0  0  0  0
    8.6878   -6.6715   27.7262 N   0  0  0  0  0  0  0  0  0  0  0  0
    6.9911   -8.2423   27.1808 C   0  0  0  0  0  0  0  0  0  0  0  0
    3.8436   -7.2758   16.0578 C   0  0  0  0  0  0  0  0  0  0  0  0
    3.1882   -9.7190   17.2566 C   0  0  0  0  0  0  0  0  0  0  0  0
    5.3488   -6.1737   26.5092 C   0  0  0  0  0  0  0  0  0  0  0  0
    7.4567   -6.9464   27.2858 C   0  0  0  0  0  0  0  0  0  0  0  0
    0.1921   -5.7592   27.1123 C   0  0  0  0  0  0  0  0  0  0  0  0
    3.5517   -7.7407   25.9711 C   0  0  0  0  0  0  0  0  0  0  0  0
  1  4  4  0
  1 22  4  0
  2 20  4  0
  2 27  4  0
  3 12  4  0
  3 23  4  0
  4 25  4  0
  4 28  1  0
  5  8  4  0
  5 17  4  0
  6  7  4  0
  6 16  4  0
  7 18  4  0
  8 27  4  0
  9 13  4  0
  9 23  4  0
 10 11  1  0
 11 14  2  0
 11 27  1  0
 12 19  1  0
 12 24  4  0
 13 24  4  0
 15 18  1  0
 16 25  4  0
 16 26  4  0
 17 20  4  0
 17 28  1  0
 18 21  4  0
 21 26  4  0
 22 26  4  0
M  END
$$$$

 Created by Python create_sdf_string function

 28 30  0  0  0  0  0  0  0  0999 V2000
    5.7174   -8.4529   26.7190 C   0  0  0  0  0  0  0  0  0  0  0  0
    0.3974   -7.0711   27.5149 C   0  0  0  0  0  0  0  0  0  0  0  0
    2.5338   -7.6891   16.0102 C   0  0  0  0  0  0  0  0  0  0  0  0
    4.8690   -7.4380   26.4151 C   0  0  0  0  0  0  0  0  0  0  0  0
    2.3021   -5.6726   26.0378 C   0  0  0  0  0  0  0  0  0  0  0  0
    7.0880   -4.6163   27.0010 C   0  0  0  0  0  0  0  0  0  0  0  0
    8.3117   -4.3698   27.4436 C   0  0  0  0  0  0  0  0  0  0  0  0
    1.1339   -5.0515   26.3541 C   0  0  0  0  0  0  0  0  0  0  0  0
    4.8080   -8.0362   16.7101 C   0  0  0  0  0  0  0  0  0  0  0  0
   -1.2173   -3.9294   26.9717 O   0  0  0  0  0  0  0  0  0  0  0  0
   -1.0025   -5.0942   27.4586 C   0  0  0  0  0  0  0  0  0  0  0  0
    2.2474   -8.9123   16.6273 C   0  0  0  0  0  0  0  0  0  0  0  0
    4.4957   -9.2636   17.3041 C   0  0  0  0  0  0  0  0  0  0  0  0
   -1.8070   -5.6086   28.1920 O   0  0  0  0  0  0  0  0  0  0  0  0
   10.4296   -5.1799   28.3140 C   0  0  0  0  0  0  0  0  0  0  0  0
    6.6017   -5.9004   26.9187 C   0  0  0  0  0  0  0  0  0  0  0  0
    2.4761   -6.9940   26.4111 N   0  0  0  0  0  0  0  0  0  0  0  0
    9.1353   -5.4053   27.8239 C   0  0  0  0  0  0  0  0  0  0  0  0
    0.9922   -9.3232   16.5995 O   0  0  0  0  0  0  0  0  0  0  0  0
    1.5232   -7.6869   27.1182 C   0  0  0  0  0  0  0  0  0  0  0  0
    8.6878   -6.6715   27.7262 N   0  0  0  0  0  0  0  0  0  0  0  0
    6.9911   -8.2423   27.1808 C   0  0  0  0  0  0  0  0  0  0  0  0
    3.8436   -7.2758   16.0578 C   0  0  0  0  0  0  0  0  0  0  0  0
    3.1882   -9.7190   17.2566 C   0  0  0  0  0  0  0  0  0  0  0  0
    5.3488   -6.1737   26.5092 C   0  0  0  0  0  0  0  0  0  0  0  0
    7.4567   -6.9464   27.2858 C   0  0  0  0  0  0  0  0  0  0  0  0
    0.1921   -5.7592   27.1123 C   0  0  0  0  0  0  0  0  0  0  0  0
    3.5517   -7.7407   25.9711 C   0  0  0  0  0  0  0  0  0  0  0  0
  1  4  4  0
  1 22  4  0
  2 20  4  0
  2 27  4  0
  3 12  4  0
  3 23  4  0
  4 25  4  0
  4 28  1  0
  5  8  4  0
  5 17  4  0
  6  7  4  0
  6 16  4  0
  7 18  4  0
  8 27  4  0
  9 13  4  0
  9 23  4  0
 10 11  1  0
 11 14  2  0
 11 27  1  0
 12 19  1  0
 12 24  4  0
 13 24  4  0
 15 18  1  0
 16 25  4  0
 16 26  4  0
 17 20  4  0
 17 28  1  0
 18 21  4  0
 21 26  4  0
 22 26  4  0
M  END
$$$$

 Created by Python create_sdf_string function

 28 30  0  0  0  0  0  0  0  0999 V2000
    5.7174   -8.4529   26.7190 C   0  0  0  0  0  0  0  0  0  0  0  0
    0.3974   -7.0711   27.5149 C   0  0  0  0  0  0  0  0  0  0  0  0
    2.5338   -7.6891   16.0102 C   0  0  0  0  0  0  0  0  0  0  0  0
    4.8690   -7.4380   26.4151 C   0  0  0  0  0  0  0  0  0  0  0  0
    2.3021   -5.6726   26.0378 C   0  0  0  0  0  0  0  0  0  0  0  0
    7.0880   -4.6163   27.0010 C   0  0  0  0  0  0  0  0  0  0  0  0
    8.3117   -4.3698   27.4436 C   0  0  0  0  0  0  0  0  0  0  0  0
    1.1339   -5.0515   26.3541 C   0  0  0  0  0  0  0  0  0  0  0  0
    4.8080   -8.0362   16.7101 C   0  0  0  0  0  0  0  0  0  0  0  0
   -1.2173   -3.9294   26.9717 O   0  0  0  0  0  0  0  0  0  0  0  0
   -1.0025   -5.0942   27.4586 C   0  0  0  0  0  0  0  0  0  0  0  0
    2.2474   -8.9123   16.6273 C   0  0  0  0  0  0  0  0  0  0  0  0
    4.4957   -9.2636   17.3041 C   0  0  0  0  0  0  0  0  0  0  0  0
   -1.8070   -5.6086   28.1920 O   0  0  0  0  0  0  0  0  0  0  0  0
   10.4296   -5.1799   28.3140 C   0  0  0  0  0  0  0  0  0  0  0  0
    6.6017   -5.9004   26.9187 C   0  0  0  0  0  0  0  0  0  0  0  0
    2.4761   -6.9940   26.4111 N   0  0  0  0  0  0  0  0  0  0  0  0
    9.1353   -5.4053   27.8239 C   0  0  0  0  0  0  0  0  0  0  0  0
    0.9922   -9.3232   16.5995 O   0  0  0  0  0  0  0  0  0  0  0  0
    1.5232   -7.6869   27.1182 C   0  0  0  0  0  0  0  0  0  0  0  0
    8.6878   -6.6715   27.7262 N   0  0  0  0  0  0  0  0  0  0  0  0
    6.9911   -8.2423   27.1808 C   0  0  0  0  0  0  0  0  0  0  0  0
    3.8436   -7.2758   16.0578 C   0  0  0  0  0  0  0  0  0  0  0  0
    3.1882   -9.7190   17.2566 C   0  0  0  0  0  0  0  0  0  0  0  0
    5.3488   -6.1737   26.5092 C   0  0  0  0  0  0  0  0  0  0  0  0
    7.4567   -6.9464   27.2858 C   0  0  0  0  0  0  0  0  0  0  0  0
    0.1921   -5.7592   27.1123 C   0  0  0  0  0  0  0  0  0  0  0  0
    3.5517   -7.7407   25.9711 C   0  0  0  0  0  0  0  0  0  0  0  0
  1  4  4  0
  1 22  4  0
  2 20  4  0
  2 27  4  0
  3 12  4  0
  3 23  4  0
  4 25  4  0
  4 28  1  0
  5  8  4  0
  5 17  4  0
  6  7  4  0
  6 16  4  0
  7 18  4  0
  8 27  4  0
  9 13  4  0
  9 23  4  0
 10 11  1  0
 11 14  2  0
 11 27  1  0
 12 19  1  0
 12 24  4  0
 13 24  4  0
 15 18  1  0
 16 25  4  0
 16 26  4  0
 17 20  4  0
 17 28  1  0
 18 21  4  0
 21 26  4  0
 22 26  4  0
M  END
$$$$

 Created by Python create_sdf_string function

 28 30  0  0  0  0  0  0  0  0999 V2000
    5.7174   -8.4529   26.7190 C   0  0  0  0  0  0  0  0  0  0  0  0
    0.3974   -7.0711   27.5149 C   0  0  0  0  0  0  0  0  0  0  0  0
    2.5338   -7.6891   16.0102 C   0  0  0  0  0  0  0  0  0  0  0  0
    4.8690   -7.4380   26.4151 C   0  0  0  0  0  0  0  0  0  0  0  0
    2.3021   -5.6726   26.0378 C   0  0  0  0  0  0  0  0  0  0  0  0
    7.0880   -4.6163   27.0010 C   0  0  0  0  0  0  0  0  0  0  0  0
    8.3117   -4.3698   27.4436 C   0  0  0  0  0  0  0  0  0  0  0  0
    1.1339   -5.0515   26.3541 C   0  0  0  0  0  0  0  0  0  0  0  0
    4.8080   -8.0362   16.7101 C   0  0  0  0  0  0  0  0  0  0  0  0
   -1.2173   -3.9294   26.9717 O   0  0  0  0  0  0  0  0  0  0  0  0
   -1.0025   -5.0942   27.4586 C   0  0  0  0  0  0  0  0  0  0  0  0
    2.2474   -8.9123   16.6273 C   0  0  0  0  0  0  0  0  0  0  0  0
    4.4957   -9.2636   17.3041 C   0  0  0  0  0  0  0  0  0  0  0  0
   -1.8070   -5.6086   28.1920 O   0  0  0  0  0  0  0  0  0  0  0  0
   10.4296   -5.1799   28.3140 C   0  0  0  0  0  0  0  0  0  0  0  0
    6.6017   -5.9004   26.9187 C   0  0  0  0  0  0  0  0  0  0  0  0
    2.4761   -6.9940   26.4111 N   0  0  0  0  0  0  0  0  0  0  0  0
    9.1353   -5.4053   27.8239 C   0  0  0  0  0  0  0  0  0  0  0  0
    0.9922   -9.3232   16.5995 O   0  0  0  0  0  0  0  0  0  0  0  0
    1.5232   -7.6869   27.1182 C   0  0  0  0  0  0  0  0  0  0  0  0
    8.6878   -6.6715   27.7262 N   0  0  0  0  0  0  0  0  0  0  0  0
    6.9911   -8.2423   27.1808 C   0  0  0  0  0  0  0  0  0  0  0  0
    3.8436   -7.2758   16.0578 C   0  0  0  0  0  0  0  0  0  0  0  0
    3.1882   -9.7190   17.2566 C   0  0  0  0  0  0  0  0  0  0  0  0
    5.3488   -6.1737   26.5092 C   0  0  0  0  0  0  0  0  0  0  0  0
    7.4567   -6.9464   27.2858 C   0  0  0  0  0  0  0  0  0  0  0  0
    0.1921   -5.7592   27.1123 C   0  0  0  0  0  0  0  0  0  0  0  0
    3.5517   -7.7407   25.9711 C   0  0  0  0  0  0  0  0  0  0  0  0
  1  4  4  0
  1 22  4  0
  2 20  4  0
  2 27  4  0
  3 12  4  0
  3 23  4  0
  4 25  4  0
  4 28  1  0
  5  8  4  0
  5 17  4  0
  6  7  4  0
  6 16  4  0
  7 18  4  0
  8 27  4  0
  9 13  4  0
  9 23  4  0
 10 11  1  0
 11 14  2  0
 11 27  1  0
 12 19  1  0
 12 24  4  0
 13 24  4  0
 15 18  1  0
 16 25  4  0
 16 26  4  0
 17 20  4  0
 17 28  1  0
 18 21  4  0
 21 26  4  0
 22 26  4  0
M  END
$$$$

 Created by Python create_sdf_string function

 28 30  0  0  0  0  0  0  0  0999 V2000
    5.7174   -8.4529   26.7190 C   0  0  0  0  0  0  0  0  0  0  0  0
    0.3974   -7.0711   27.5149 C   0  0  0  0  0  0  0  0  0  0  0  0
    2.5338   -7.6891   16.0102 C   0  0  0  0  0  0  0  0  0  0  0  0
    4.8690   -7.4380   26.4151 C   0  0  0  0  0  0  0  0  0  0  0  0
    2.3021   -5.6726   26.0378 C   0  0  0  0  0  0  0  0  0  0  0  0
    7.0880   -4.6163   27.0010 C   0  0  0  0  0  0  0  0  0  0  0  0
    8.3117   -4.3698   27.4436 C   0  0  0  0  0  0  0  0  0  0  0  0
    1.1339   -5.0515   26.3541 C   0  0  0  0  0  0  0  0  0  0  0  0
    4.8080   -8.0362   16.7101 C   0  0  0  0  0  0  0  0  0  0  0  0
   -1.2173   -3.9294   26.9717 O   0  0  0  0  0  0  0  0  0  0  0  0
   -1.0025   -5.0942   27.4586 C   0  0  0  0  0  0  0  0  0  0  0  0
    2.2474   -8.9123   16.6273 C   0  0  0  0  0  0  0  0  0  0  0  0
    4.4957   -9.2636   17.3041 C   0  0  0  0  0  0  0  0  0  0  0  0
   -1.8070   -5.6086   28.1920 O   0  0  0  0  0  0  0  0  0  0  0  0
   10.4296   -5.1799   28.3140 C   0  0  0  0  0  0  0  0  0  0  0  0
    6.6017   -5.9004   26.9187 C   0  0  0  0  0  0  0  0  0  0  0  0
    2.4761   -6.9940   26.4111 N   0  0  0  0  0  0  0  0  0  0  0  0
    9.1353   -5.4053   27.8239 C   0  0  0  0  0  0  0  0  0  0  0  0
    0.9922   -9.3232   16.5995 O   0  0  0  0  0  0  0  0  0  0  0  0
    1.5232   -7.6869   27.1182 C   0  0  0  0  0  0  0  0  0  0  0  0
    8.6878   -6.6715   27.7262 N   0  0  0  0  0  0  0  0  0  0  0  0
    6.9911   -8.2423   27.1808 C   0  0  0  0  0  0  0  0  0  0  0  0
    3.8436   -7.2758   16.0578 C   0  0  0  0  0  0  0  0  0  0  0  0
    3.1882   -9.7190   17.2566 C   0  0  0  0  0  0  0  0  0  0  0  0
    5.3488   -6.1737   26.5092 C   0  0  0  0  0  0  0  0  0  0  0  0
    7.4567   -6.9464   27.2858 C   0  0  0  0  0  0  0  0  0  0  0  0
    0.1921   -5.7592   27.1123 C   0  0  0  0  0  0  0  0  0  0  0  0
    3.5517   -7.7407   25.9711 C   0  0  0  0  0  0  0  0  0  0  0  0
  1  4  4  0
  1 22  4  0
  2 20  4  0
  2 27  4  0
  3 12  4  0
  3 23  4  0
  4 25  4  0
  4 28  1  0
  5  8  4  0
  5 17  4  0
  6  7  4  0
  6 16  4  0
  7 18  4  0
  8 27  4  0
  9 13  4  0
  9 23  4  0
 10 11  1  0
 11 14  2  0
 11 27  1  0
 12 19  1  0
 12 24  4  0
 13 24  4  0
 15 18  1  0
 16 25  4  0
 16 26  4  0
 17 20  4  0
 17 28  1  0
 18 21  4  0
 21 26  4  0
 22 26  4  0
M  END
$$$$

 Created by Python create_sdf_string function

 28 30  0  0  0  0  0  0  0  0999 V2000
    5.7174   -8.4529   26.7190 C   0  0  0  0  0  0  0  0  0  0  0  0
    0.3974   -7.0711   27.5149 C   0  0  0  0  0  0  0  0  0  0  0  0
    2.5338   -7.6891   16.0102 C   0  0  0  0  0  0  0  0  0  0  0  0
    4.8690   -7.4380   26.4151 C   0  0  0  0  0  0  0  0  0  0  0  0
    2.3021   -5.6726   26.0378 C   0  0  0  0  0  0  0  0  0  0  0  0
    7.0880   -4.6163   27.0010 C   0  0  0  0  0  0  0  0  0  0  0  0
    8.3117   -4.3698   27.4436 C   0  0  0  0  0  0  0  0  0  0  0  0
    1.1339   -5.0515   26.3541 C   0  0  0  0  0  0  0  0  0  0  0  0
    4.8080   -8.0362   16.7101 C   0  0  0  0  0  0  0  0  0  0  0  0
   -1.2173   -3.9294   26.9717 O   0  0  0  0  0  0  0  0  0  0  0  0
   -1.0025   -5.0942   27.4586 C   0  0  0  0  0  0  0  0  0  0  0  0
    2.2474   -8.9123   16.6273 C   0  0  0  0  0  0  0  0  0  0  0  0
    4.4957   -9.2636   17.3041 C   0  0  0  0  0  0  0  0  0  0  0  0
   -1.8070   -5.6086   28.1920 O   0  0  0  0  0  0  0  0  0  0  0  0
   10.4296   -5.1799   28.3140 C   0  0  0  0  0  0  0  0  0  0  0  0
    6.6017   -5.9004   26.9187 C   0  0  0  0  0  0  0  0  0  0  0  0
    2.4761   -6.9940   26.4111 N   0  0  0  0  0  0  0  0  0  0  0  0
    9.1353   -5.4053   27.8239 C   0  0  0  0  0  0  0  0  0  0  0  0
    0.9922   -9.3232   16.5995 O   0  0  0  0  0  0  0  0  0  0  0  0
    1.5232   -7.6869   27.1182 C   0  0  0  0  0  0  0  0  0  0  0  0
    8.6878   -6.6715   27.7262 N   0  0  0  0  0  0  0  0  0  0  0  0
    6.9911   -8.2423   27.1808 C   0  0  0  0  0  0  0  0  0  0  0  0
    3.8436   -7.2758   16.0578 C   0  0  0  0  0  0  0  0  0  0  0  0
    3.1882   -9.7190   17.2566 C   0  0  0  0  0  0  0  0  0  0  0  0
    5.3488   -6.1737   26.5092 C   0  0  0  0  0  0  0  0  0  0  0  0
    7.4567   -6.9464   27.2858 C   0  0  0  0  0  0  0  0  0  0  0  0
    0.1921   -5.7592   27.1123 C   0  0  0  0  0  0  0  0  0  0  0  0
    3.5517   -7.7407   25.9711 C   0  0  0  0  0  0  0  0  0  0  0  0
  1  4  4  0
  1 22  4  0
  2 20  4  0
  2 27  4  0
  3 12  4  0
  3 23  4  0
  4 25  4  0
  4 28  1  0
  5  8  4  0
  5 17  4  0
  6  7  4  0
  6 16  4  0
  7 18  4  0
  8 27  4  0
  9 13  4  0
  9 23  4  0
 10 11  1  0
 11 14  2  0
 11 27  1  0
 12 19  1  0
 12 24  4  0
 13 24  4  0
 15 18  1  0
 16 25  4  0
 16 26  4  0
 17 20  4  0
 17 28  1  0
 18 21  4  0
 21 26  4  0
 22 26  4  0
M  END
$$$$

 Created by Python create_sdf_string function

 28 30  0  0  0  0  0  0  0  0999 V2000
    5.7174   -8.4529   26.7190 C   0  0  0  0  0  0  0  0  0  0  0  0
    0.3974   -7.0711   27.5149 C   0  0  0  0  0  0  0  0  0  0  0  0
    2.5338   -7.6891   16.0102 C   0  0  0  0  0  0  0  0  0  0  0  0
    4.8690   -7.4380   26.4151 C   0  0  0  0  0  0  0  0  0  0  0  0
    2.3021   -5.6726   26.0378 C   0  0  0  0  0  0  0  0  0  0  0  0
    7.0880   -4.6163   27.0010 C   0  0  0  0  0  0  0  0  0  0  0  0
    8.3117   -4.3698   27.4436 C   0  0  0  0  0  0  0  0  0  0  0  0
    1.1339   -5.0515   26.3541 C   0  0  0  0  0  0  0  0  0  0  0  0
    4.8080   -8.0362   16.7101 C   0  0  0  0  0  0  0  0  0  0  0  0
   -1.2173   -3.9294   26.9717 O   0  0  0  0  0  0  0  0  0  0  0  0
   -1.0025   -5.0942   27.4586 C   0  0  0  0  0  0  0  0  0  0  0  0
    2.2474   -8.9123   16.6273 C   0  0  0  0  0  0  0  0  0  0  0  0
    4.4957   -9.2636   17.3041 C   0  0  0  0  0  0  0  0  0  0  0  0
   -1.8070   -5.6086   28.1920 O   0  0  0  0  0  0  0  0  0  0  0  0
   10.4296   -5.1799   28.3140 C   0  0  0  0  0  0  0  0  0  0  0  0
    6.6017   -5.9004   26.9187 C   0  0  0  0  0  0  0  0  0  0  0  0
    2.4761   -6.9940   26.4111 N   0  0  0  0  0  0  0  0  0  0  0  0
    9.1353   -5.4053   27.8239 C   0  0  0  0  0  0  0  0  0  0  0  0
    0.9922   -9.3232   16.5995 O   0  0  0  0  0  0  0  0  0  0  0  0
    1.5232   -7.6869   27.1182 C   0  0  0  0  0  0  0  0  0  0  0  0
    8.6878   -6.6715   27.7262 N   0  0  0  0  0  0  0  0  0  0  0  0
    6.9911   -8.2423   27.1808 C   0  0  0  0  0  0  0  0  0  0  0  0
    3.8436   -7.2758   16.0578 C   0  0  0  0  0  0  0  0  0  0  0  0
    3.1882   -9.7190   17.2566 C   0  0  0  0  0  0  0  0  0  0  0  0
    5.3488   -6.1737   26.5092 C   0  0  0  0  0  0  0  0  0  0  0  0
    7.4567   -6.9464   27.2858 C   0  0  0  0  0  0  0  0  0  0  0  0
    0.1921   -5.7592   27.1123 C   0  0  0  0  0  0  0  0  0  0  0  0
    3.5517   -7.7407   25.9711 C   0  0  0  0  0  0  0  0  0  0  0  0
  1  4  4  0
  1 22  4  0
  2 20  4  0
  2 27  4  0
  3 12  4  0
  3 23  4  0
  4 25  4  0
  4 28  1  0
  5  8  4  0
  5 17  4  0
  6  7  4  0
  6 16  4  0
  7 18  4  0
  8 27  4  0
  9 13  4  0
  9 23  4  0
 10 11  1  0
 11 14  2  0
 11 27  1  0
 12 19  1  0
 12 24  4  0
 13 24  4  0
 15 18  1  0
 16 25  4  0
 16 26  4  0
 17 20  4  0
 17 28  1  0
 18 21  4  0
 21 26  4  0
 22 26  4  0
M  END
$$$$

 Created by Python create_sdf_string function

 28 30  0  0  0  0  0  0  0  0999 V2000
    5.7174   -8.4529   26.7190 C   0  0  0  0  0  0  0  0  0  0  0  0
    0.3974   -7.0711   27.5149 C   0  0  0  0  0  0  0  0  0  0  0  0
    2.5338   -7.6891   16.0102 C   0  0  0  0  0  0  0  0  0  0  0  0
    4.8690   -7.4380   26.4151 C   0  0  0  0  0  0  0  0  0  0  0  0
    2.3021   -5.6726   26.0378 C   0  0  0  0  0  0  0  0  0  0  0  0
    7.0880   -4.6163   27.0010 C   0  0  0  0  0  0  0  0  0  0  0  0
    8.3117   -4.3698   27.4436 C   0  0  0  0  0  0  0  0  0  0  0  0
    1.1339   -5.0515   26.3541 C   0  0  0  0  0  0  0  0  0  0  0  0
    4.8080   -8.0362   16.7101 C   0  0  0  0  0  0  0  0  0  0  0  0
   -1.2173   -3.9294   26.9717 O   0  0  0  0  0  0  0  0  0  0  0  0
   -1.0025   -5.0942   27.4586 C   0  0  0  0  0  0  0  0  0  0  0  0
    2.2474   -8.9123   16.6273 C   0  0  0  0  0  0  0  0  0  0  0  0
    4.4957   -9.2636   17.3041 C   0  0  0  0  0  0  0  0  0  0  0  0
   -1.8070   -5.6086   28.1920 O   0  0  0  0  0  0  0  0  0  0  0  0
   10.4296   -5.1799   28.3140 C   0  0  0  0  0  0  0  0  0  0  0  0
    6.6017   -5.9004   26.9187 C   0  0  0  0  0  0  0  0  0  0  0  0
    2.4761   -6.9940   26.4111 N   0  0  0  0  0  0  0  0  0  0  0  0
    9.1353   -5.4053   27.8239 C   0  0  0  0  0  0  0  0  0  0  0  0
    0.9922   -9.3232   16.5995 O   0  0  0  0  0  0  0  0  0  0  0  0
    1.5232   -7.6869   27.1182 C   0  0  0  0  0  0  0  0  0  0  0  0
    8.6878   -6.6715   27.7262 N   0  0  0  0  0  0  0  0  0  0  0  0
    6.9911   -8.2423   27.1808 C   0  0  0  0  0  0  0  0  0  0  0  0
    3.8436   -7.2758   16.0578 C   0  0  0  0  0  0  0  0  0  0  0  0
    3.1882   -9.7190   17.2566 C   0  0  0  0  0  0  0  0  0  0  0  0
    5.3488   -6.1737   26.5092 C   0  0  0  0  0  0  0  0  0  0  0  0
    7.4567   -6.9464   27.2858 C   0  0  0  0  0  0  0  0  0  0  0  0
    0.1921   -5.7592   27.1123 C   0  0  0  0  0  0  0  0  0  0  0  0
    3.5517   -7.7407   25.9711 C   0  0  0  0  0  0  0  0  0  0  0  0
  1  4  4  0
  1 22  4  0
  2 20  4  0
  2 27  4  0
  3 12  4  0
  3 23  4  0
  4 25  4  0
  4 28  1  0
  5  8  4  0
  5 17  4  0
  6  7  4  0
  6 16  4  0
  7 18  4  0
  8 27  4  0
  9 13  4  0
  9 23  4  0
 10 11  1  0
 11 14  2  0
 11 27  1  0
 12 19  1  0
 12 24  4  0
 13 24  4  0
 15 18  1  0
 16 25  4  0
 16 26  4  0
 17 20  4  0
 17 28  1  0
 18 21  4  0
 21 26  4  0
 22 26  4  0
M  END
$$$$

 Created by Python create_sdf_string function

 28 30  0  0  0  0  0  0  0  0999 V2000
    5.7174   -8.4529   26.7190 C   0  0  0  0  0  0  0  0  0  0  0  0
    0.3974   -7.0711   27.5149 C   0  0  0  0  0  0  0  0  0  0  0  0
    2.5338   -7.6891   16.0102 C   0  0  0  0  0  0  0  0  0  0  0  0
    4.8690   -7.4380   26.4151 C   0  0  0  0  0  0  0  0  0  0  0  0
    2.3021   -5.6726   26.0378 C   0  0  0  0  0  0  0  0  0  0  0  0
    7.0880   -4.6163   27.0010 C   0  0  0  0  0  0  0  0  0  0  0  0
    8.3117   -4.3698   27.4436 C   0  0  0  0  0  0  0  0  0  0  0  0
    1.1339   -5.0515   26.3541 C   0  0  0  0  0  0  0  0  0  0  0  0
    4.8080   -8.0362   16.7101 C   0  0  0  0  0  0  0  0  0  0  0  0
   -1.2173   -3.9294   26.9717 O   0  0  0  0  0  0  0  0  0  0  0  0
   -1.0025   -5.0942   27.4586 C   0  0  0  0  0  0  0  0  0  0  0  0
    2.2474   -8.9123   16.6273 C   0  0  0  0  0  0  0  0  0  0  0  0
    4.4957   -9.2636   17.3041 C   0  0  0  0  0  0  0  0  0  0  0  0
   -1.8070   -5.6086   28.1920 O   0  0  0  0  0  0  0  0  0  0  0  0
   10.4296   -5.1799   28.3140 C   0  0  0  0  0  0  0  0  0  0  0  0
    6.6017   -5.9004   26.9187 C   0  0  0  0  0  0  0  0  0  0  0  0
    2.4761   -6.9940   26.4111 N   0  0  0  0  0  0  0  0  0  0  0  0
    9.1353   -5.4053   27.8239 C   0  0  0  0  0  0  0  0  0  0  0  0
    0.9922   -9.3232   16.5995 O   0  0  0  0  0  0  0  0  0  0  0  0
    1.5232   -7.6869   27.1182 C   0  0  0  0  0  0  0  0  0  0  0  0
    8.6878   -6.6715   27.7262 N   0  0  0  0  0  0  0  0  0  0  0  0
    6.9911   -8.2423   27.1808 C   0  0  0  0  0  0  0  0  0  0  0  0
    3.8436   -7.2758   16.0578 C   0  0  0  0  0  0  0  0  0  0  0  0
    3.1882   -9.7190   17.2566 C   0  0  0  0  0  0  0  0  0  0  0  0
    5.3488   -6.1737   26.5092 C   0  0  0  0  0  0  0  0  0  0  0  0
    7.4567   -6.9464   27.2858 C   0  0  0  0  0  0  0  0  0  0  0  0
    0.1921   -5.7592   27.1123 C   0  0  0  0  0  0  0  0  0  0  0  0
    3.5517   -7.7407   25.9711 C   0  0  0  0  0  0  0  0  0  0  0  0
  1  4  4  0
  1 22  4  0
  2 20  4  0
  2 27  4  0
  3 12  4  0
  3 23  4  0
  4 25  4  0
  4 28  1  0
  5  8  4  0
  5 17  4  0
  6  7  4  0
  6 16  4  0
  7 18  4  0
  8 27  4  0
  9 13  4  0
  9 23  4  0
 10 11  1  0
 11 14  2  0
 11 27  1  0
 12 19  1  0
 12 24  4  0
 13 24  4  0
 15 18  1  0
 16 25  4  0
 16 26  4  0
 17 20  4  0
 17 28  1  0
 18 21  4  0
 21 26  4  0
 22 26  4  0
M  END
$$$$

 Created by Python create_sdf_string function

 28 30  0  0  0  0  0  0  0  0999 V2000
    5.7174   -8.4529   26.7190 C   0  0  0  0  0  0  0  0  0  0  0  0
    0.3974   -7.0711   27.5149 C   0  0  0  0  0  0  0  0  0  0  0  0
    2.5338   -7.6891   16.0102 C   0  0  0  0  0  0  0  0  0  0  0  0
    4.8690   -7.4380   26.4151 C   0  0  0  0  0  0  0  0  0  0  0  0
    2.3021   -5.6726   26.0378 C   0  0  0  0  0  0  0  0  0  0  0  0
    7.0880   -4.6163   27.0010 C   0  0  0  0  0  0  0  0  0  0  0  0
    8.3117   -4.3698   27.4436 C   0  0  0  0  0  0  0  0  0  0  0  0
    1.1339   -5.0515   26.3541 C   0  0  0  0  0  0  0  0  0  0  0  0
    4.8080   -8.0362   16.7101 C   0  0  0  0  0  0  0  0  0  0  0  0
   -1.2173   -3.9294   26.9717 O   0  0  0  0  0  0  0  0  0  0  0  0
   -1.0025   -5.0942   27.4586 C   0  0  0  0  0  0  0  0  0  0  0  0
    2.2474   -8.9123   16.6273 C   0  0  0  0  0  0  0  0  0  0  0  0
    4.4957   -9.2636   17.3041 C   0  0  0  0  0  0  0  0  0  0  0  0
   -1.8070   -5.6086   28.1920 O   0  0  0  0  0  0  0  0  0  0  0  0
   10.4296   -5.1799   28.3140 C   0  0  0  0  0  0  0  0  0  0  0  0
    6.6017   -5.9004   26.9187 C   0  0  0  0  0  0  0  0  0  0  0  0
    2.4761   -6.9940   26.4111 N   0  0  0  0  0  0  0  0  0  0  0  0
    9.1353   -5.4053   27.8239 C   0  0  0  0  0  0  0  0  0  0  0  0
    0.9922   -9.3232   16.5995 O   0  0  0  0  0  0  0  0  0  0  0  0
    1.5232   -7.6869   27.1182 C   0  0  0  0  0  0  0  0  0  0  0  0
    8.6878   -6.6715   27.7262 N   0  0  0  0  0  0  0  0  0  0  0  0
    6.9911   -8.2423   27.1808 C   0  0  0  0  0  0  0  0  0  0  0  0
    3.8436   -7.2758   16.0578 C   0  0  0  0  0  0  0  0  0  0  0  0
    3.1882   -9.7190   17.2566 C   0  0  0  0  0  0  0  0  0  0  0  0
    5.3488   -6.1737   26.5092 C   0  0  0  0  0  0  0  0  0  0  0  0
    7.4567   -6.9464   27.2858 C   0  0  0  0  0  0  0  0  0  0  0  0
    0.1921   -5.7592   27.1123 C   0  0  0  0  0  0  0  0  0  0  0  0
    3.5517   -7.7407   25.9711 C   0  0  0  0  0  0  0  0  0  0  0  0
  1  4  4  0
  1 22  4  0
  2 20  4  0
  2 27  4  0
  3 12  4  0
  3 23  4  0
  4 25  4  0
  4 28  1  0
  5  8  4  0
  5 17  4  0
  6  7  4  0
  6 16  4  0
  7 18  4  0
  8 27  4  0
  9 13  4  0
  9 23  4  0
 10 11  1  0
 11 14  2  0
 11 27  1  0
 12 19  1  0
 12 24  4  0
 13 24  4  0
 15 18  1  0
 16 25  4  0
 16 26  4  0
 17 20  4  0
 17 28  1  0
 18 21  4  0
 21 26  4  0
 22 26  4  0
M  END
$$$$

 Created by Python create_sdf_string function

 28 30  0  0  0  0  0  0  0  0999 V2000
    5.7174   -8.4529   26.7190 C   0  0  0  0  0  0  0  0  0  0  0  0
    0.3974   -7.0711   27.5149 C   0  0  0  0  0  0  0  0  0  0  0  0
    2.5338   -7.6891   16.0102 C   0  0  0  0  0  0  0  0  0  0  0  0
    4.8690   -7.4380   26.4151 C   0  0  0  0  0  0  0  0  0  0  0  0
    2.3021   -5.6726   26.0378 C   0  0  0  0  0  0  0  0  0  0  0  0
    7.0880   -4.6163   27.0010 C   0  0  0  0  0  0  0  0  0  0  0  0
    8.3117   -4.3698   27.4436 C   0  0  0  0  0  0  0  0  0  0  0  0
    1.1339   -5.0515   26.3541 C   0  0  0  0  0  0  0  0  0  0  0  0
    4.8080   -8.0362   16.7101 C   0  0  0  0  0  0  0  0  0  0  0  0
   -1.2173   -3.9294   26.9717 O   0  0  0  0  0  0  0  0  0  0  0  0
   -1.0025   -5.0942   27.4586 C   0  0  0  0  0  0  0  0  0  0  0  0
    2.2474   -8.9123   16.6273 C   0  0  0  0  0  0  0  0  0  0  0  0
    4.4957   -9.2636   17.3041 C   0  0  0  0  0  0  0  0  0  0  0  0
   -1.8070   -5.6086   28.1920 O   0  0  0  0  0  0  0  0  0  0  0  0
   10.4296   -5.1799   28.3140 C   0  0  0  0  0  0  0  0  0  0  0  0
    6.6017   -5.9004   26.9187 C   0  0  0  0  0  0  0  0  0  0  0  0
    2.4761   -6.9940   26.4111 N   0  0  0  0  0  0  0  0  0  0  0  0
    9.1353   -5.4053   27.8239 C   0  0  0  0  0  0  0  0  0  0  0  0
    0.9922   -9.3232   16.5995 O   0  0  0  0  0  0  0  0  0  0  0  0
    1.5232   -7.6869   27.1182 C   0  0  0  0  0  0  0  0  0  0  0  0
    8.6878   -6.6715   27.7262 N   0  0  0  0  0  0  0  0  0  0  0  0
    6.9911   -8.2423   27.1808 C   0  0  0  0  0  0  0  0  0  0  0  0
    3.8436   -7.2758   16.0578 C   0  0  0  0  0  0  0  0  0  0  0  0
    3.1882   -9.7190   17.2566 C   0  0  0  0  0  0  0  0  0  0  0  0
    5.3488   -6.1737   26.5092 C   0  0  0  0  0  0  0  0  0  0  0  0
    7.4567   -6.9464   27.2858 C   0  0  0  0  0  0  0  0  0  0  0  0
    0.1921   -5.7592   27.1123 C   0  0  0  0  0  0  0  0  0  0  0  0
    3.5517   -7.7407   25.9711 C   0  0  0  0  0  0  0  0  0  0  0  0
  1  4  4  0
  1 22  4  0
  2 20  4  0
  2 27  4  0
  3 12  4  0
  3 23  4  0
  4 25  4  0
  4 28  1  0
  5  8  4  0
  5 17  4  0
  6  7  4  0
  6 16  4  0
  7 18  4  0
  8 27  4  0
  9 13  4  0
  9 23  4  0
 10 11  1  0
 11 14  2  0
 11 27  1  0
 12 19  1  0
 12 24  4  0
 13 24  4  0
 15 18  1  0
 16 25  4  0
 16 26  4  0
 17 20  4  0
 17 28  1  0
 18 21  4  0
 21 26  4  0
 22 26  4  0
M  END
$$$$

 Created by Python create_sdf_string function

 28 30  0  0  0  0  0  0  0  0999 V2000
    5.7174   -8.4529   26.7190 C   0  0  0  0  0  0  0  0  0  0  0  0
    0.3974   -7.0711   27.5149 C   0  0  0  0  0  0  0  0  0  0  0  0
    2.5338   -7.6891   16.0102 C   0  0  0  0  0  0  0  0  0  0  0  0
    4.8690   -7.4380   26.4151 C   0  0  0  0  0  0  0  0  0  0  0  0
    2.3021   -5.6726   26.0378 C   0  0  0  0  0  0  0  0  0  0  0  0
    7.0880   -4.6163   27.0010 C   0  0  0  0  0  0  0  0  0  0  0  0
    8.3117   -4.3698   27.4436 C   0  0  0  0  0  0  0  0  0  0  0  0
    1.1339   -5.0515   26.3541 C   0  0  0  0  0  0  0  0  0  0  0  0
    4.8080   -8.0362   16.7101 C   0  0  0  0  0  0  0  0  0  0  0  0
   -1.2173   -3.9294   26.9717 O   0  0  0  0  0  0  0  0  0  0  0  0
   -1.0025   -5.0942   27.4586 C   0  0  0  0  0  0  0  0  0  0  0  0
    2.2474   -8.9123   16.6273 C   0  0  0  0  0  0  0  0  0  0  0  0
    4.4957   -9.2636   17.3041 C   0  0  0  0  0  0  0  0  0  0  0  0
   -1.8070   -5.6086   28.1920 O   0  0  0  0  0  0  0  0  0  0  0  0
   10.4296   -5.1799   28.3140 C   0  0  0  0  0  0  0  0  0  0  0  0
    6.6017   -5.9004   26.9187 C   0  0  0  0  0  0  0  0  0  0  0  0
    2.4761   -6.9940   26.4111 N   0  0  0  0  0  0  0  0  0  0  0  0
    9.1353   -5.4053   27.8239 C   0  0  0  0  0  0  0  0  0  0  0  0
    0.9922   -9.3232   16.5995 O   0  0  0  0  0  0  0  0  0  0  0  0
    1.5232   -7.6869   27.1182 C   0  0  0  0  0  0  0  0  0  0  0  0
    8.6878   -6.6715   27.7262 N   0  0  0  0  0  0  0  0  0  0  0  0
    6.9911   -8.2423   27.1808 C   0  0  0  0  0  0  0  0  0  0  0  0
    3.8436   -7.2758   16.0578 C   0  0  0  0  0  0  0  0  0  0  0  0
    3.1882   -9.7190   17.2566 C   0  0  0  0  0  0  0  0  0  0  0  0
    5.3488   -6.1737   26.5092 C   0  0  0  0  0  0  0  0  0  0  0  0
    7.4567   -6.9464   27.2858 C   0  0  0  0  0  0  0  0  0  0  0  0
    0.1921   -5.7592   27.1123 C   0  0  0  0  0  0  0  0  0  0  0  0
    3.5517   -7.7407   25.9711 C   0  0  0  0  0  0  0  0  0  0  0  0
  1  4  4  0
  1 22  4  0
  2 20  4  0
  2 27  4  0
  3 12  4  0
  3 23  4  0
  4 25  4  0
  4 28  1  0
  5  8  4  0
  5 17  4  0
  6  7  4  0
  6 16  4  0
  7 18  4  0
  8 27  4  0
  9 13  4  0
  9 23  4  0
 10 11  1  0
 11 14  2  0
 11 27  1  0
 12 19  1  0
 12 24  4  0
 13 24  4  0
 15 18  1  0
 16 25  4  0
 16 26  4  0
 17 20  4  0
 17 28  1  0
 18 21  4  0
 21 26  4  0
 22 26  4  0
M  END
$$$$

 Created by Python create_sdf_string function

 28 30  0  0  0  0  0  0  0  0999 V2000
    5.7174   -8.4529   26.7190 C   0  0  0  0  0  0  0  0  0  0  0  0
    0.3974   -7.0711   27.5149 C   0  0  0  0  0  0  0  0  0  0  0  0
    2.5338   -7.6891   16.0102 C   0  0  0  0  0  0  0  0  0  0  0  0
    4.8690   -7.4380   26.4151 C   0  0  0  0  0  0  0  0  0  0  0  0
    2.3021   -5.6726   26.0378 C   0  0  0  0  0  0  0  0  0  0  0  0
    7.0880   -4.6163   27.0010 C   0  0  0  0  0  0  0  0  0  0  0  0
    8.3117   -4.3698   27.4436 C   0  0  0  0  0  0  0  0  0  0  0  0
    1.1339   -5.0515   26.3541 C   0  0  0  0  0  0  0  0  0  0  0  0
    4.8080   -8.0362   16.7101 C   0  0  0  0  0  0  0  0  0  0  0  0
   -1.2173   -3.9294   26.9717 O   0  0  0  0  0  0  0  0  0  0  0  0
   -1.0025   -5.0942   27.4586 C   0  0  0  0  0  0  0  0  0  0  0  0
    2.2474   -8.9123   16.6273 C   0  0  0  0  0  0  0  0  0  0  0  0
    4.4957   -9.2636   17.3041 C   0  0  0  0  0  0  0  0  0  0  0  0
   -1.8070   -5.6086   28.1920 O   0  0  0  0  0  0  0  0  0  0  0  0
   10.4296   -5.1799   28.3140 C   0  0  0  0  0  0  0  0  0  0  0  0
    6.6017   -5.9004   26.9187 C   0  0  0  0  0  0  0  0  0  0  0  0
    2.4761   -6.9940   26.4111 N   0  0  0  0  0  0  0  0  0  0  0  0
    9.1353   -5.4053   27.8239 C   0  0  0  0  0  0  0  0  0  0  0  0
    0.9922   -9.3232   16.5995 O   0  0  0  0  0  0  0  0  0  0  0  0
    1.5232   -7.6869   27.1182 C   0  0  0  0  0  0  0  0  0  0  0  0
    8.6878   -6.6715   27.7262 N   0  0  0  0  0  0  0  0  0  0  0  0
    6.9911   -8.2423   27.1808 C   0  0  0  0  0  0  0  0  0  0  0  0
    3.8436   -7.2758   16.0578 C   0  0  0  0  0  0  0  0  0  0  0  0
    3.1882   -9.7190   17.2566 C   0  0  0  0  0  0  0  0  0  0  0  0
    5.3488   -6.1737   26.5092 C   0  0  0  0  0  0  0  0  0  0  0  0
    7.4567   -6.9464   27.2858 C   0  0  0  0  0  0  0  0  0  0  0  0
    0.1921   -5.7592   27.1123 C   0  0  0  0  0  0  0  0  0  0  0  0
    3.5517   -7.7407   25.9711 C   0  0  0  0  0  0  0  0  0  0  0  0
  1  4  4  0
  1 22  4  0
  2 20  4  0
  2 27  4  0
  3 12  4  0
  3 23  4  0
  4 25  4  0
  4 28  1  0
  5  8  4  0
  5 17  4  0
  6  7  4  0
  6 16  4  0
  7 18  4  0
  8 27  4  0
  9 13  4  0
  9 23  4  0
 10 11  1  0
 11 14  2  0
 11 27  1  0
 12 19  1  0
 12 24  4  0
 13 24  4  0
 15 18  1  0
 16 25  4  0
 16 26  4  0
 17 20  4  0
 17 28  1  0
 18 21  4  0
 21 26  4  0
 22 26  4  0
M  END
$$$$

 Created by Python create_sdf_string function

 28 30  0  0  0  0  0  0  0  0999 V2000
    5.7174   -8.4529   26.7190 C   0  0  0  0  0  0  0  0  0  0  0  0
    0.3974   -7.0711   27.5149 C   0  0  0  0  0  0  0  0  0  0  0  0
    2.5338   -7.6891   16.0102 C   0  0  0  0  0  0  0  0  0  0  0  0
    4.8690   -7.4380   26.4151 C   0  0  0  0  0  0  0  0  0  0  0  0
    2.3021   -5.6726   26.0378 C   0  0  0  0  0  0  0  0  0  0  0  0
    7.0880   -4.6163   27.0010 C   0  0  0  0  0  0  0  0  0  0  0  0
    8.3117   -4.3698   27.4436 C   0  0  0  0  0  0  0  0  0  0  0  0
    1.1339   -5.0515   26.3541 C   0  0  0  0  0  0  0  0  0  0  0  0
    4.8080   -8.0362   16.7101 C   0  0  0  0  0  0  0  0  0  0  0  0
   -1.2173   -3.9294   26.9717 O   0  0  0  0  0  0  0  0  0  0  0  0
   -1.0025   -5.0942   27.4586 C   0  0  0  0  0  0  0  0  0  0  0  0
    2.2474   -8.9123   16.6273 C   0  0  0  0  0  0  0  0  0  0  0  0
    4.4957   -9.2636   17.3041 C   0  0  0  0  0  0  0  0  0  0  0  0
   -1.8070   -5.6086   28.1920 O   0  0  0  0  0  0  0  0  0  0  0  0
   10.4296   -5.1799   28.3140 C   0  0  0  0  0  0  0  0  0  0  0  0
    6.6017   -5.9004   26.9187 C   0  0  0  0  0  0  0  0  0  0  0  0
    2.4761   -6.9940   26.4111 N   0  0  0  0  0  0  0  0  0  0  0  0
    9.1353   -5.4053   27.8239 C   0  0  0  0  0  0  0  0  0  0  0  0
    0.9922   -9.3232   16.5995 O   0  0  0  0  0  0  0  0  0  0  0  0
    1.5232   -7.6869   27.1182 C   0  0  0  0  0  0  0  0  0  0  0  0
    8.6878   -6.6715   27.7262 N   0  0  0  0  0  0  0  0  0  0  0  0
    6.9911   -8.2423   27.1808 C   0  0  0  0  0  0  0  0  0  0  0  0
    3.8436   -7.2758   16.0578 C   0  0  0  0  0  0  0  0  0  0  0  0
    3.1882   -9.7190   17.2566 C   0  0  0  0  0  0  0  0  0  0  0  0
    5.3488   -6.1737   26.5092 C   0  0  0  0  0  0  0  0  0  0  0  0
    7.4567   -6.9464   27.2858 C   0  0  0  0  0  0  0  0  0  0  0  0
    0.1921   -5.7592   27.1123 C   0  0  0  0  0  0  0  0  0  0  0  0
    3.5517   -7.7407   25.9711 C   0  0  0  0  0  0  0  0  0  0  0  0
  1  4  4  0
  1 22  4  0
  2 20  4  0
  2 27  4  0
  3 12  4  0
  3 23  4  0
  4 25  4  0
  4 28  1  0
  5  8  4  0
  5 17  4  0
  6  7  4  0
  6 16  4  0
  7 18  4  0
  8 27  4  0
  9 13  4  0
  9 23  4  0
 10 11  1  0
 11 14  2  0
 11 27  1  0
 12 19  1  0
 12 24  4  0
 13 24  4  0
 15 18  1  0
 16 25  4  0
 16 26  4  0
 17 20  4  0
 17 28  1  0
 18 21  4  0
 21 26  4  0
 22 26  4  0
M  END
$$$$

 Created by Python create_sdf_string function

 28 30  0  0  0  0  0  0  0  0999 V2000
    5.7174   -8.4529   26.7190 C   0  0  0  0  0  0  0  0  0  0  0  0
    0.3974   -7.0711   27.5149 C   0  0  0  0  0  0  0  0  0  0  0  0
    2.5338   -7.6891   16.0102 C   0  0  0  0  0  0  0  0  0  0  0  0
    4.8690   -7.4380   26.4151 C   0  0  0  0  0  0  0  0  0  0  0  0
    2.3021   -5.6726   26.0378 C   0  0  0  0  0  0  0  0  0  0  0  0
    7.0880   -4.6163   27.0010 C   0  0  0  0  0  0  0  0  0  0  0  0
    8.3117   -4.3698   27.4436 C   0  0  0  0  0  0  0  0  0  0  0  0
    1.1339   -5.0515   26.3541 C   0  0  0  0  0  0  0  0  0  0  0  0
    4.8080   -8.0362   16.7101 C   0  0  0  0  0  0  0  0  0  0  0  0
   -1.2173   -3.9294   26.9717 O   0  0  0  0  0  0  0  0  0  0  0  0
   -1.0025   -5.0942   27.4586 C   0  0  0  0  0  0  0  0  0  0  0  0
    2.2474   -8.9123   16.6273 C   0  0  0  0  0  0  0  0  0  0  0  0
    4.4957   -9.2636   17.3041 C   0  0  0  0  0  0  0  0  0  0  0  0
   -1.8070   -5.6086   28.1920 O   0  0  0  0  0  0  0  0  0  0  0  0
   10.4296   -5.1799   28.3140 C   0  0  0  0  0  0  0  0  0  0  0  0
    6.6017   -5.9004   26.9187 C   0  0  0  0  0  0  0  0  0  0  0  0
    2.4761   -6.9940   26.4111 N   0  0  0  0  0  0  0  0  0  0  0  0
    9.1353   -5.4053   27.8239 C   0  0  0  0  0  0  0  0  0  0  0  0
    0.9922   -9.3232   16.5995 O   0  0  0  0  0  0  0  0  0  0  0  0
    1.5232   -7.6869   27.1182 C   0  0  0  0  0  0  0  0  0  0  0  0
    8.6878   -6.6715   27.7262 N   0  0  0  0  0  0  0  0  0  0  0  0
    6.9911   -8.2423   27.1808 C   0  0  0  0  0  0  0  0  0  0  0  0
    3.8436   -7.2758   16.0578 C   0  0  0  0  0  0  0  0  0  0  0  0
    3.1882   -9.7190   17.2566 C   0  0  0  0  0  0  0  0  0  0  0  0
    5.3488   -6.1737   26.5092 C   0  0  0  0  0  0  0  0  0  0  0  0
    7.4567   -6.9464   27.2858 C   0  0  0  0  0  0  0  0  0  0  0  0
    0.1921   -5.7592   27.1123 C   0  0  0  0  0  0  0  0  0  0  0  0
    3.5517   -7.7407   25.9711 C   0  0  0  0  0  0  0  0  0  0  0  0
  1  4  4  0
  1 22  4  0
  2 20  4  0
  2 27  4  0
  3 12  4  0
  3 23  4  0
  4 25  4  0
  4 28  1  0
  5  8  4  0
  5 17  4  0
  6  7  4  0
  6 16  4  0
  7 18  4  0
  8 27  4  0
  9 13  4  0
  9 23  4  0
 10 11  1  0
 11 14  2  0
 11 27  1  0
 12 19  1  0
 12 24  4  0
 13 24  4  0
 15 18  1  0
 16 25  4  0
 16 26  4  0
 17 20  4  0
 17 28  1  0
 18 21  4  0
 21 26  4  0
 22 26  4  0
M  END
$$$$

 Created by Python create_sdf_string function

 28 30  0  0  0  0  0  0  0  0999 V2000
    5.7174   -8.4529   26.7190 C   0  0  0  0  0  0  0  0  0  0  0  0
    0.3974   -7.0711   27.5149 C   0  0  0  0  0  0  0  0  0  0  0  0
    2.5338   -7.6891   16.0102 C   0  0  0  0  0  0  0  0  0  0  0  0
    4.8690   -7.4380   26.4151 C   0  0  0  0  0  0  0  0  0  0  0  0
    2.3021   -5.6726   26.0378 C   0  0  0  0  0  0  0  0  0  0  0  0
    7.0880   -4.6163   27.0010 C   0  0  0  0  0  0  0  0  0  0  0  0
    8.3117   -4.3698   27.4436 C   0  0  0  0  0  0  0  0  0  0  0  0
    1.1339   -5.0515   26.3541 C   0  0  0  0  0  0  0  0  0  0  0  0
    4.8080   -8.0362   16.7101 C   0  0  0  0  0  0  0  0  0  0  0  0
   -1.2173   -3.9294   26.9717 O   0  0  0  0  0  0  0  0  0  0  0  0
   -1.0025   -5.0942   27.4586 C   0  0  0  0  0  0  0  0  0  0  0  0
    2.2474   -8.9123   16.6273 C   0  0  0  0  0  0  0  0  0  0  0  0
    4.4957   -9.2636   17.3041 C   0  0  0  0  0  0  0  0  0  0  0  0
   -1.8070   -5.6086   28.1920 O   0  0  0  0  0  0  0  0  0  0  0  0
   10.4296   -5.1799   28.3140 C   0  0  0  0  0  0  0  0  0  0  0  0
    6.6017   -5.9004   26.9187 C   0  0  0  0  0  0  0  0  0  0  0  0
    2.4761   -6.9940   26.4111 N   0  0  0  0  0  0  0  0  0  0  0  0
    9.1353   -5.4053   27.8239 C   0  0  0  0  0  0  0  0  0  0  0  0
    0.9922   -9.3232   16.5995 O   0  0  0  0  0  0  0  0  0  0  0  0
    1.5232   -7.6869   27.1182 C   0  0  0  0  0  0  0  0  0  0  0  0
    8.6878   -6.6715   27.7262 N   0  0  0  0  0  0  0  0  0  0  0  0
    6.9911   -8.2423   27.1808 C   0  0  0  0  0  0  0  0  0  0  0  0
    3.8436   -7.2758   16.0578 C   0  0  0  0  0  0  0  0  0  0  0  0
    3.1882   -9.7190   17.2566 C   0  0  0  0  0  0  0  0  0  0  0  0
    5.3488   -6.1737   26.5092 C   0  0  0  0  0  0  0  0  0  0  0  0
    7.4567   -6.9464   27.2858 C   0  0  0  0  0  0  0  0  0  0  0  0
    0.1921   -5.7592   27.1123 C   0  0  0  0  0  0  0  0  0  0  0  0
    3.5517   -7.7407   25.9711 C   0  0  0  0  0  0  0  0  0  0  0  0
  1  4  4  0
  1 22  4  0
  2 20  4  0
  2 27  4  0
  3 12  4  0
  3 23  4  0
  4 25  4  0
  4 28  1  0
  5  8  4  0
  5 17  4  0
  6  7  4  0
  6 16  4  0
  7 18  4  0
  8 27  4  0
  9 13  4  0
  9 23  4  0
 10 11  1  0
 11 14  2  0
 11 27  1  0
 12 19  1  0
 12 24  4  0
 13 24  4  0
 15 18  1  0
 16 25  4  0
 16 26  4  0
 17 20  4  0
 17 28  1  0
 18 21  4  0
 21 26  4  0
 22 26  4  0
M  END
$$$$

 Created by Python create_sdf_string function

 28 30  0  0  0  0  0  0  0  0999 V2000
    5.7174   -8.4529   26.7190 C   0  0  0  0  0  0  0  0  0  0  0  0
    0.3974   -7.0711   27.5149 C   0  0  0  0  0  0  0  0  0  0  0  0
    2.5338   -7.6891   16.0102 C   0  0  0  0  0  0  0  0  0  0  0  0
    4.8690   -7.4380   26.4151 C   0  0  0  0  0  0  0  0  0  0  0  0
    2.3021   -5.6726   26.0378 C   0  0  0  0  0  0  0  0  0  0  0  0
    7.0880   -4.6163   27.0010 C   0  0  0  0  0  0  0  0  0  0  0  0
    8.3117   -4.3698   27.4436 C   0  0  0  0  0  0  0  0  0  0  0  0
    1.1339   -5.0515   26.3541 C   0  0  0  0  0  0  0  0  0  0  0  0
    4.8080   -8.0362   16.7101 C   0  0  0  0  0  0  0  0  0  0  0  0
   -1.2173   -3.9294   26.9717 O   0  0  0  0  0  0  0  0  0  0  0  0
   -1.0025   -5.0942   27.4586 C   0  0  0  0  0  0  0  0  0  0  0  0
    2.2474   -8.9123   16.6273 C   0  0  0  0  0  0  0  0  0  0  0  0
    4.4957   -9.2636   17.3041 C   0  0  0  0  0  0  0  0  0  0  0  0
   -1.8070   -5.6086   28.1920 O   0  0  0  0  0  0  0  0  0  0  0  0
   10.4296   -5.1799   28.3140 C   0  0  0  0  0  0  0  0  0  0  0  0
    6.6017   -5.9004   26.9187 C   0  0  0  0  0  0  0  0  0  0  0  0
    2.4761   -6.9940   26.4111 N   0  0  0  0  0  0  0  0  0  0  0  0
    9.1353   -5.4053   27.8239 C   0  0  0  0  0  0  0  0  0  0  0  0
    0.9922   -9.3232   16.5995 O   0  0  0  0  0  0  0  0  0  0  0  0
    1.5232   -7.6869   27.1182 C   0  0  0  0  0  0  0  0  0  0  0  0
    8.6878   -6.6715   27.7262 N   0  0  0  0  0  0  0  0  0  0  0  0
    6.9911   -8.2423   27.1808 C   0  0  0  0  0  0  0  0  0  0  0  0
    3.8436   -7.2758   16.0578 C   0  0  0  0  0  0  0  0  0  0  0  0
    3.1882   -9.7190   17.2566 C   0  0  0  0  0  0  0  0  0  0  0  0
    5.3488   -6.1737   26.5092 C   0  0  0  0  0  0  0  0  0  0  0  0
    7.4567   -6.9464   27.2858 C   0  0  0  0  0  0  0  0  0  0  0  0
    0.1921   -5.7592   27.1123 C   0  0  0  0  0  0  0  0  0  0  0  0
    3.5517   -7.7407   25.9711 C   0  0  0  0  0  0  0  0  0  0  0  0
  1  4  4  0
  1 22  4  0
  2 20  4  0
  2 27  4  0
  3 12  4  0
  3 23  4  0
  4 25  4  0
  4 28  1  0
  5  8  4  0
  5 17  4  0
  6  7  4  0
  6 16  4  0
  7 18  4  0
  8 27  4  0
  9 13  4  0
  9 23  4  0
 10 11  1  0
 11 14  2  0
 11 27  1  0
 12 19  1  0
 12 24  4  0
 13 24  4  0
 15 18  1  0
 16 25  4  0
 16 26  4  0
 17 20  4  0
 17 28  1  0
 18 21  4  0
 21 26  4  0
 22 26  4  0
M  END
$$$$

 Created by Python create_sdf_string function

 28 30  0  0  0  0  0  0  0  0999 V2000
    5.7174   -8.4529   26.7190 C   0  0  0  0  0  0  0  0  0  0  0  0
    0.3974   -7.0711   27.5149 C   0  0  0  0  0  0  0  0  0  0  0  0
    2.5338   -7.6891   16.0102 C   0  0  0  0  0  0  0  0  0  0  0  0
    4.8690   -7.4380   26.4151 C   0  0  0  0  0  0  0  0  0  0  0  0
    2.3021   -5.6726   26.0378 C   0  0  0  0  0  0  0  0  0  0  0  0
    7.0880   -4.6163   27.0010 C   0  0  0  0  0  0  0  0  0  0  0  0
    8.3117   -4.3698   27.4436 C   0  0  0  0  0  0  0  0  0  0  0  0
    1.1339   -5.0515   26.3541 C   0  0  0  0  0  0  0  0  0  0  0  0
    4.8080   -8.0362   16.7101 C   0  0  0  0  0  0  0  0  0  0  0  0
   -1.2173   -3.9294   26.9717 O   0  0  0  0  0  0  0  0  0  0  0  0
   -1.0025   -5.0942   27.4586 C   0  0  0  0  0  0  0  0  0  0  0  0
    2.2474   -8.9123   16.6273 C   0  0  0  0  0  0  0  0  0  0  0  0
    4.4957   -9.2636   17.3041 C   0  0  0  0  0  0  0  0  0  0  0  0
   -1.8070   -5.6086   28.1920 O   0  0  0  0  0  0  0  0  0  0  0  0
   10.4296   -5.1799   28.3140 C   0  0  0  0  0  0  0  0  0  0  0  0
    6.6017   -5.9004   26.9187 C   0  0  0  0  0  0  0  0  0  0  0  0
    2.4761   -6.9940   26.4111 N   0  0  0  0  0  0  0  0  0  0  0  0
    9.1353   -5.4053   27.8239 C   0  0  0  0  0  0  0  0  0  0  0  0
    0.9922   -9.3232   16.5995 O   0  0  0  0  0  0  0  0  0  0  0  0
    1.5232   -7.6869   27.1182 C   0  0  0  0  0  0  0  0  0  0  0  0
    8.6878   -6.6715   27.7262 N   0  0  0  0  0  0  0  0  0  0  0  0
    6.9911   -8.2423   27.1808 C   0  0  0  0  0  0  0  0  0  0  0  0
    3.8436   -7.2758   16.0578 C   0  0  0  0  0  0  0  0  0  0  0  0
    3.1882   -9.7190   17.2566 C   0  0  0  0  0  0  0  0  0  0  0  0
    5.3488   -6.1737   26.5092 C   0  0  0  0  0  0  0  0  0  0  0  0
    7.4567   -6.9464   27.2858 C   0  0  0  0  0  0  0  0  0  0  0  0
    0.1921   -5.7592   27.1123 C   0  0  0  0  0  0  0  0  0  0  0  0
    3.5517   -7.7407   25.9711 C   0  0  0  0  0  0  0  0  0  0  0  0
  1  4  4  0
  1 22  4  0
  2 20  4  0
  2 27  4  0
  3 12  4  0
  3 23  4  0
  4 25  4  0
  4 28  1  0
  5  8  4  0
  5 17  4  0
  6  7  4  0
  6 16  4  0
  7 18  4  0
  8 27  4  0
  9 13  4  0
  9 23  4  0
 10 11  1  0
 11 14  2  0
 11 27  1  0
 12 19  1  0
 12 24  4  0
 13 24  4  0
 15 18  1  0
 16 25  4  0
 16 26  4  0
 17 20  4  0
 17 28  1  0
 18 21  4  0
 21 26  4  0
 22 26  4  0
M  END
$$$$

 Created by Python create_sdf_string function

 28 30  0  0  0  0  0  0  0  0999 V2000
    5.7174   -8.4529   26.7190 C   0  0  0  0  0  0  0  0  0  0  0  0
    0.3974   -7.0711   27.5149 C   0  0  0  0  0  0  0  0  0  0  0  0
    2.5338   -7.6891   16.0102 C   0  0  0  0  0  0  0  0  0  0  0  0
    4.8690   -7.4380   26.4151 C   0  0  0  0  0  0  0  0  0  0  0  0
    2.3021   -5.6726   26.0378 C   0  0  0  0  0  0  0  0  0  0  0  0
    7.0880   -4.6163   27.0010 C   0  0  0  0  0  0  0  0  0  0  0  0
    8.3117   -4.3698   27.4436 C   0  0  0  0  0  0  0  0  0  0  0  0
    1.1339   -5.0515   26.3541 C   0  0  0  0  0  0  0  0  0  0  0  0
    4.8080   -8.0362   16.7101 C   0  0  0  0  0  0  0  0  0  0  0  0
   -1.2173   -3.9294   26.9717 O   0  0  0  0  0  0  0  0  0  0  0  0
   -1.0025   -5.0942   27.4586 C   0  0  0  0  0  0  0  0  0  0  0  0
    2.2474   -8.9123   16.6273 C   0  0  0  0  0  0  0  0  0  0  0  0
    4.4957   -9.2636   17.3041 C   0  0  0  0  0  0  0  0  0  0  0  0
   -1.8070   -5.6086   28.1920 O   0  0  0  0  0  0  0  0  0  0  0  0
   10.4296   -5.1799   28.3140 C   0  0  0  0  0  0  0  0  0  0  0  0
    6.6017   -5.9004   26.9187 C   0  0  0  0  0  0  0  0  0  0  0  0
    2.4761   -6.9940   26.4111 N   0  0  0  0  0  0  0  0  0  0  0  0
    9.1353   -5.4053   27.8239 C   0  0  0  0  0  0  0  0  0  0  0  0
    0.9922   -9.3232   16.5995 O   0  0  0  0  0  0  0  0  0  0  0  0
    1.5232   -7.6869   27.1182 C   0  0  0  0  0  0  0  0  0  0  0  0
    8.6878   -6.6715   27.7262 N   0  0  0  0  0  0  0  0  0  0  0  0
    6.9911   -8.2423   27.1808 C   0  0  0  0  0  0  0  0  0  0  0  0
    3.8436   -7.2758   16.0578 C   0  0  0  0  0  0  0  0  0  0  0  0
    3.1882   -9.7190   17.2566 C   0  0  0  0  0  0  0  0  0  0  0  0
    5.3488   -6.1737   26.5092 C   0  0  0  0  0  0  0  0  0  0  0  0
    7.4567   -6.9464   27.2858 C   0  0  0  0  0  0  0  0  0  0  0  0
    0.1921   -5.7592   27.1123 C   0  0  0  0  0  0  0  0  0  0  0  0
    3.5517   -7.7407   25.9711 C   0  0  0  0  0  0  0  0  0  0  0  0
  1  4  4  0
  1 22  4  0
  2 20  4  0
  2 27  4  0
  3 12  4  0
  3 23  4  0
  4 25  4  0
  4 28  1  0
  5  8  4  0
  5 17  4  0
  6  7  4  0
  6 16  4  0
  7 18  4  0
  8 27  4  0
  9 13  4  0
  9 23  4  0
 10 11  1  0
 11 14  2  0
 11 27  1  0
 12 19  1  0
 12 24  4  0
 13 24  4  0
 15 18  1  0
 16 25  4  0
 16 26  4  0
 17 20  4  0
 17 28  1  0
 18 21  4  0
 21 26  4  0
 22 26  4  0
M  END
$$$$

 Created by Python create_sdf_string function

 28 30  0  0  0  0  0  0  0  0999 V2000
    5.7174   -8.4529   26.7190 C   0  0  0  0  0  0  0  0  0  0  0  0
    0.3974   -7.0711   27.5149 C   0  0  0  0  0  0  0  0  0  0  0  0
    2.5338   -7.6891   16.0102 C   0  0  0  0  0  0  0  0  0  0  0  0
    4.8690   -7.4380   26.4151 C   0  0  0  0  0  0  0  0  0  0  0  0
    2.3021   -5.6726   26.0378 C   0  0  0  0  0  0  0  0  0  0  0  0
    7.0880   -4.6163   27.0010 C   0  0  0  0  0  0  0  0  0  0  0  0
    8.3117   -4.3698   27.4436 C   0  0  0  0  0  0  0  0  0  0  0  0
    1.1339   -5.0515   26.3541 C   0  0  0  0  0  0  0  0  0  0  0  0
    4.8080   -8.0362   16.7101 C   0  0  0  0  0  0  0  0  0  0  0  0
   -1.2173   -3.9294   26.9717 O   0  0  0  0  0  0  0  0  0  0  0  0
   -1.0025   -5.0942   27.4586 C   0  0  0  0  0  0  0  0  0  0  0  0
    2.2474   -8.9123   16.6273 C   0  0  0  0  0  0  0  0  0  0  0  0
    4.4957   -9.2636   17.3041 C   0  0  0  0  0  0  0  0  0  0  0  0
   -1.8070   -5.6086   28.1920 O   0  0  0  0  0  0  0  0  0  0  0  0
   10.4296   -5.1799   28.3140 C   0  0  0  0  0  0  0  0  0  0  0  0
    6.6017   -5.9004   26.9187 C   0  0  0  0  0  0  0  0  0  0  0  0
    2.4761   -6.9940   26.4111 N   0  0  0  0  0  0  0  0  0  0  0  0
    9.1353   -5.4053   27.8239 C   0  0  0  0  0  0  0  0  0  0  0  0
    0.9922   -9.3232   16.5995 O   0  0  0  0  0  0  0  0  0  0  0  0
    1.5232   -7.6869   27.1182 C   0  0  0  0  0  0  0  0  0  0  0  0
    8.6878   -6.6715   27.7262 N   0  0  0  0  0  0  0  0  0  0  0  0
    6.9911   -8.2423   27.1808 C   0  0  0  0  0  0  0  0  0  0  0  0
    3.8436   -7.2758   16.0578 C   0  0  0  0  0  0  0  0  0  0  0  0
    3.1882   -9.7190   17.2566 C   0  0  0  0  0  0  0  0  0  0  0  0
    5.3488   -6.1737   26.5092 C   0  0  0  0  0  0  0  0  0  0  0  0
    7.4567   -6.9464   27.2858 C   0  0  0  0  0  0  0  0  0  0  0  0
    0.1921   -5.7592   27.1123 C   0  0  0  0  0  0  0  0  0  0  0  0
    3.5517   -7.7407   25.9711 C   0  0  0  0  0  0  0  0  0  0  0  0
  1  4  4  0
  1 22  4  0
  2 20  4  0
  2 27  4  0
  3 12  4  0
  3 23  4  0
  4 25  4  0
  4 28  1  0
  5  8  4  0
  5 17  4  0
  6  7  4  0
  6 16  4  0
  7 18  4  0
  8 27  4  0
  9 13  4  0
  9 23  4  0
 10 11  1  0
 11 14  2  0
 11 27  1  0
 12 19  1  0
 12 24  4  0
 13 24  4  0
 15 18  1  0
 16 25  4  0
 16 26  4  0
 17 20  4  0
 17 28  1  0
 18 21  4  0
 21 26  4  0
 22 26  4  0
M  END
$$$$

 Created by Python create_sdf_string function

 28 30  0  0  0  0  0  0  0  0999 V2000
    5.7174   -8.4529   26.7190 C   0  0  0  0  0  0  0  0  0  0  0  0
    0.3974   -7.0711   27.5149 C   0  0  0  0  0  0  0  0  0  0  0  0
    2.5338   -7.6891   16.0102 C   0  0  0  0  0  0  0  0  0  0  0  0
    4.8690   -7.4380   26.4151 C   0  0  0  0  0  0  0  0  0  0  0  0
    2.3021   -5.6726   26.0378 C   0  0  0  0  0  0  0  0  0  0  0  0
    7.0880   -4.6163   27.0010 C   0  0  0  0  0  0  0  0  0  0  0  0
    8.3117   -4.3698   27.4436 C   0  0  0  0  0  0  0  0  0  0  0  0
    1.1339   -5.0515   26.3541 C   0  0  0  0  0  0  0  0  0  0  0  0
    4.8080   -8.0362   16.7101 C   0  0  0  0  0  0  0  0  0  0  0  0
   -1.2173   -3.9294   26.9717 O   0  0  0  0  0  0  0  0  0  0  0  0
   -1.0025   -5.0942   27.4586 C   0  0  0  0  0  0  0  0  0  0  0  0
    2.2474   -8.9123   16.6273 C   0  0  0  0  0  0  0  0  0  0  0  0
    4.4957   -9.2636   17.3041 C   0  0  0  0  0  0  0  0  0  0  0  0
   -1.8070   -5.6086   28.1920 O   0  0  0  0  0  0  0  0  0  0  0  0
   10.4296   -5.1799   28.3140 C   0  0  0  0  0  0  0  0  0  0  0  0
    6.6017   -5.9004   26.9187 C   0  0  0  0  0  0  0  0  0  0  0  0
    2.4761   -6.9940   26.4111 N   0  0  0  0  0  0  0  0  0  0  0  0
    9.1353   -5.4053   27.8239 C   0  0  0  0  0  0  0  0  0  0  0  0
    0.9922   -9.3232   16.5995 O   0  0  0  0  0  0  0  0  0  0  0  0
    1.5232   -7.6869   27.1182 C   0  0  0  0  0  0  0  0  0  0  0  0
    8.6878   -6.6715   27.7262 N   0  0  0  0  0  0  0  0  0  0  0  0
    6.9911   -8.2423   27.1808 C   0  0  0  0  0  0  0  0  0  0  0  0
    3.8436   -7.2758   16.0578 C   0  0  0  0  0  0  0  0  0  0  0  0
    3.1882   -9.7190   17.2566 C   0  0  0  0  0  0  0  0  0  0  0  0
    5.3488   -6.1737   26.5092 C   0  0  0  0  0  0  0  0  0  0  0  0
    7.4567   -6.9464   27.2858 C   0  0  0  0  0  0  0  0  0  0  0  0
    0.1921   -5.7592   27.1123 C   0  0  0  0  0  0  0  0  0  0  0  0
    3.5517   -7.7407   25.9711 C   0  0  0  0  0  0  0  0  0  0  0  0
  1  4  4  0
  1 22  4  0
  2 20  4  0
  2 27  4  0
  3 12  4  0
  3 23  4  0
  4 25  4  0
  4 28  1  0
  5  8  4  0
  5 17  4  0
  6  7  4  0
  6 16  4  0
  7 18  4  0
  8 27  4  0
  9 13  4  0
  9 23  4  0
 10 11  1  0
 11 14  2  0
 11 27  1  0
 12 19  1  0
 12 24  4  0
 13 24  4  0
 15 18  1  0
 16 25  4  0
 16 26  4  0
 17 20  4  0
 17 28  1  0
 18 21  4  0
 21 26  4  0
 22 26  4  0
M  END
$$$$

 Created by Python create_sdf_string function

 28 30  0  0  0  0  0  0  0  0999 V2000
    5.7174   -8.4529   26.7190 C   0  0  0  0  0  0  0  0  0  0  0  0
    0.3974   -7.0711   27.5149 C   0  0  0  0  0  0  0  0  0  0  0  0
    2.5338   -7.6891   16.0102 C   0  0  0  0  0  0  0  0  0  0  0  0
    4.8690   -7.4380   26.4151 C   0  0  0  0  0  0  0  0  0  0  0  0
    2.3021   -5.6726   26.0378 C   0  0  0  0  0  0  0  0  0  0  0  0
    7.0880   -4.6163   27.0010 C   0  0  0  0  0  0  0  0  0  0  0  0
    8.3117   -4.3698   27.4436 C   0  0  0  0  0  0  0  0  0  0  0  0
    1.1339   -5.0515   26.3541 C   0  0  0  0  0  0  0  0  0  0  0  0
    4.8080   -8.0362   16.7101 C   0  0  0  0  0  0  0  0  0  0  0  0
   -1.2173   -3.9294   26.9717 O   0  0  0  0  0  0  0  0  0  0  0  0
   -1.0025   -5.0942   27.4586 C   0  0  0  0  0  0  0  0  0  0  0  0
    2.2474   -8.9123   16.6273 C   0  0  0  0  0  0  0  0  0  0  0  0
    4.4957   -9.2636   17.3041 C   0  0  0  0  0  0  0  0  0  0  0  0
   -1.8070   -5.6086   28.1920 O   0  0  0  0  0  0  0  0  0  0  0  0
   10.4296   -5.1799   28.3140 C   0  0  0  0  0  0  0  0  0  0  0  0
    6.6017   -5.9004   26.9187 C   0  0  0  0  0  0  0  0  0  0  0  0
    2.4761   -6.9940   26.4111 N   0  0  0  0  0  0  0  0  0  0  0  0
    9.1353   -5.4053   27.8239 C   0  0  0  0  0  0  0  0  0  0  0  0
    0.9922   -9.3232   16.5995 O   0  0  0  0  0  0  0  0  0  0  0  0
    1.5232   -7.6869   27.1182 C   0  0  0  0  0  0  0  0  0  0  0  0
    8.6878   -6.6715   27.7262 N   0  0  0  0  0  0  0  0  0  0  0  0
    6.9911   -8.2423   27.1808 C   0  0  0  0  0  0  0  0  0  0  0  0
    3.8436   -7.2758   16.0578 C   0  0  0  0  0  0  0  0  0  0  0  0
    3.1882   -9.7190   17.2566 C   0  0  0  0  0  0  0  0  0  0  0  0
    5.3488   -6.1737   26.5092 C   0  0  0  0  0  0  0  0  0  0  0  0
    7.4567   -6.9464   27.2858 C   0  0  0  0  0  0  0  0  0  0  0  0
    0.1921   -5.7592   27.1123 C   0  0  0  0  0  0  0  0  0  0  0  0
    3.5517   -7.7407   25.9711 C   0  0  0  0  0  0  0  0  0  0  0  0
  1  4  4  0
  1 22  4  0
  2 20  4  0
  2 27  4  0
  3 12  4  0
  3 23  4  0
  4 25  4  0
  4 28  1  0
  5  8  4  0
  5 17  4  0
  6  7  4  0
  6 16  4  0
  7 18  4  0
  8 27  4  0
  9 13  4  0
  9 23  4  0
 10 11  1  0
 11 14  2  0
 11 27  1  0
 12 19  1  0
 12 24  4  0
 13 24  4  0
 15 18  1  0
 16 25  4  0
 16 26  4  0
 17 20  4  0
 17 28  1  0
 18 21  4  0
 21 26  4  0
 22 26  4  0
M  END
$$$$

 Created by Python create_sdf_string function

 28 30  0  0  0  0  0  0  0  0999 V2000
    5.7174   -8.4529   26.7190 C   0  0  0  0  0  0  0  0  0  0  0  0
    0.3974   -7.0711   27.5149 C   0  0  0  0  0  0  0  0  0  0  0  0
    2.5338   -7.6891   16.0102 C   0  0  0  0  0  0  0  0  0  0  0  0
    4.8690   -7.4380   26.4151 C   0  0  0  0  0  0  0  0  0  0  0  0
    2.3021   -5.6726   26.0378 C   0  0  0  0  0  0  0  0  0  0  0  0
    7.0880   -4.6163   27.0010 C   0  0  0  0  0  0  0  0  0  0  0  0
    8.3117   -4.3698   27.4436 C   0  0  0  0  0  0  0  0  0  0  0  0
    1.1339   -5.0515   26.3541 C   0  0  0  0  0  0  0  0  0  0  0  0
    4.8080   -8.0362   16.7101 C   0  0  0  0  0  0  0  0  0  0  0  0
   -1.2173   -3.9294   26.9717 O   0  0  0  0  0  0  0  0  0  0  0  0
   -1.0025   -5.0942   27.4586 C   0  0  0  0  0  0  0  0  0  0  0  0
    2.2474   -8.9123   16.6273 C   0  0  0  0  0  0  0  0  0  0  0  0
    4.4957   -9.2636   17.3041 C   0  0  0  0  0  0  0  0  0  0  0  0
   -1.8070   -5.6086   28.1920 O   0  0  0  0  0  0  0  0  0  0  0  0
   10.4296   -5.1799   28.3140 C   0  0  0  0  0  0  0  0  0  0  0  0
    6.6017   -5.9004   26.9187 C   0  0  0  0  0  0  0  0  0  0  0  0
    2.4761   -6.9940   26.4111 N   0  0  0  0  0  0  0  0  0  0  0  0
    9.1353   -5.4053   27.8239 C   0  0  0  0  0  0  0  0  0  0  0  0
    0.9922   -9.3232   16.5995 O   0  0  0  0  0  0  0  0  0  0  0  0
    1.5232   -7.6869   27.1182 C   0  0  0  0  0  0  0  0  0  0  0  0
    8.6878   -6.6715   27.7262 N   0  0  0  0  0  0  0  0  0  0  0  0
    6.9911   -8.2423   27.1808 C   0  0  0  0  0  0  0  0  0  0  0  0
    3.8436   -7.2758   16.0578 C   0  0  0  0  0  0  0  0  0  0  0  0
    3.1882   -9.7190   17.2566 C   0  0  0  0  0  0  0  0  0  0  0  0
    5.3488   -6.1737   26.5092 C   0  0  0  0  0  0  0  0  0  0  0  0
    7.4567   -6.9464   27.2858 C   0  0  0  0  0  0  0  0  0  0  0  0
    0.1921   -5.7592   27.1123 C   0  0  0  0  0  0  0  0  0  0  0  0
    3.5517   -7.7407   25.9711 C   0  0  0  0  0  0  0  0  0  0  0  0
  1  4  4  0
  1 22  4  0
  2 20  4  0
  2 27  4  0
  3 12  4  0
  3 23  4  0
  4 25  4  0
  4 28  1  0
  5  8  4  0
  5 17  4  0
  6  7  4  0
  6 16  4  0
  7 18  4  0
  8 27  4  0
  9 13  4  0
  9 23  4  0
 10 11  1  0
 11 14  2  0
 11 27  1  0
 12 19  1  0
 12 24  4  0
 13 24  4  0
 15 18  1  0
 16 25  4  0
 16 26  4  0
 17 20  4  0
 17 28  1  0
 18 21  4  0
 21 26  4  0
 22 26  4  0
M  END
$$$$

 Created by Python create_sdf_string function

 28 30  0  0  0  0  0  0  0  0999 V2000
    5.7174   -8.4529   26.7190 C   0  0  0  0  0  0  0  0  0  0  0  0
    0.3974   -7.0711   27.5149 C   0  0  0  0  0  0  0  0  0  0  0  0
    2.5338   -7.6891   16.0102 C   0  0  0  0  0  0  0  0  0  0  0  0
    4.8690   -7.4380   26.4151 C   0  0  0  0  0  0  0  0  0  0  0  0
    2.3021   -5.6726   26.0378 C   0  0  0  0  0  0  0  0  0  0  0  0
    7.0880   -4.6163   27.0010 C   0  0  0  0  0  0  0  0  0  0  0  0
    8.3117   -4.3698   27.4436 C   0  0  0  0  0  0  0  0  0  0  0  0
    1.1339   -5.0515   26.3541 C   0  0  0  0  0  0  0  0  0  0  0  0
    4.8080   -8.0362   16.7101 C   0  0  0  0  0  0  0  0  0  0  0  0
   -1.2173   -3.9294   26.9717 O   0  0  0  0  0  0  0  0  0  0  0  0
   -1.0025   -5.0942   27.4586 C   0  0  0  0  0  0  0  0  0  0  0  0
    2.2474   -8.9123   16.6273 C   0  0  0  0  0  0  0  0  0  0  0  0
    4.4957   -9.2636   17.3041 C   0  0  0  0  0  0  0  0  0  0  0  0
   -1.8070   -5.6086   28.1920 O   0  0  0  0  0  0  0  0  0  0  0  0
   10.4296   -5.1799   28.3140 C   0  0  0  0  0  0  0  0  0  0  0  0
    6.6017   -5.9004   26.9187 C   0  0  0  0  0  0  0  0  0  0  0  0
    2.4761   -6.9940   26.4111 N   0  0  0  0  0  0  0  0  0  0  0  0
    9.1353   -5.4053   27.8239 C   0  0  0  0  0  0  0  0  0  0  0  0
    0.9922   -9.3232   16.5995 O   0  0  0  0  0  0  0  0  0  0  0  0
    1.5232   -7.6869   27.1182 C   0  0  0  0  0  0  0  0  0  0  0  0
    8.6878   -6.6715   27.7262 N   0  0  0  0  0  0  0  0  0  0  0  0
    6.9911   -8.2423   27.1808 C   0  0  0  0  0  0  0  0  0  0  0  0
    3.8436   -7.2758   16.0578 C   0  0  0  0  0  0  0  0  0  0  0  0
    3.1882   -9.7190   17.2566 C   0  0  0  0  0  0  0  0  0  0  0  0
    5.3488   -6.1737   26.5092 C   0  0  0  0  0  0  0  0  0  0  0  0
    7.4567   -6.9464   27.2858 C   0  0  0  0  0  0  0  0  0  0  0  0
    0.1921   -5.7592   27.1123 C   0  0  0  0  0  0  0  0  0  0  0  0
    3.5517   -7.7407   25.9711 C   0  0  0  0  0  0  0  0  0  0  0  0
  1  4  4  0
  1 22  4  0
  2 20  4  0
  2 27  4  0
  3 12  4  0
  3 23  4  0
  4 25  4  0
  4 28  1  0
  5  8  4  0
  5 17  4  0
  6  7  4  0
  6 16  4  0
  7 18  4  0
  8 27  4  0
  9 13  4  0
  9 23  4  0
 10 11  1  0
 11 14  2  0
 11 27  1  0
 12 19  1  0
 12 24  4  0
 13 24  4  0
 15 18  1  0
 16 25  4  0
 16 26  4  0
 17 20  4  0
 17 28  1  0
 18 21  4  0
 21 26  4  0
 22 26  4  0
M  END
$$$$

 Created by Python create_sdf_string function

 28 30  0  0  0  0  0  0  0  0999 V2000
    5.7174   -8.4529   26.7190 C   0  0  0  0  0  0  0  0  0  0  0  0
    0.3974   -7.0711   27.5149 C   0  0  0  0  0  0  0  0  0  0  0  0
    2.5338   -7.6891   16.0102 C   0  0  0  0  0  0  0  0  0  0  0  0
    4.8690   -7.4380   26.4151 C   0  0  0  0  0  0  0  0  0  0  0  0
    2.3021   -5.6726   26.0378 C   0  0  0  0  0  0  0  0  0  0  0  0
    7.0880   -4.6163   27.0010 C   0  0  0  0  0  0  0  0  0  0  0  0
    8.3117   -4.3698   27.4436 C   0  0  0  0  0  0  0  0  0  0  0  0
    1.1339   -5.0515   26.3541 C   0  0  0  0  0  0  0  0  0  0  0  0
    4.8080   -8.0362   16.7101 C   0  0  0  0  0  0  0  0  0  0  0  0
   -1.2173   -3.9294   26.9717 O   0  0  0  0  0  0  0  0  0  0  0  0
   -1.0025   -5.0942   27.4586 C   0  0  0  0  0  0  0  0  0  0  0  0
    2.2474   -8.9123   16.6273 C   0  0  0  0  0  0  0  0  0  0  0  0
    4.4957   -9.2636   17.3041 C   0  0  0  0  0  0  0  0  0  0  0  0
   -1.8070   -5.6086   28.1920 O   0  0  0  0  0  0  0  0  0  0  0  0
   10.4296   -5.1799   28.3140 C   0  0  0  0  0  0  0  0  0  0  0  0
    6.6017   -5.9004   26.9187 C   0  0  0  0  0  0  0  0  0  0  0  0
    2.4761   -6.9940   26.4111 N   0  0  0  0  0  0  0  0  0  0  0  0
    9.1353   -5.4053   27.8239 C   0  0  0  0  0  0  0  0  0  0  0  0
    0.9922   -9.3232   16.5995 O   0  0  0  0  0  0  0  0  0  0  0  0
    1.5232   -7.6869   27.1182 C   0  0  0  0  0  0  0  0  0  0  0  0
    8.6878   -6.6715   27.7262 N   0  0  0  0  0  0  0  0  0  0  0  0
    6.9911   -8.2423   27.1808 C   0  0  0  0  0  0  0  0  0  0  0  0
    3.8436   -7.2758   16.0578 C   0  0  0  0  0  0  0  0  0  0  0  0
    3.1882   -9.7190   17.2566 C   0  0  0  0  0  0  0  0  0  0  0  0
    5.3488   -6.1737   26.5092 C   0  0  0  0  0  0  0  0  0  0  0  0
    7.4567   -6.9464   27.2858 C   0  0  0  0  0  0  0  0  0  0  0  0
    0.1921   -5.7592   27.1123 C   0  0  0  0  0  0  0  0  0  0  0  0
    3.5517   -7.7407   25.9711 C   0  0  0  0  0  0  0  0  0  0  0  0
  1  4  4  0
  1 22  4  0
  2 20  4  0
  2 27  4  0
  3 12  4  0
  3 23  4  0
  4 25  4  0
  4 28  1  0
  5  8  4  0
  5 17  4  0
  6  7  4  0
  6 16  4  0
  7 18  4  0
  8 27  4  0
  9 13  4  0
  9 23  4  0
 10 11  1  0
 11 14  2  0
 11 27  1  0
 12 19  1  0
 12 24  4  0
 13 24  4  0
 15 18  1  0
 16 25  4  0
 16 26  4  0
 17 20  4  0
 17 28  1  0
 18 21  4  0
 21 26  4  0
 22 26  4  0
M  END
$$$$

 Created by Python create_sdf_string function

 28 30  0  0  0  0  0  0  0  0999 V2000
    5.7174   -8.4529   26.7190 C   0  0  0  0  0  0  0  0  0  0  0  0
    0.3974   -7.0711   27.5149 C   0  0  0  0  0  0  0  0  0  0  0  0
    2.5338   -7.6891   16.0102 C   0  0  0  0  0  0  0  0  0  0  0  0
    4.8690   -7.4380   26.4151 C   0  0  0  0  0  0  0  0  0  0  0  0
    2.3021   -5.6726   26.0378 C   0  0  0  0  0  0  0  0  0  0  0  0
    7.0880   -4.6163   27.0010 C   0  0  0  0  0  0  0  0  0  0  0  0
    8.3117   -4.3698   27.4436 C   0  0  0  0  0  0  0  0  0  0  0  0
    1.1339   -5.0515   26.3541 C   0  0  0  0  0  0  0  0  0  0  0  0
    4.8080   -8.0362   16.7101 C   0  0  0  0  0  0  0  0  0  0  0  0
   -1.2173   -3.9294   26.9717 O   0  0  0  0  0  0  0  0  0  0  0  0
   -1.0025   -5.0942   27.4586 C   0  0  0  0  0  0  0  0  0  0  0  0
    2.2474   -8.9123   16.6273 C   0  0  0  0  0  0  0  0  0  0  0  0
    4.4957   -9.2636   17.3041 C   0  0  0  0  0  0  0  0  0  0  0  0
   -1.8070   -5.6086   28.1920 O   0  0  0  0  0  0  0  0  0  0  0  0
   10.4296   -5.1799   28.3140 C   0  0  0  0  0  0  0  0  0  0  0  0
    6.6017   -5.9004   26.9187 C   0  0  0  0  0  0  0  0  0  0  0  0
    2.4761   -6.9940   26.4111 N   0  0  0  0  0  0  0  0  0  0  0  0
    9.1353   -5.4053   27.8239 C   0  0  0  0  0  0  0  0  0  0  0  0
    0.9922   -9.3232   16.5995 O   0  0  0  0  0  0  0  0  0  0  0  0
    1.5232   -7.6869   27.1182 C   0  0  0  0  0  0  0  0  0  0  0  0
    8.6878   -6.6715   27.7262 N   0  0  0  0  0  0  0  0  0  0  0  0
    6.9911   -8.2423   27.1808 C   0  0  0  0  0  0  0  0  0  0  0  0
    3.8436   -7.2758   16.0578 C   0  0  0  0  0  0  0  0  0  0  0  0
    3.1882   -9.7190   17.2566 C   0  0  0  0  0  0  0  0  0  0  0  0
    5.3488   -6.1737   26.5092 C   0  0  0  0  0  0  0  0  0  0  0  0
    7.4567   -6.9464   27.2858 C   0  0  0  0  0  0  0  0  0  0  0  0
    0.1921   -5.7592   27.1123 C   0  0  0  0  0  0  0  0  0  0  0  0
    3.5517   -7.7407   25.9711 C   0  0  0  0  0  0  0  0  0  0  0  0
  1  4  4  0
  1 22  4  0
  2 20  4  0
  2 27  4  0
  3 12  4  0
  3 23  4  0
  4 25  4  0
  4 28  1  0
  5  8  4  0
  5 17  4  0
  6  7  4  0
  6 16  4  0
  7 18  4  0
  8 27  4  0
  9 13  4  0
  9 23  4  0
 10 11  1  0
 11 14  2  0
 11 27  1  0
 12 19  1  0
 12 24  4  0
 13 24  4  0
 15 18  1  0
 16 25  4  0
 16 26  4  0
 17 20  4  0
 17 28  1  0
 18 21  4  0
 21 26  4  0
 22 26  4  0
M  END
$$$$

 Created by Python create_sdf_string function

 28 30  0  0  0  0  0  0  0  0999 V2000
    5.7174   -8.4529   26.7190 C   0  0  0  0  0  0  0  0  0  0  0  0
    0.3974   -7.0711   27.5149 C   0  0  0  0  0  0  0  0  0  0  0  0
    2.5338   -7.6891   16.0102 C   0  0  0  0  0  0  0  0  0  0  0  0
    4.8690   -7.4380   26.4151 C   0  0  0  0  0  0  0  0  0  0  0  0
    2.3021   -5.6726   26.0378 C   0  0  0  0  0  0  0  0  0  0  0  0
    7.0880   -4.6163   27.0010 C   0  0  0  0  0  0  0  0  0  0  0  0
    8.3117   -4.3698   27.4436 C   0  0  0  0  0  0  0  0  0  0  0  0
    1.1339   -5.0515   26.3541 C   0  0  0  0  0  0  0  0  0  0  0  0
    4.8080   -8.0362   16.7101 C   0  0  0  0  0  0  0  0  0  0  0  0
   -1.2173   -3.9294   26.9717 O   0  0  0  0  0  0  0  0  0  0  0  0
   -1.0025   -5.0942   27.4586 C   0  0  0  0  0  0  0  0  0  0  0  0
    2.2474   -8.9123   16.6273 C   0  0  0  0  0  0  0  0  0  0  0  0
    4.4957   -9.2636   17.3041 C   0  0  0  0  0  0  0  0  0  0  0  0
   -1.8070   -5.6086   28.1920 O   0  0  0  0  0  0  0  0  0  0  0  0
   10.4296   -5.1799   28.3140 C   0  0  0  0  0  0  0  0  0  0  0  0
    6.6017   -5.9004   26.9187 C   0  0  0  0  0  0  0  0  0  0  0  0
    2.4761   -6.9940   26.4111 N   0  0  0  0  0  0  0  0  0  0  0  0
    9.1353   -5.4053   27.8239 C   0  0  0  0  0  0  0  0  0  0  0  0
    0.9922   -9.3232   16.5995 O   0  0  0  0  0  0  0  0  0  0  0  0
    1.5232   -7.6869   27.1182 C   0  0  0  0  0  0  0  0  0  0  0  0
    8.6878   -6.6715   27.7262 N   0  0  0  0  0  0  0  0  0  0  0  0
    6.9911   -8.2423   27.1808 C   0  0  0  0  0  0  0  0  0  0  0  0
    3.8436   -7.2758   16.0578 C   0  0  0  0  0  0  0  0  0  0  0  0
    3.1882   -9.7190   17.2566 C   0  0  0  0  0  0  0  0  0  0  0  0
    5.3488   -6.1737   26.5092 C   0  0  0  0  0  0  0  0  0  0  0  0
    7.4567   -6.9464   27.2858 C   0  0  0  0  0  0  0  0  0  0  0  0
    0.1921   -5.7592   27.1123 C   0  0  0  0  0  0  0  0  0  0  0  0
    3.5517   -7.7407   25.9711 C   0  0  0  0  0  0  0  0  0  0  0  0
  1  4  4  0
  1 22  4  0
  2 20  4  0
  2 27  4  0
  3 12  4  0
  3 23  4  0
  4 25  4  0
  4 28  1  0
  5  8  4  0
  5 17  4  0
  6  7  4  0
  6 16  4  0
  7 18  4  0
  8 27  4  0
  9 13  4  0
  9 23  4  0
 10 11  1  0
 11 14  2  0
 11 27  1  0
 12 19  1  0
 12 24  4  0
 13 24  4  0
 15 18  1  0
 16 25  4  0
 16 26  4  0
 17 20  4  0
 17 28  1  0
 18 21  4  0
 21 26  4  0
 22 26  4  0
M  END
$$$$

 Created by Python create_sdf_string function

 28 30  0  0  0  0  0  0  0  0999 V2000
    5.7174   -8.4529   26.7190 C   0  0  0  0  0  0  0  0  0  0  0  0
    0.3974   -7.0711   27.5149 C   0  0  0  0  0  0  0  0  0  0  0  0
    2.5338   -7.6891   16.0102 C   0  0  0  0  0  0  0  0  0  0  0  0
    4.8690   -7.4380   26.4151 C   0  0  0  0  0  0  0  0  0  0  0  0
    2.3021   -5.6726   26.0378 C   0  0  0  0  0  0  0  0  0  0  0  0
    7.0880   -4.6163   27.0010 C   0  0  0  0  0  0  0  0  0  0  0  0
    8.3117   -4.3698   27.4436 C   0  0  0  0  0  0  0  0  0  0  0  0
    1.1339   -5.0515   26.3541 C   0  0  0  0  0  0  0  0  0  0  0  0
    4.8080   -8.0362   16.7101 C   0  0  0  0  0  0  0  0  0  0  0  0
   -1.2173   -3.9294   26.9717 O   0  0  0  0  0  0  0  0  0  0  0  0
   -1.0025   -5.0942   27.4586 C   0  0  0  0  0  0  0  0  0  0  0  0
    2.2474   -8.9123   16.6273 C   0  0  0  0  0  0  0  0  0  0  0  0
    4.4957   -9.2636   17.3041 C   0  0  0  0  0  0  0  0  0  0  0  0
   -1.8070   -5.6086   28.1920 O   0  0  0  0  0  0  0  0  0  0  0  0
   10.4296   -5.1799   28.3140 C   0  0  0  0  0  0  0  0  0  0  0  0
    6.6017   -5.9004   26.9187 C   0  0  0  0  0  0  0  0  0  0  0  0
    2.4761   -6.9940   26.4111 N   0  0  0  0  0  0  0  0  0  0  0  0
    9.1353   -5.4053   27.8239 C   0  0  0  0  0  0  0  0  0  0  0  0
    0.9922   -9.3232   16.5995 O   0  0  0  0  0  0  0  0  0  0  0  0
    1.5232   -7.6869   27.1182 C   0  0  0  0  0  0  0  0  0  0  0  0
    8.6878   -6.6715   27.7262 N   0  0  0  0  0  0  0  0  0  0  0  0
    6.9911   -8.2423   27.1808 C   0  0  0  0  0  0  0  0  0  0  0  0
    3.8436   -7.2758   16.0578 C   0  0  0  0  0  0  0  0  0  0  0  0
    3.1882   -9.7190   17.2566 C   0  0  0  0  0  0  0  0  0  0  0  0
    5.3488   -6.1737   26.5092 C   0  0  0  0  0  0  0  0  0  0  0  0
    7.4567   -6.9464   27.2858 C   0  0  0  0  0  0  0  0  0  0  0  0
    0.1921   -5.7592   27.1123 C   0  0  0  0  0  0  0  0  0  0  0  0
    3.5517   -7.7407   25.9711 C   0  0  0  0  0  0  0  0  0  0  0  0
  1  4  4  0
  1 22  4  0
  2 20  4  0
  2 27  4  0
  3 12  4  0
  3 23  4  0
  4 25  4  0
  4 28  1  0
  5  8  4  0
  5 17  4  0
  6  7  4  0
  6 16  4  0
  7 18  4  0
  8 27  4  0
  9 13  4  0
  9 23  4  0
 10 11  1  0
 11 14  2  0
 11 27  1  0
 12 19  1  0
 12 24  4  0
 13 24  4  0
 15 18  1  0
 16 25  4  0
 16 26  4  0
 17 20  4  0
 17 28  1  0
 18 21  4  0
 21 26  4  0
 22 26  4  0
M  END
$$$$

 Created by Python create_sdf_string function

 28 30  0  0  0  0  0  0  0  0999 V2000
    5.7174   -8.4529   26.7190 C   0  0  0  0  0  0  0  0  0  0  0  0
    0.3974   -7.0711   27.5149 C   0  0  0  0  0  0  0  0  0  0  0  0
    2.5338   -7.6891   16.0102 C   0  0  0  0  0  0  0  0  0  0  0  0
    4.8690   -7.4380   26.4151 C   0  0  0  0  0  0  0  0  0  0  0  0
    2.3021   -5.6726   26.0378 C   0  0  0  0  0  0  0  0  0  0  0  0
    7.0880   -4.6163   27.0010 C   0  0  0  0  0  0  0  0  0  0  0  0
    8.3117   -4.3698   27.4436 C   0  0  0  0  0  0  0  0  0  0  0  0
    1.1339   -5.0515   26.3541 C   0  0  0  0  0  0  0  0  0  0  0  0
    4.8080   -8.0362   16.7101 C   0  0  0  0  0  0  0  0  0  0  0  0
   -1.2173   -3.9294   26.9717 O   0  0  0  0  0  0  0  0  0  0  0  0
   -1.0025   -5.0942   27.4586 C   0  0  0  0  0  0  0  0  0  0  0  0
    2.2474   -8.9123   16.6273 C   0  0  0  0  0  0  0  0  0  0  0  0
    4.4957   -9.2636   17.3041 C   0  0  0  0  0  0  0  0  0  0  0  0
   -1.8070   -5.6086   28.1920 O   0  0  0  0  0  0  0  0  0  0  0  0
   10.4296   -5.1799   28.3140 C   0  0  0  0  0  0  0  0  0  0  0  0
    6.6017   -5.9004   26.9187 C   0  0  0  0  0  0  0  0  0  0  0  0
    2.4761   -6.9940   26.4111 N   0  0  0  0  0  0  0  0  0  0  0  0
    9.1353   -5.4053   27.8239 C   0  0  0  0  0  0  0  0  0  0  0  0
    0.9922   -9.3232   16.5995 O   0  0  0  0  0  0  0  0  0  0  0  0
    1.5232   -7.6869   27.1182 C   0  0  0  0  0  0  0  0  0  0  0  0
    8.6878   -6.6715   27.7262 N   0  0  0  0  0  0  0  0  0  0  0  0
    6.9911   -8.2423   27.1808 C   0  0  0  0  0  0  0  0  0  0  0  0
    3.8436   -7.2758   16.0578 C   0  0  0  0  0  0  0  0  0  0  0  0
    3.1882   -9.7190   17.2566 C   0  0  0  0  0  0  0  0  0  0  0  0
    5.3488   -6.1737   26.5092 C   0  0  0  0  0  0  0  0  0  0  0  0
    7.4567   -6.9464   27.2858 C   0  0  0  0  0  0  0  0  0  0  0  0
    0.1921   -5.7592   27.1123 C   0  0  0  0  0  0  0  0  0  0  0  0
    3.5517   -7.7407   25.9711 C   0  0  0  0  0  0  0  0  0  0  0  0
  1  4  4  0
  1 22  4  0
  2 20  4  0
  2 27  4  0
  3 12  4  0
  3 23  4  0
  4 25  4  0
  4 28  1  0
  5  8  4  0
  5 17  4  0
  6  7  4  0
  6 16  4  0
  7 18  4  0
  8 27  4  0
  9 13  4  0
  9 23  4  0
 10 11  1  0
 11 14  2  0
 11 27  1  0
 12 19  1  0
 12 24  4  0
 13 24  4  0
 15 18  1  0
 16 25  4  0
 16 26  4  0
 17 20  4  0
 17 28  1  0
 18 21  4  0
 21 26  4  0
 22 26  4  0
M  END
$$$$

 Created by Python create_sdf_string function

 28 30  0  0  0  0  0  0  0  0999 V2000
    5.7174   -8.4529   26.7190 C   0  0  0  0  0  0  0  0  0  0  0  0
    0.3974   -7.0711   27.5149 C   0  0  0  0  0  0  0  0  0  0  0  0
    2.5338   -7.6891   16.0102 C   0  0  0  0  0  0  0  0  0  0  0  0
    4.8690   -7.4380   26.4151 C   0  0  0  0  0  0  0  0  0  0  0  0
    2.3021   -5.6726   26.0378 C   0  0  0  0  0  0  0  0  0  0  0  0
    7.0880   -4.6163   27.0010 C   0  0  0  0  0  0  0  0  0  0  0  0
    8.3117   -4.3698   27.4436 C   0  0  0  0  0  0  0  0  0  0  0  0
    1.1339   -5.0515   26.3541 C   0  0  0  0  0  0  0  0  0  0  0  0
    4.8080   -8.0362   16.7101 C   0  0  0  0  0  0  0  0  0  0  0  0
   -1.2173   -3.9294   26.9717 O   0  0  0  0  0  0  0  0  0  0  0  0
   -1.0025   -5.0942   27.4586 C   0  0  0  0  0  0  0  0  0  0  0  0
    2.2474   -8.9123   16.6273 C   0  0  0  0  0  0  0  0  0  0  0  0
    4.4957   -9.2636   17.3041 C   0  0  0  0  0  0  0  0  0  0  0  0
   -1.8070   -5.6086   28.1920 O   0  0  0  0  0  0  0  0  0  0  0  0
   10.4296   -5.1799   28.3140 C   0  0  0  0  0  0  0  0  0  0  0  0
    6.6017   -5.9004   26.9187 C   0  0  0  0  0  0  0  0  0  0  0  0
    2.4761   -6.9940   26.4111 N   0  0  0  0  0  0  0  0  0  0  0  0
    9.1353   -5.4053   27.8239 C   0  0  0  0  0  0  0  0  0  0  0  0
    0.9922   -9.3232   16.5995 O   0  0  0  0  0  0  0  0  0  0  0  0
    1.5232   -7.6869   27.1182 C   0  0  0  0  0  0  0  0  0  0  0  0
    8.6878   -6.6715   27.7262 N   0  0  0  0  0  0  0  0  0  0  0  0
    6.9911   -8.2423   27.1808 C   0  0  0  0  0  0  0  0  0  0  0  0
    3.8436   -7.2758   16.0578 C   0  0  0  0  0  0  0  0  0  0  0  0
    3.1882   -9.7190   17.2566 C   0  0  0  0  0  0  0  0  0  0  0  0
    5.3488   -6.1737   26.5092 C   0  0  0  0  0  0  0  0  0  0  0  0
    7.4567   -6.9464   27.2858 C   0  0  0  0  0  0  0  0  0  0  0  0
    0.1921   -5.7592   27.1123 C   0  0  0  0  0  0  0  0  0  0  0  0
    3.5517   -7.7407   25.9711 C   0  0  0  0  0  0  0  0  0  0  0  0
  1  4  4  0
  1 22  4  0
  2 20  4  0
  2 27  4  0
  3 12  4  0
  3 23  4  0
  4 25  4  0
  4 28  1  0
  5  8  4  0
  5 17  4  0
  6  7  4  0
  6 16  4  0
  7 18  4  0
  8 27  4  0
  9 13  4  0
  9 23  4  0
 10 11  1  0
 11 14  2  0
 11 27  1  0
 12 19  1  0
 12 24  4  0
 13 24  4  0
 15 18  1  0
 16 25  4  0
 16 26  4  0
 17 20  4  0
 17 28  1  0
 18 21  4  0
 21 26  4  0
 22 26  4  0
M  END
$$$$

 Created by Python create_sdf_string function

 28 30  0  0  0  0  0  0  0  0999 V2000
    5.7174   -8.4529   26.7190 C   0  0  0  0  0  0  0  0  0  0  0  0
    0.3974   -7.0711   27.5149 C   0  0  0  0  0  0  0  0  0  0  0  0
    2.5338   -7.6891   16.0102 C   0  0  0  0  0  0  0  0  0  0  0  0
    4.8690   -7.4380   26.4151 C   0  0  0  0  0  0  0  0  0  0  0  0
    2.3021   -5.6726   26.0378 C   0  0  0  0  0  0  0  0  0  0  0  0
    7.0880   -4.6163   27.0010 C   0  0  0  0  0  0  0  0  0  0  0  0
    8.3117   -4.3698   27.4436 C   0  0  0  0  0  0  0  0  0  0  0  0
    1.1339   -5.0515   26.3541 C   0  0  0  0  0  0  0  0  0  0  0  0
    4.8080   -8.0362   16.7101 C   0  0  0  0  0  0  0  0  0  0  0  0
   -1.2173   -3.9294   26.9717 O   0  0  0  0  0  0  0  0  0  0  0  0
   -1.0025   -5.0942   27.4586 C   0  0  0  0  0  0  0  0  0  0  0  0
    2.2474   -8.9123   16.6273 C   0  0  0  0  0  0  0  0  0  0  0  0
    4.4957   -9.2636   17.3041 C   0  0  0  0  0  0  0  0  0  0  0  0
   -1.8070   -5.6086   28.1920 O   0  0  0  0  0  0  0  0  0  0  0  0
   10.4296   -5.1799   28.3140 C   0  0  0  0  0  0  0  0  0  0  0  0
    6.6017   -5.9004   26.9187 C   0  0  0  0  0  0  0  0  0  0  0  0
    2.4761   -6.9940   26.4111 N   0  0  0  0  0  0  0  0  0  0  0  0
    9.1353   -5.4053   27.8239 C   0  0  0  0  0  0  0  0  0  0  0  0
    0.9922   -9.3232   16.5995 O   0  0  0  0  0  0  0  0  0  0  0  0
    1.5232   -7.6869   27.1182 C   0  0  0  0  0  0  0  0  0  0  0  0
    8.6878   -6.6715   27.7262 N   0  0  0  0  0  0  0  0  0  0  0  0
    6.9911   -8.2423   27.1808 C   0  0  0  0  0  0  0  0  0  0  0  0
    3.8436   -7.2758   16.0578 C   0  0  0  0  0  0  0  0  0  0  0  0
    3.1882   -9.7190   17.2566 C   0  0  0  0  0  0  0  0  0  0  0  0
    5.3488   -6.1737   26.5092 C   0  0  0  0  0  0  0  0  0  0  0  0
    7.4567   -6.9464   27.2858 C   0  0  0  0  0  0  0  0  0  0  0  0
    0.1921   -5.7592   27.1123 C   0  0  0  0  0  0  0  0  0  0  0  0
    3.5517   -7.7407   25.9711 C   0  0  0  0  0  0  0  0  0  0  0  0
  1  4  4  0
  1 22  4  0
  2 20  4  0
  2 27  4  0
  3 12  4  0
  3 23  4  0
  4 25  4  0
  4 28  1  0
  5  8  4  0
  5 17  4  0
  6  7  4  0
  6 16  4  0
  7 18  4  0
  8 27  4  0
  9 13  4  0
  9 23  4  0
 10 11  1  0
 11 14  2  0
 11 27  1  0
 12 19  1  0
 12 24  4  0
 13 24  4  0
 15 18  1  0
 16 25  4  0
 16 26  4  0
 17 20  4  0
 17 28  1  0
 18 21  4  0
 21 26  4  0
 22 26  4  0
M  END
$$$$

 Created by Python create_sdf_string function

 28 30  0  0  0  0  0  0  0  0999 V2000
    5.7174   -8.4529   26.7190 C   0  0  0  0  0  0  0  0  0  0  0  0
    0.3974   -7.0711   27.5149 C   0  0  0  0  0  0  0  0  0  0  0  0
    2.5338   -7.6891   16.0102 C   0  0  0  0  0  0  0  0  0  0  0  0
    4.8690   -7.4380   26.4151 C   0  0  0  0  0  0  0  0  0  0  0  0
    2.3021   -5.6726   26.0378 C   0  0  0  0  0  0  0  0  0  0  0  0
    7.0880   -4.6163   27.0010 C   0  0  0  0  0  0  0  0  0  0  0  0
    8.3117   -4.3698   27.4436 C   0  0  0  0  0  0  0  0  0  0  0  0
    1.1339   -5.0515   26.3541 C   0  0  0  0  0  0  0  0  0  0  0  0
    4.8080   -8.0362   16.7101 C   0  0  0  0  0  0  0  0  0  0  0  0
   -1.2173   -3.9294   26.9717 O   0  0  0  0  0  0  0  0  0  0  0  0
   -1.0025   -5.0942   27.4586 C   0  0  0  0  0  0  0  0  0  0  0  0
    2.2474   -8.9123   16.6273 C   0  0  0  0  0  0  0  0  0  0  0  0
    4.4957   -9.2636   17.3041 C   0  0  0  0  0  0  0  0  0  0  0  0
   -1.8070   -5.6086   28.1920 O   0  0  0  0  0  0  0  0  0  0  0  0
   10.4296   -5.1799   28.3140 C   0  0  0  0  0  0  0  0  0  0  0  0
    6.6017   -5.9004   26.9187 C   0  0  0  0  0  0  0  0  0  0  0  0
    2.4761   -6.9940   26.4111 N   0  0  0  0  0  0  0  0  0  0  0  0
    9.1353   -5.4053   27.8239 C   0  0  0  0  0  0  0  0  0  0  0  0
    0.9922   -9.3232   16.5995 O   0  0  0  0  0  0  0  0  0  0  0  0
    1.5232   -7.6869   27.1182 C   0  0  0  0  0  0  0  0  0  0  0  0
    8.6878   -6.6715   27.7262 N   0  0  0  0  0  0  0  0  0  0  0  0
    6.9911   -8.2423   27.1808 C   0  0  0  0  0  0  0  0  0  0  0  0
    3.8436   -7.2758   16.0578 C   0  0  0  0  0  0  0  0  0  0  0  0
    3.1882   -9.7190   17.2566 C   0  0  0  0  0  0  0  0  0  0  0  0
    5.3488   -6.1737   26.5092 C   0  0  0  0  0  0  0  0  0  0  0  0
    7.4567   -6.9464   27.2858 C   0  0  0  0  0  0  0  0  0  0  0  0
    0.1921   -5.7592   27.1123 C   0  0  0  0  0  0  0  0  0  0  0  0
    3.5517   -7.7407   25.9711 C   0  0  0  0  0  0  0  0  0  0  0  0
  1  4  4  0
  1 22  4  0
  2 20  4  0
  2 27  4  0
  3 12  4  0
  3 23  4  0
  4 25  4  0
  4 28  1  0
  5  8  4  0
  5 17  4  0
  6  7  4  0
  6 16  4  0
  7 18  4  0
  8 27  4  0
  9 13  4  0
  9 23  4  0
 10 11  1  0
 11 14  2  0
 11 27  1  0
 12 19  1  0
 12 24  4  0
 13 24  4  0
 15 18  1  0
 16 25  4  0
 16 26  4  0
 17 20  4  0
 17 28  1  0
 18 21  4  0
 21 26  4  0
 22 26  4  0
M  END
$$$$

 Created by Python create_sdf_string function

 28 30  0  0  0  0  0  0  0  0999 V2000
    5.7174   -8.4529   26.7190 C   0  0  0  0  0  0  0  0  0  0  0  0
    0.3974   -7.0711   27.5149 C   0  0  0  0  0  0  0  0  0  0  0  0
    2.5338   -7.6891   16.0102 C   0  0  0  0  0  0  0  0  0  0  0  0
    4.8690   -7.4380   26.4151 C   0  0  0  0  0  0  0  0  0  0  0  0
    2.3021   -5.6726   26.0378 C   0  0  0  0  0  0  0  0  0  0  0  0
    7.0880   -4.6163   27.0010 C   0  0  0  0  0  0  0  0  0  0  0  0
    8.3117   -4.3698   27.4436 C   0  0  0  0  0  0  0  0  0  0  0  0
    1.1339   -5.0515   26.3541 C   0  0  0  0  0  0  0  0  0  0  0  0
    4.8080   -8.0362   16.7101 C   0  0  0  0  0  0  0  0  0  0  0  0
   -1.2173   -3.9294   26.9717 O   0  0  0  0  0  0  0  0  0  0  0  0
   -1.0025   -5.0942   27.4586 C   0  0  0  0  0  0  0  0  0  0  0  0
    2.2474   -8.9123   16.6273 C   0  0  0  0  0  0  0  0  0  0  0  0
    4.4957   -9.2636   17.3041 C   0  0  0  0  0  0  0  0  0  0  0  0
   -1.8070   -5.6086   28.1920 O   0  0  0  0  0  0  0  0  0  0  0  0
   10.4296   -5.1799   28.3140 C   0  0  0  0  0  0  0  0  0  0  0  0
    6.6017   -5.9004   26.9187 C   0  0  0  0  0  0  0  0  0  0  0  0
    2.4761   -6.9940   26.4111 N   0  0  0  0  0  0  0  0  0  0  0  0
    9.1353   -5.4053   27.8239 C   0  0  0  0  0  0  0  0  0  0  0  0
    0.9922   -9.3232   16.5995 O   0  0  0  0  0  0  0  0  0  0  0  0
    1.5232   -7.6869   27.1182 C   0  0  0  0  0  0  0  0  0  0  0  0
    8.6878   -6.6715   27.7262 N   0  0  0  0  0  0  0  0  0  0  0  0
    6.9911   -8.2423   27.1808 C   0  0  0  0  0  0  0  0  0  0  0  0
    3.8436   -7.2758   16.0578 C   0  0  0  0  0  0  0  0  0  0  0  0
    3.1882   -9.7190   17.2566 C   0  0  0  0  0  0  0  0  0  0  0  0
    5.3488   -6.1737   26.5092 C   0  0  0  0  0  0  0  0  0  0  0  0
    7.4567   -6.9464   27.2858 C   0  0  0  0  0  0  0  0  0  0  0  0
    0.1921   -5.7592   27.1123 C   0  0  0  0  0  0  0  0  0  0  0  0
    3.5517   -7.7407   25.9711 C   0  0  0  0  0  0  0  0  0  0  0  0
  1  4  4  0
  1 22  4  0
  2 20  4  0
  2 27  4  0
  3 12  4  0
  3 23  4  0
  4 25  4  0
  4 28  1  0
  5  8  4  0
  5 17  4  0
  6  7  4  0
  6 16  4  0
  7 18  4  0
  8 27  4  0
  9 13  4  0
  9 23  4  0
 10 11  1  0
 11 14  2  0
 11 27  1  0
 12 19  1  0
 12 24  4  0
 13 24  4  0
 15 18  1  0
 16 25  4  0
 16 26  4  0
 17 20  4  0
 17 28  1  0
 18 21  4  0
 21 26  4  0
 22 26  4  0
M  END
$$$$

 Created by Python create_sdf_string function

 28 30  0  0  0  0  0  0  0  0999 V2000
    5.7174   -8.4529   26.7190 C   0  0  0  0  0  0  0  0  0  0  0  0
    0.3974   -7.0711   27.5149 C   0  0  0  0  0  0  0  0  0  0  0  0
    2.5338   -7.6891   16.0102 C   0  0  0  0  0  0  0  0  0  0  0  0
    4.8690   -7.4380   26.4151 C   0  0  0  0  0  0  0  0  0  0  0  0
    2.3021   -5.6726   26.0378 C   0  0  0  0  0  0  0  0  0  0  0  0
    7.0880   -4.6163   27.0010 C   0  0  0  0  0  0  0  0  0  0  0  0
    8.3117   -4.3698   27.4436 C   0  0  0  0  0  0  0  0  0  0  0  0
    1.1339   -5.0515   26.3541 C   0  0  0  0  0  0  0  0  0  0  0  0
    4.8080   -8.0362   16.7101 C   0  0  0  0  0  0  0  0  0  0  0  0
   -1.2173   -3.9294   26.9717 O   0  0  0  0  0  0  0  0  0  0  0  0
   -1.0025   -5.0942   27.4586 C   0  0  0  0  0  0  0  0  0  0  0  0
    2.2474   -8.9123   16.6273 C   0  0  0  0  0  0  0  0  0  0  0  0
    4.4957   -9.2636   17.3041 C   0  0  0  0  0  0  0  0  0  0  0  0
   -1.8070   -5.6086   28.1920 O   0  0  0  0  0  0  0  0  0  0  0  0
   10.4296   -5.1799   28.3140 C   0  0  0  0  0  0  0  0  0  0  0  0
    6.6017   -5.9004   26.9187 C   0  0  0  0  0  0  0  0  0  0  0  0
    2.4761   -6.9940   26.4111 N   0  0  0  0  0  0  0  0  0  0  0  0
    9.1353   -5.4053   27.8239 C   0  0  0  0  0  0  0  0  0  0  0  0
    0.9922   -9.3232   16.5995 O   0  0  0  0  0  0  0  0  0  0  0  0
    1.5232   -7.6869   27.1182 C   0  0  0  0  0  0  0  0  0  0  0  0
    8.6878   -6.6715   27.7262 N   0  0  0  0  0  0  0  0  0  0  0  0
    6.9911   -8.2423   27.1808 C   0  0  0  0  0  0  0  0  0  0  0  0
    3.8436   -7.2758   16.0578 C   0  0  0  0  0  0  0  0  0  0  0  0
    3.1882   -9.7190   17.2566 C   0  0  0  0  0  0  0  0  0  0  0  0
    5.3488   -6.1737   26.5092 C   0  0  0  0  0  0  0  0  0  0  0  0
    7.4567   -6.9464   27.2858 C   0  0  0  0  0  0  0  0  0  0  0  0
    0.1921   -5.7592   27.1123 C   0  0  0  0  0  0  0  0  0  0  0  0
    3.5517   -7.7407   25.9711 C   0  0  0  0  0  0  0  0  0  0  0  0
  1  4  4  0
  1 22  4  0
  2 20  4  0
  2 27  4  0
  3 12  4  0
  3 23  4  0
  4 25  4  0
  4 28  1  0
  5  8  4  0
  5 17  4  0
  6  7  4  0
  6 16  4  0
  7 18  4  0
  8 27  4  0
  9 13  4  0
  9 23  4  0
 10 11  1  0
 11 14  2  0
 11 27  1  0
 12 19  1  0
 12 24  4  0
 13 24  4  0
 15 18  1  0
 16 25  4  0
 16 26  4  0
 17 20  4  0
 17 28  1  0
 18 21  4  0
 21 26  4  0
 22 26  4  0
M  END
$$$$

 Created by Python create_sdf_string function

 28 30  0  0  0  0  0  0  0  0999 V2000
    5.7174   -8.4529   26.7190 C   0  0  0  0  0  0  0  0  0  0  0  0
    0.3974   -7.0711   27.5149 C   0  0  0  0  0  0  0  0  0  0  0  0
    2.5338   -7.6891   16.0102 C   0  0  0  0  0  0  0  0  0  0  0  0
    4.8690   -7.4380   26.4151 C   0  0  0  0  0  0  0  0  0  0  0  0
    2.3021   -5.6726   26.0378 C   0  0  0  0  0  0  0  0  0  0  0  0
    7.0880   -4.6163   27.0010 C   0  0  0  0  0  0  0  0  0  0  0  0
    8.3117   -4.3698   27.4436 C   0  0  0  0  0  0  0  0  0  0  0  0
    1.1339   -5.0515   26.3541 C   0  0  0  0  0  0  0  0  0  0  0  0
    4.8080   -8.0362   16.7101 C   0  0  0  0  0  0  0  0  0  0  0  0
   -1.2173   -3.9294   26.9717 O   0  0  0  0  0  0  0  0  0  0  0  0
   -1.0025   -5.0942   27.4586 C   0  0  0  0  0  0  0  0  0  0  0  0
    2.2474   -8.9123   16.6273 C   0  0  0  0  0  0  0  0  0  0  0  0
    4.4957   -9.2636   17.3041 C   0  0  0  0  0  0  0  0  0  0  0  0
   -1.8070   -5.6086   28.1920 O   0  0  0  0  0  0  0  0  0  0  0  0
   10.4296   -5.1799   28.3140 C   0  0  0  0  0  0  0  0  0  0  0  0
    6.6017   -5.9004   26.9187 C   0  0  0  0  0  0  0  0  0  0  0  0
    2.4761   -6.9940   26.4111 N   0  0  0  0  0  0  0  0  0  0  0  0
    9.1353   -5.4053   27.8239 C   0  0  0  0  0  0  0  0  0  0  0  0
    0.9922   -9.3232   16.5995 O   0  0  0  0  0  0  0  0  0  0  0  0
    1.5232   -7.6869   27.1182 C   0  0  0  0  0  0  0  0  0  0  0  0
    8.6878   -6.6715   27.7262 N   0  0  0  0  0  0  0  0  0  0  0  0
    6.9911   -8.2423   27.1808 C   0  0  0  0  0  0  0  0  0  0  0  0
    3.8436   -7.2758   16.0578 C   0  0  0  0  0  0  0  0  0  0  0  0
    3.1882   -9.7190   17.2566 C   0  0  0  0  0  0  0  0  0  0  0  0
    5.3488   -6.1737   26.5092 C   0  0  0  0  0  0  0  0  0  0  0  0
    7.4567   -6.9464   27.2858 C   0  0  0  0  0  0  0  0  0  0  0  0
    0.1921   -5.7592   27.1123 C   0  0  0  0  0  0  0  0  0  0  0  0
    3.5517   -7.7407   25.9711 C   0  0  0  0  0  0  0  0  0  0  0  0
  1  4  4  0
  1 22  4  0
  2 20  4  0
  2 27  4  0
  3 12  4  0
  3 23  4  0
  4 25  4  0
  4 28  1  0
  5  8  4  0
  5 17  4  0
  6  7  4  0
  6 16  4  0
  7 18  4  0
  8 27  4  0
  9 13  4  0
  9 23  4  0
 10 11  1  0
 11 14  2  0
 11 27  1  0
 12 19  1  0
 12 24  4  0
 13 24  4  0
 15 18  1  0
 16 25  4  0
 16 26  4  0
 17 20  4  0
 17 28  1  0
 18 21  4  0
 21 26  4  0
 22 26  4  0
M  END
$$$$

 Created by Python create_sdf_string function

 28 30  0  0  0  0  0  0  0  0999 V2000
    5.7174   -8.4529   26.7190 C   0  0  0  0  0  0  0  0  0  0  0  0
    0.3974   -7.0711   27.5149 C   0  0  0  0  0  0  0  0  0  0  0  0
    2.5338   -7.6891   16.0102 C   0  0  0  0  0  0  0  0  0  0  0  0
    4.8690   -7.4380   26.4151 C   0  0  0  0  0  0  0  0  0  0  0  0
    2.3021   -5.6726   26.0378 C   0  0  0  0  0  0  0  0  0  0  0  0
    7.0880   -4.6163   27.0010 C   0  0  0  0  0  0  0  0  0  0  0  0
    8.3117   -4.3698   27.4436 C   0  0  0  0  0  0  0  0  0  0  0  0
    1.1339   -5.0515   26.3541 C   0  0  0  0  0  0  0  0  0  0  0  0
    4.8080   -8.0362   16.7101 C   0  0  0  0  0  0  0  0  0  0  0  0
   -1.2173   -3.9294   26.9717 O   0  0  0  0  0  0  0  0  0  0  0  0
   -1.0025   -5.0942   27.4586 C   0  0  0  0  0  0  0  0  0  0  0  0
    2.2474   -8.9123   16.6273 C   0  0  0  0  0  0  0  0  0  0  0  0
    4.4957   -9.2636   17.3041 C   0  0  0  0  0  0  0  0  0  0  0  0
   -1.8070   -5.6086   28.1920 O   0  0  0  0  0  0  0  0  0  0  0  0
   10.4296   -5.1799   28.3140 C   0  0  0  0  0  0  0  0  0  0  0  0
    6.6017   -5.9004   26.9187 C   0  0  0  0  0  0  0  0  0  0  0  0
    2.4761   -6.9940   26.4111 N   0  0  0  0  0  0  0  0  0  0  0  0
    9.1353   -5.4053   27.8239 C   0  0  0  0  0  0  0  0  0  0  0  0
    0.9922   -9.3232   16.5995 O   0  0  0  0  0  0  0  0  0  0  0  0
    1.5232   -7.6869   27.1182 C   0  0  0  0  0  0  0  0  0  0  0  0
    8.6878   -6.6715   27.7262 N   0  0  0  0  0  0  0  0  0  0  0  0
    6.9911   -8.2423   27.1808 C   0  0  0  0  0  0  0  0  0  0  0  0
    3.8436   -7.2758   16.0578 C   0  0  0  0  0  0  0  0  0  0  0  0
    3.1882   -9.7190   17.2566 C   0  0  0  0  0  0  0  0  0  0  0  0
    5.3488   -6.1737   26.5092 C   0  0  0  0  0  0  0  0  0  0  0  0
    7.4567   -6.9464   27.2858 C   0  0  0  0  0  0  0  0  0  0  0  0
    0.1921   -5.7592   27.1123 C   0  0  0  0  0  0  0  0  0  0  0  0
    3.5517   -7.7407   25.9711 C   0  0  0  0  0  0  0  0  0  0  0  0
  1  4  4  0
  1 22  4  0
  2 20  4  0
  2 27  4  0
  3 12  4  0
  3 23  4  0
  4 25  4  0
  4 28  1  0
  5  8  4  0
  5 17  4  0
  6  7  4  0
  6 16  4  0
  7 18  4  0
  8 27  4  0
  9 13  4  0
  9 23  4  0
 10 11  1  0
 11 14  2  0
 11 27  1  0
 12 19  1  0
 12 24  4  0
 13 24  4  0
 15 18  1  0
 16 25  4  0
 16 26  4  0
 17 20  4  0
 17 28  1  0
 18 21  4  0
 21 26  4  0
 22 26  4  0
M  END
$$$$

 Created by Python create_sdf_string function

 28 30  0  0  0  0  0  0  0  0999 V2000
    5.7174   -8.4529   26.7190 C   0  0  0  0  0  0  0  0  0  0  0  0
    0.3974   -7.0711   27.5149 C   0  0  0  0  0  0  0  0  0  0  0  0
    2.5338   -7.6891   16.0102 C   0  0  0  0  0  0  0  0  0  0  0  0
    4.8690   -7.4380   26.4151 C   0  0  0  0  0  0  0  0  0  0  0  0
    2.3021   -5.6726   26.0378 C   0  0  0  0  0  0  0  0  0  0  0  0
    7.0880   -4.6163   27.0010 C   0  0  0  0  0  0  0  0  0  0  0  0
    8.3117   -4.3698   27.4436 C   0  0  0  0  0  0  0  0  0  0  0  0
    1.1339   -5.0515   26.3541 C   0  0  0  0  0  0  0  0  0  0  0  0
    4.8080   -8.0362   16.7101 C   0  0  0  0  0  0  0  0  0  0  0  0
   -1.2173   -3.9294   26.9717 O   0  0  0  0  0  0  0  0  0  0  0  0
   -1.0025   -5.0942   27.4586 C   0  0  0  0  0  0  0  0  0  0  0  0
    2.2474   -8.9123   16.6273 C   0  0  0  0  0  0  0  0  0  0  0  0
    4.4957   -9.2636   17.3041 C   0  0  0  0  0  0  0  0  0  0  0  0
   -1.8070   -5.6086   28.1920 O   0  0  0  0  0  0  0  0  0  0  0  0
   10.4296   -5.1799   28.3140 C   0  0  0  0  0  0  0  0  0  0  0  0
    6.6017   -5.9004   26.9187 C   0  0  0  0  0  0  0  0  0  0  0  0
    2.4761   -6.9940   26.4111 N   0  0  0  0  0  0  0  0  0  0  0  0
    9.1353   -5.4053   27.8239 C   0  0  0  0  0  0  0  0  0  0  0  0
    0.9922   -9.3232   16.5995 O   0  0  0  0  0  0  0  0  0  0  0  0
    1.5232   -7.6869   27.1182 C   0  0  0  0  0  0  0  0  0  0  0  0
    8.6878   -6.6715   27.7262 N   0  0  0  0  0  0  0  0  0  0  0  0
    6.9911   -8.2423   27.1808 C   0  0  0  0  0  0  0  0  0  0  0  0
    3.8436   -7.2758   16.0578 C   0  0  0  0  0  0  0  0  0  0  0  0
    3.1882   -9.7190   17.2566 C   0  0  0  0  0  0  0  0  0  0  0  0
    5.3488   -6.1737   26.5092 C   0  0  0  0  0  0  0  0  0  0  0  0
    7.4567   -6.9464   27.2858 C   0  0  0  0  0  0  0  0  0  0  0  0
    0.1921   -5.7592   27.1123 C   0  0  0  0  0  0  0  0  0  0  0  0
    3.5517   -7.7407   25.9711 C   0  0  0  0  0  0  0  0  0  0  0  0
  1  4  4  0
  1 22  4  0
  2 20  4  0
  2 27  4  0
  3 12  4  0
  3 23  4  0
  4 25  4  0
  4 28  1  0
  5  8  4  0
  5 17  4  0
  6  7  4  0
  6 16  4  0
  7 18  4  0
  8 27  4  0
  9 13  4  0
  9 23  4  0
 10 11  1  0
 11 14  2  0
 11 27  1  0
 12 19  1  0
 12 24  4  0
 13 24  4  0
 15 18  1  0
 16 25  4  0
 16 26  4  0
 17 20  4  0
 17 28  1  0
 18 21  4  0
 21 26  4  0
 22 26  4  0
M  END
$$$$

 Created by Python create_sdf_string function

 28 30  0  0  0  0  0  0  0  0999 V2000
    5.7174   -8.4529   26.7190 C   0  0  0  0  0  0  0  0  0  0  0  0
    0.3974   -7.0711   27.5149 C   0  0  0  0  0  0  0  0  0  0  0  0
    2.5338   -7.6891   16.0102 C   0  0  0  0  0  0  0  0  0  0  0  0
    4.8690   -7.4380   26.4151 C   0  0  0  0  0  0  0  0  0  0  0  0
    2.3021   -5.6726   26.0378 C   0  0  0  0  0  0  0  0  0  0  0  0
    7.0880   -4.6163   27.0010 C   0  0  0  0  0  0  0  0  0  0  0  0
    8.3117   -4.3698   27.4436 C   0  0  0  0  0  0  0  0  0  0  0  0
    1.1339   -5.0515   26.3541 C   0  0  0  0  0  0  0  0  0  0  0  0
    4.8080   -8.0362   16.7101 C   0  0  0  0  0  0  0  0  0  0  0  0
   -1.2173   -3.9294   26.9717 O   0  0  0  0  0  0  0  0  0  0  0  0
   -1.0025   -5.0942   27.4586 C   0  0  0  0  0  0  0  0  0  0  0  0
    2.2474   -8.9123   16.6273 C   0  0  0  0  0  0  0  0  0  0  0  0
    4.4957   -9.2636   17.3041 C   0  0  0  0  0  0  0  0  0  0  0  0
   -1.8070   -5.6086   28.1920 O   0  0  0  0  0  0  0  0  0  0  0  0
   10.4296   -5.1799   28.3140 C   0  0  0  0  0  0  0  0  0  0  0  0
    6.6017   -5.9004   26.9187 C   0  0  0  0  0  0  0  0  0  0  0  0
    2.4761   -6.9940   26.4111 N   0  0  0  0  0  0  0  0  0  0  0  0
    9.1353   -5.4053   27.8239 C   0  0  0  0  0  0  0  0  0  0  0  0
    0.9922   -9.3232   16.5995 O   0  0  0  0  0  0  0  0  0  0  0  0
    1.5232   -7.6869   27.1182 C   0  0  0  0  0  0  0  0  0  0  0  0
    8.6878   -6.6715   27.7262 N   0  0  0  0  0  0  0  0  0  0  0  0
    6.9911   -8.2423   27.1808 C   0  0  0  0  0  0  0  0  0  0  0  0
    3.8436   -7.2758   16.0578 C   0  0  0  0  0  0  0  0  0  0  0  0
    3.1882   -9.7190   17.2566 C   0  0  0  0  0  0  0  0  0  0  0  0
    5.3488   -6.1737   26.5092 C   0  0  0  0  0  0  0  0  0  0  0  0
    7.4567   -6.9464   27.2858 C   0  0  0  0  0  0  0  0  0  0  0  0
    0.1921   -5.7592   27.1123 C   0  0  0  0  0  0  0  0  0  0  0  0
    3.5517   -7.7407   25.9711 C   0  0  0  0  0  0  0  0  0  0  0  0
  1  4  4  0
  1 22  4  0
  2 20  4  0
  2 27  4  0
  3 12  4  0
  3 23  4  0
  4 25  4  0
  4 28  1  0
  5  8  4  0
  5 17  4  0
  6  7  4  0
  6 16  4  0
  7 18  4  0
  8 27  4  0
  9 13  4  0
  9 23  4  0
 10 11  1  0
 11 14  2  0
 11 27  1  0
 12 19  1  0
 12 24  4  0
 13 24  4  0
 15 18  1  0
 16 25  4  0
 16 26  4  0
 17 20  4  0
 17 28  1  0
 18 21  4  0
 21 26  4  0
 22 26  4  0
M  END
$$$$

 Created by Python create_sdf_string function

 28 30  0  0  0  0  0  0  0  0999 V2000
    5.7174   -8.4529   26.7190 C   0  0  0  0  0  0  0  0  0  0  0  0
    0.3974   -7.0711   27.5149 C   0  0  0  0  0  0  0  0  0  0  0  0
    2.5338   -7.6891   16.0102 C   0  0  0  0  0  0  0  0  0  0  0  0
    4.8690   -7.4380   26.4151 C   0  0  0  0  0  0  0  0  0  0  0  0
    2.3021   -5.6726   26.0378 C   0  0  0  0  0  0  0  0  0  0  0  0
    7.0880   -4.6163   27.0010 C   0  0  0  0  0  0  0  0  0  0  0  0
    8.3117   -4.3698   27.4436 C   0  0  0  0  0  0  0  0  0  0  0  0
    1.1339   -5.0515   26.3541 C   0  0  0  0  0  0  0  0  0  0  0  0
    4.8080   -8.0362   16.7101 C   0  0  0  0  0  0  0  0  0  0  0  0
   -1.2173   -3.9294   26.9717 O   0  0  0  0  0  0  0  0  0  0  0  0
   -1.0025   -5.0942   27.4586 C   0  0  0  0  0  0  0  0  0  0  0  0
    2.2474   -8.9123   16.6273 C   0  0  0  0  0  0  0  0  0  0  0  0
    4.4957   -9.2636   17.3041 C   0  0  0  0  0  0  0  0  0  0  0  0
   -1.8070   -5.6086   28.1920 O   0  0  0  0  0  0  0  0  0  0  0  0
   10.4296   -5.1799   28.3140 C   0  0  0  0  0  0  0  0  0  0  0  0
    6.6017   -5.9004   26.9187 C   0  0  0  0  0  0  0  0  0  0  0  0
    2.4761   -6.9940   26.4111 N   0  0  0  0  0  0  0  0  0  0  0  0
    9.1353   -5.4053   27.8239 C   0  0  0  0  0  0  0  0  0  0  0  0
    0.9922   -9.3232   16.5995 O   0  0  0  0  0  0  0  0  0  0  0  0
    1.5232   -7.6869   27.1182 C   0  0  0  0  0  0  0  0  0  0  0  0
    8.6878   -6.6715   27.7262 N   0  0  0  0  0  0  0  0  0  0  0  0
    6.9911   -8.2423   27.1808 C   0  0  0  0  0  0  0  0  0  0  0  0
    3.8436   -7.2758   16.0578 C   0  0  0  0  0  0  0  0  0  0  0  0
    3.1882   -9.7190   17.2566 C   0  0  0  0  0  0  0  0  0  0  0  0
    5.3488   -6.1737   26.5092 C   0  0  0  0  0  0  0  0  0  0  0  0
    7.4567   -6.9464   27.2858 C   0  0  0  0  0  0  0  0  0  0  0  0
    0.1921   -5.7592   27.1123 C   0  0  0  0  0  0  0  0  0  0  0  0
    3.5517   -7.7407   25.9711 C   0  0  0  0  0  0  0  0  0  0  0  0
  1  4  4  0
  1 22  4  0
  2 20  4  0
  2 27  4  0
  3 12  4  0
  3 23  4  0
  4 25  4  0
  4 28  1  0
  5  8  4  0
  5 17  4  0
  6  7  4  0
  6 16  4  0
  7 18  4  0
  8 27  4  0
  9 13  4  0
  9 23  4  0
 10 11  1  0
 11 14  2  0
 11 27  1  0
 12 19  1  0
 12 24  4  0
 13 24  4  0
 15 18  1  0
 16 25  4  0
 16 26  4  0
 17 20  4  0
 17 28  1  0
 18 21  4  0
 21 26  4  0
 22 26  4  0
M  END
$$$$

 Created by Python create_sdf_string function

 28 30  0  0  0  0  0  0  0  0999 V2000
    5.7174   -8.4529   26.7190 C   0  0  0  0  0  0  0  0  0  0  0  0
    0.3974   -7.0711   27.5149 C   0  0  0  0  0  0  0  0  0  0  0  0
    2.5338   -7.6891   16.0102 C   0  0  0  0  0  0  0  0  0  0  0  0
    4.8690   -7.4380   26.4151 C   0  0  0  0  0  0  0  0  0  0  0  0
    2.3021   -5.6726   26.0378 C   0  0  0  0  0  0  0  0  0  0  0  0
    7.0880   -4.6163   27.0010 C   0  0  0  0  0  0  0  0  0  0  0  0
    8.3117   -4.3698   27.4436 C   0  0  0  0  0  0  0  0  0  0  0  0
    1.1339   -5.0515   26.3541 C   0  0  0  0  0  0  0  0  0  0  0  0
    4.8080   -8.0362   16.7101 C   0  0  0  0  0  0  0  0  0  0  0  0
   -1.2173   -3.9294   26.9717 O   0  0  0  0  0  0  0  0  0  0  0  0
   -1.0025   -5.0942   27.4586 C   0  0  0  0  0  0  0  0  0  0  0  0
    2.2474   -8.9123   16.6273 C   0  0  0  0  0  0  0  0  0  0  0  0
    4.4957   -9.2636   17.3041 C   0  0  0  0  0  0  0  0  0  0  0  0
   -1.8070   -5.6086   28.1920 O   0  0  0  0  0  0  0  0  0  0  0  0
   10.4296   -5.1799   28.3140 C   0  0  0  0  0  0  0  0  0  0  0  0
    6.6017   -5.9004   26.9187 C   0  0  0  0  0  0  0  0  0  0  0  0
    2.4761   -6.9940   26.4111 N   0  0  0  0  0  0  0  0  0  0  0  0
    9.1353   -5.4053   27.8239 C   0  0  0  0  0  0  0  0  0  0  0  0
    0.9922   -9.3232   16.5995 O   0  0  0  0  0  0  0  0  0  0  0  0
    1.5232   -7.6869   27.1182 C   0  0  0  0  0  0  0  0  0  0  0  0
    8.6878   -6.6715   27.7262 N   0  0  0  0  0  0  0  0  0  0  0  0
    6.9911   -8.2423   27.1808 C   0  0  0  0  0  0  0  0  0  0  0  0
    3.8436   -7.2758   16.0578 C   0  0  0  0  0  0  0  0  0  0  0  0
    3.1882   -9.7190   17.2566 C   0  0  0  0  0  0  0  0  0  0  0  0
    5.3488   -6.1737   26.5092 C   0  0  0  0  0  0  0  0  0  0  0  0
    7.4567   -6.9464   27.2858 C   0  0  0  0  0  0  0  0  0  0  0  0
    0.1921   -5.7592   27.1123 C   0  0  0  0  0  0  0  0  0  0  0  0
    3.5517   -7.7407   25.9711 C   0  0  0  0  0  0  0  0  0  0  0  0
  1  4  4  0
  1 22  4  0
  2 20  4  0
  2 27  4  0
  3 12  4  0
  3 23  4  0
  4 25  4  0
  4 28  1  0
  5  8  4  0
  5 17  4  0
  6  7  4  0
  6 16  4  0
  7 18  4  0
  8 27  4  0
  9 13  4  0
  9 23  4  0
 10 11  1  0
 11 14  2  0
 11 27  1  0
 12 19  1  0
 12 24  4  0
 13 24  4  0
 15 18  1  0
 16 25  4  0
 16 26  4  0
 17 20  4  0
 17 28  1  0
 18 21  4  0
 21 26  4  0
 22 26  4  0
M  END
$$$$

 Created by Python create_sdf_string function

 28 30  0  0  0  0  0  0  0  0999 V2000
    5.7174   -8.4529   26.7190 C   0  0  0  0  0  0  0  0  0  0  0  0
    0.3974   -7.0711   27.5149 C   0  0  0  0  0  0  0  0  0  0  0  0
    2.5338   -7.6891   16.0102 C   0  0  0  0  0  0  0  0  0  0  0  0
    4.8690   -7.4380   26.4151 C   0  0  0  0  0  0  0  0  0  0  0  0
    2.3021   -5.6726   26.0378 C   0  0  0  0  0  0  0  0  0  0  0  0
    7.0880   -4.6163   27.0010 C   0  0  0  0  0  0  0  0  0  0  0  0
    8.3117   -4.3698   27.4436 C   0  0  0  0  0  0  0  0  0  0  0  0
    1.1339   -5.0515   26.3541 C   0  0  0  0  0  0  0  0  0  0  0  0
    4.8080   -8.0362   16.7101 C   0  0  0  0  0  0  0  0  0  0  0  0
   -1.2173   -3.9294   26.9717 O   0  0  0  0  0  0  0  0  0  0  0  0
   -1.0025   -5.0942   27.4586 C   0  0  0  0  0  0  0  0  0  0  0  0
    2.2474   -8.9123   16.6273 C   0  0  0  0  0  0  0  0  0  0  0  0
    4.4957   -9.2636   17.3041 C   0  0  0  0  0  0  0  0  0  0  0  0
   -1.8070   -5.6086   28.1920 O   0  0  0  0  0  0  0  0  0  0  0  0
   10.4296   -5.1799   28.3140 C   0  0  0  0  0  0  0  0  0  0  0  0
    6.6017   -5.9004   26.9187 C   0  0  0  0  0  0  0  0  0  0  0  0
    2.4761   -6.9940   26.4111 N   0  0  0  0  0  0  0  0  0  0  0  0
    9.1353   -5.4053   27.8239 C   0  0  0  0  0  0  0  0  0  0  0  0
    0.9922   -9.3232   16.5995 O   0  0  0  0  0  0  0  0  0  0  0  0
    1.5232   -7.6869   27.1182 C   0  0  0  0  0  0  0  0  0  0  0  0
    8.6878   -6.6715   27.7262 N   0  0  0  0  0  0  0  0  0  0  0  0
    6.9911   -8.2423   27.1808 C   0  0  0  0  0  0  0  0  0  0  0  0
    3.8436   -7.2758   16.0578 C   0  0  0  0  0  0  0  0  0  0  0  0
    3.1882   -9.7190   17.2566 C   0  0  0  0  0  0  0  0  0  0  0  0
    5.3488   -6.1737   26.5092 C   0  0  0  0  0  0  0  0  0  0  0  0
    7.4567   -6.9464   27.2858 C   0  0  0  0  0  0  0  0  0  0  0  0
    0.1921   -5.7592   27.1123 C   0  0  0  0  0  0  0  0  0  0  0  0
    3.5517   -7.7407   25.9711 C   0  0  0  0  0  0  0  0  0  0  0  0
  1  4  4  0
  1 22  4  0
  2 20  4  0
  2 27  4  0
  3 12  4  0
  3 23  4  0
  4 25  4  0
  4 28  1  0
  5  8  4  0
  5 17  4  0
  6  7  4  0
  6 16  4  0
  7 18  4  0
  8 27  4  0
  9 13  4  0
  9 23  4  0
 10 11  1  0
 11 14  2  0
 11 27  1  0
 12 19  1  0
 12 24  4  0
 13 24  4  0
 15 18  1  0
 16 25  4  0
 16 26  4  0
 17 20  4  0
 17 28  1  0
 18 21  4  0
 21 26  4  0
 22 26  4  0
M  END
$$$$

 Created by Python create_sdf_string function

 28 30  0  0  0  0  0  0  0  0999 V2000
    5.7174   -8.4529   26.7190 C   0  0  0  0  0  0  0  0  0  0  0  0
    0.3974   -7.0711   27.5149 C   0  0  0  0  0  0  0  0  0  0  0  0
    2.5338   -7.6891   16.0102 C   0  0  0  0  0  0  0  0  0  0  0  0
    4.8690   -7.4380   26.4151 C   0  0  0  0  0  0  0  0  0  0  0  0
    2.3021   -5.6726   26.0378 C   0  0  0  0  0  0  0  0  0  0  0  0
    7.0880   -4.6163   27.0010 C   0  0  0  0  0  0  0  0  0  0  0  0
    8.3117   -4.3698   27.4436 C   0  0  0  0  0  0  0  0  0  0  0  0
    1.1339   -5.0515   26.3541 C   0  0  0  0  0  0  0  0  0  0  0  0
    4.8080   -8.0362   16.7101 C   0  0  0  0  0  0  0  0  0  0  0  0
   -1.2173   -3.9294   26.9717 O   0  0  0  0  0  0  0  0  0  0  0  0
   -1.0025   -5.0942   27.4586 C   0  0  0  0  0  0  0  0  0  0  0  0
    2.2474   -8.9123   16.6273 C   0  0  0  0  0  0  0  0  0  0  0  0
    4.4957   -9.2636   17.3041 C   0  0  0  0  0  0  0  0  0  0  0  0
   -1.8070   -5.6086   28.1920 O   0  0  0  0  0  0  0  0  0  0  0  0
   10.4296   -5.1799   28.3140 C   0  0  0  0  0  0  0  0  0  0  0  0
    6.6017   -5.9004   26.9187 C   0  0  0  0  0  0  0  0  0  0  0  0
    2.4761   -6.9940   26.4111 N   0  0  0  0  0  0  0  0  0  0  0  0
    9.1353   -5.4053   27.8239 C   0  0  0  0  0  0  0  0  0  0  0  0
    0.9922   -9.3232   16.5995 O   0  0  0  0  0  0  0  0  0  0  0  0
    1.5232   -7.6869   27.1182 C   0  0  0  0  0  0  0  0  0  0  0  0
    8.6878   -6.6715   27.7262 N   0  0  0  0  0  0  0  0  0  0  0  0
    6.9911   -8.2423   27.1808 C   0  0  0  0  0  0  0  0  0  0  0  0
    3.8436   -7.2758   16.0578 C   0  0  0  0  0  0  0  0  0  0  0  0
    3.1882   -9.7190   17.2566 C   0  0  0  0  0  0  0  0  0  0  0  0
    5.3488   -6.1737   26.5092 C   0  0  0  0  0  0  0  0  0  0  0  0
    7.4567   -6.9464   27.2858 C   0  0  0  0  0  0  0  0  0  0  0  0
    0.1921   -5.7592   27.1123 C   0  0  0  0  0  0  0  0  0  0  0  0
    3.5517   -7.7407   25.9711 C   0  0  0  0  0  0  0  0  0  0  0  0
  1  4  4  0
  1 22  4  0
  2 20  4  0
  2 27  4  0
  3 12  4  0
  3 23  4  0
  4 25  4  0
  4 28  1  0
  5  8  4  0
  5 17  4  0
  6  7  4  0
  6 16  4  0
  7 18  4  0
  8 27  4  0
  9 13  4  0
  9 23  4  0
 10 11  1  0
 11 14  2  0
 11 27  1  0
 12 19  1  0
 12 24  4  0
 13 24  4  0
 15 18  1  0
 16 25  4  0
 16 26  4  0
 17 20  4  0
 17 28  1  0
 18 21  4  0
 21 26  4  0
 22 26  4  0
M  END
$$$$

 Created by Python create_sdf_string function

 28 30  0  0  0  0  0  0  0  0999 V2000
    5.7174   -8.4529   26.7190 C   0  0  0  0  0  0  0  0  0  0  0  0
    0.3974   -7.0711   27.5149 C   0  0  0  0  0  0  0  0  0  0  0  0
    2.5338   -7.6891   16.0102 C   0  0  0  0  0  0  0  0  0  0  0  0
    4.8690   -7.4380   26.4151 C   0  0  0  0  0  0  0  0  0  0  0  0
    2.3021   -5.6726   26.0378 C   0  0  0  0  0  0  0  0  0  0  0  0
    7.0880   -4.6163   27.0010 C   0  0  0  0  0  0  0  0  0  0  0  0
    8.3117   -4.3698   27.4436 C   0  0  0  0  0  0  0  0  0  0  0  0
    1.1339   -5.0515   26.3541 C   0  0  0  0  0  0  0  0  0  0  0  0
    4.8080   -8.0362   16.7101 C   0  0  0  0  0  0  0  0  0  0  0  0
   -1.2173   -3.9294   26.9717 O   0  0  0  0  0  0  0  0  0  0  0  0
   -1.0025   -5.0942   27.4586 C   0  0  0  0  0  0  0  0  0  0  0  0
    2.2474   -8.9123   16.6273 C   0  0  0  0  0  0  0  0  0  0  0  0
    4.4957   -9.2636   17.3041 C   0  0  0  0  0  0  0  0  0  0  0  0
   -1.8070   -5.6086   28.1920 O   0  0  0  0  0  0  0  0  0  0  0  0
   10.4296   -5.1799   28.3140 C   0  0  0  0  0  0  0  0  0  0  0  0
    6.6017   -5.9004   26.9187 C   0  0  0  0  0  0  0  0  0  0  0  0
    2.4761   -6.9940   26.4111 N   0  0  0  0  0  0  0  0  0  0  0  0
    9.1353   -5.4053   27.8239 C   0  0  0  0  0  0  0  0  0  0  0  0
    0.9922   -9.3232   16.5995 O   0  0  0  0  0  0  0  0  0  0  0  0
    1.5232   -7.6869   27.1182 C   0  0  0  0  0  0  0  0  0  0  0  0
    8.6878   -6.6715   27.7262 N   0  0  0  0  0  0  0  0  0  0  0  0
    6.9911   -8.2423   27.1808 C   0  0  0  0  0  0  0  0  0  0  0  0
    3.8436   -7.2758   16.0578 C   0  0  0  0  0  0  0  0  0  0  0  0
    3.1882   -9.7190   17.2566 C   0  0  0  0  0  0  0  0  0  0  0  0
    5.3488   -6.1737   26.5092 C   0  0  0  0  0  0  0  0  0  0  0  0
    7.4567   -6.9464   27.2858 C   0  0  0  0  0  0  0  0  0  0  0  0
    0.1921   -5.7592   27.1123 C   0  0  0  0  0  0  0  0  0  0  0  0
    3.5517   -7.7407   25.9711 C   0  0  0  0  0  0  0  0  0  0  0  0
  1  4  4  0
  1 22  4  0
  2 20  4  0
  2 27  4  0
  3 12  4  0
  3 23  4  0
  4 25  4  0
  4 28  1  0
  5  8  4  0
  5 17  4  0
  6  7  4  0
  6 16  4  0
  7 18  4  0
  8 27  4  0
  9 13  4  0
  9 23  4  0
 10 11  1  0
 11 14  2  0
 11 27  1  0
 12 19  1  0
 12 24  4  0
 13 24  4  0
 15 18  1  0
 16 25  4  0
 16 26  4  0
 17 20  4  0
 17 28  1  0
 18 21  4  0
 21 26  4  0
 22 26  4  0
M  END
$$$$

 Created by Python create_sdf_string function

 28 30  0  0  0  0  0  0  0  0999 V2000
    5.7174   -8.4529   26.7190 C   0  0  0  0  0  0  0  0  0  0  0  0
    0.3974   -7.0711   27.5149 C   0  0  0  0  0  0  0  0  0  0  0  0
    2.5338   -7.6891   16.0102 C   0  0  0  0  0  0  0  0  0  0  0  0
    4.8690   -7.4380   26.4151 C   0  0  0  0  0  0  0  0  0  0  0  0
    2.3021   -5.6726   26.0378 C   0  0  0  0  0  0  0  0  0  0  0  0
    7.0880   -4.6163   27.0010 C   0  0  0  0  0  0  0  0  0  0  0  0
    8.3117   -4.3698   27.4436 C   0  0  0  0  0  0  0  0  0  0  0  0
    1.1339   -5.0515   26.3541 C   0  0  0  0  0  0  0  0  0  0  0  0
    4.8080   -8.0362   16.7101 C   0  0  0  0  0  0  0  0  0  0  0  0
   -1.2173   -3.9294   26.9717 O   0  0  0  0  0  0  0  0  0  0  0  0
   -1.0025   -5.0942   27.4586 C   0  0  0  0  0  0  0  0  0  0  0  0
    2.2474   -8.9123   16.6273 C   0  0  0  0  0  0  0  0  0  0  0  0
    4.4957   -9.2636   17.3041 C   0  0  0  0  0  0  0  0  0  0  0  0
   -1.8070   -5.6086   28.1920 O   0  0  0  0  0  0  0  0  0  0  0  0
   10.4296   -5.1799   28.3140 C   0  0  0  0  0  0  0  0  0  0  0  0
    6.6017   -5.9004   26.9187 C   0  0  0  0  0  0  0  0  0  0  0  0
    2.4761   -6.9940   26.4111 N   0  0  0  0  0  0  0  0  0  0  0  0
    9.1353   -5.4053   27.8239 C   0  0  0  0  0  0  0  0  0  0  0  0
    0.9922   -9.3232   16.5995 O   0  0  0  0  0  0  0  0  0  0  0  0
    1.5232   -7.6869   27.1182 C   0  0  0  0  0  0  0  0  0  0  0  0
    8.6878   -6.6715   27.7262 N   0  0  0  0  0  0  0  0  0  0  0  0
    6.9911   -8.2423   27.1808 C   0  0  0  0  0  0  0  0  0  0  0  0
    3.8436   -7.2758   16.0578 C   0  0  0  0  0  0  0  0  0  0  0  0
    3.1882   -9.7190   17.2566 C   0  0  0  0  0  0  0  0  0  0  0  0
    5.3488   -6.1737   26.5092 C   0  0  0  0  0  0  0  0  0  0  0  0
    7.4567   -6.9464   27.2858 C   0  0  0  0  0  0  0  0  0  0  0  0
    0.1921   -5.7592   27.1123 C   0  0  0  0  0  0  0  0  0  0  0  0
    3.5517   -7.7407   25.9711 C   0  0  0  0  0  0  0  0  0  0  0  0
  1  4  4  0
  1 22  4  0
  2 20  4  0
  2 27  4  0
  3 12  4  0
  3 23  4  0
  4 25  4  0
  4 28  1  0
  5  8  4  0
  5 17  4  0
  6  7  4  0
  6 16  4  0
  7 18  4  0
  8 27  4  0
  9 13  4  0
  9 23  4  0
 10 11  1  0
 11 14  2  0
 11 27  1  0
 12 19  1  0
 12 24  4  0
 13 24  4  0
 15 18  1  0
 16 25  4  0
 16 26  4  0
 17 20  4  0
 17 28  1  0
 18 21  4  0
 21 26  4  0
 22 26  4  0
M  END
$$$$

 Created by Python create_sdf_string function

 28 30  0  0  0  0  0  0  0  0999 V2000
    5.7174   -8.4529   26.7190 C   0  0  0  0  0  0  0  0  0  0  0  0
    0.3974   -7.0711   27.5149 C   0  0  0  0  0  0  0  0  0  0  0  0
    2.5338   -7.6891   16.0102 C   0  0  0  0  0  0  0  0  0  0  0  0
    4.8690   -7.4380   26.4151 C   0  0  0  0  0  0  0  0  0  0  0  0
    2.3021   -5.6726   26.0378 C   0  0  0  0  0  0  0  0  0  0  0  0
    7.0880   -4.6163   27.0010 C   0  0  0  0  0  0  0  0  0  0  0  0
    8.3117   -4.3698   27.4436 C   0  0  0  0  0  0  0  0  0  0  0  0
    1.1339   -5.0515   26.3541 C   0  0  0  0  0  0  0  0  0  0  0  0
    4.8080   -8.0362   16.7101 C   0  0  0  0  0  0  0  0  0  0  0  0
   -1.2173   -3.9294   26.9717 O   0  0  0  0  0  0  0  0  0  0  0  0
   -1.0025   -5.0942   27.4586 C   0  0  0  0  0  0  0  0  0  0  0  0
    2.2474   -8.9123   16.6273 C   0  0  0  0  0  0  0  0  0  0  0  0
    4.4957   -9.2636   17.3041 C   0  0  0  0  0  0  0  0  0  0  0  0
   -1.8070   -5.6086   28.1920 O   0  0  0  0  0  0  0  0  0  0  0  0
   10.4296   -5.1799   28.3140 C   0  0  0  0  0  0  0  0  0  0  0  0
    6.6017   -5.9004   26.9187 C   0  0  0  0  0  0  0  0  0  0  0  0
    2.4761   -6.9940   26.4111 N   0  0  0  0  0  0  0  0  0  0  0  0
    9.1353   -5.4053   27.8239 C   0  0  0  0  0  0  0  0  0  0  0  0
    0.9922   -9.3232   16.5995 O   0  0  0  0  0  0  0  0  0  0  0  0
    1.5232   -7.6869   27.1182 C   0  0  0  0  0  0  0  0  0  0  0  0
    8.6878   -6.6715   27.7262 N   0  0  0  0  0  0  0  0  0  0  0  0
    6.9911   -8.2423   27.1808 C   0  0  0  0  0  0  0  0  0  0  0  0
    3.8436   -7.2758   16.0578 C   0  0  0  0  0  0  0  0  0  0  0  0
    3.1882   -9.7190   17.2566 C   0  0  0  0  0  0  0  0  0  0  0  0
    5.3488   -6.1737   26.5092 C   0  0  0  0  0  0  0  0  0  0  0  0
    7.4567   -6.9464   27.2858 C   0  0  0  0  0  0  0  0  0  0  0  0
    0.1921   -5.7592   27.1123 C   0  0  0  0  0  0  0  0  0  0  0  0
    3.5517   -7.7407   25.9711 C   0  0  0  0  0  0  0  0  0  0  0  0
  1  4  4  0
  1 22  4  0
  2 20  4  0
  2 27  4  0
  3 12  4  0
  3 23  4  0
  4 25  4  0
  4 28  1  0
  5  8  4  0
  5 17  4  0
  6  7  4  0
  6 16  4  0
  7 18  4  0
  8 27  4  0
  9 13  4  0
  9 23  4  0
 10 11  1  0
 11 14  2  0
 11 27  1  0
 12 19  1  0
 12 24  4  0
 13 24  4  0
 15 18  1  0
 16 25  4  0
 16 26  4  0
 17 20  4  0
 17 28  1  0
 18 21  4  0
 21 26  4  0
 22 26  4  0
M  END
$$$$

 Created by Python create_sdf_string function

 28 30  0  0  0  0  0  0  0  0999 V2000
    5.7174   -8.4529   26.7190 C   0  0  0  0  0  0  0  0  0  0  0  0
    0.3974   -7.0711   27.5149 C   0  0  0  0  0  0  0  0  0  0  0  0
    2.5338   -7.6891   16.0102 C   0  0  0  0  0  0  0  0  0  0  0  0
    4.8690   -7.4380   26.4151 C   0  0  0  0  0  0  0  0  0  0  0  0
    2.3021   -5.6726   26.0378 C   0  0  0  0  0  0  0  0  0  0  0  0
    7.0880   -4.6163   27.0010 C   0  0  0  0  0  0  0  0  0  0  0  0
    8.3117   -4.3698   27.4436 C   0  0  0  0  0  0  0  0  0  0  0  0
    1.1339   -5.0515   26.3541 C   0  0  0  0  0  0  0  0  0  0  0  0
    4.8080   -8.0362   16.7101 C   0  0  0  0  0  0  0  0  0  0  0  0
   -1.2173   -3.9294   26.9717 O   0  0  0  0  0  0  0  0  0  0  0  0
   -1.0025   -5.0942   27.4586 C   0  0  0  0  0  0  0  0  0  0  0  0
    2.2474   -8.9123   16.6273 C   0  0  0  0  0  0  0  0  0  0  0  0
    4.4957   -9.2636   17.3041 C   0  0  0  0  0  0  0  0  0  0  0  0
   -1.8070   -5.6086   28.1920 O   0  0  0  0  0  0  0  0  0  0  0  0
   10.4296   -5.1799   28.3140 C   0  0  0  0  0  0  0  0  0  0  0  0
    6.6017   -5.9004   26.9187 C   0  0  0  0  0  0  0  0  0  0  0  0
    2.4761   -6.9940   26.4111 N   0  0  0  0  0  0  0  0  0  0  0  0
    9.1353   -5.4053   27.8239 C   0  0  0  0  0  0  0  0  0  0  0  0
    0.9922   -9.3232   16.5995 O   0  0  0  0  0  0  0  0  0  0  0  0
    1.5232   -7.6869   27.1182 C   0  0  0  0  0  0  0  0  0  0  0  0
    8.6878   -6.6715   27.7262 N   0  0  0  0  0  0  0  0  0  0  0  0
    6.9911   -8.2423   27.1808 C   0  0  0  0  0  0  0  0  0  0  0  0
    3.8436   -7.2758   16.0578 C   0  0  0  0  0  0  0  0  0  0  0  0
    3.1882   -9.7190   17.2566 C   0  0  0  0  0  0  0  0  0  0  0  0
    5.3488   -6.1737   26.5092 C   0  0  0  0  0  0  0  0  0  0  0  0
    7.4567   -6.9464   27.2858 C   0  0  0  0  0  0  0  0  0  0  0  0
    0.1921   -5.7592   27.1123 C   0  0  0  0  0  0  0  0  0  0  0  0
    3.5517   -7.7407   25.9711 C   0  0  0  0  0  0  0  0  0  0  0  0
  1  4  4  0
  1 22  4  0
  2 20  4  0
  2 27  4  0
  3 12  4  0
  3 23  4  0
  4 25  4  0
  4 28  1  0
  5  8  4  0
  5 17  4  0
  6  7  4  0
  6 16  4  0
  7 18  4  0
  8 27  4  0
  9 13  4  0
  9 23  4  0
 10 11  1  0
 11 14  2  0
 11 27  1  0
 12 19  1  0
 12 24  4  0
 13 24  4  0
 15 18  1  0
 16 25  4  0
 16 26  4  0
 17 20  4  0
 17 28  1  0
 18 21  4  0
 21 26  4  0
 22 26  4  0
M  END
$$$$

 Created by Python create_sdf_string function

 28 30  0  0  0  0  0  0  0  0999 V2000
    5.7174   -8.4529   26.7190 C   0  0  0  0  0  0  0  0  0  0  0  0
    0.3974   -7.0711   27.5149 C   0  0  0  0  0  0  0  0  0  0  0  0
    2.5338   -7.6891   16.0102 C   0  0  0  0  0  0  0  0  0  0  0  0
    4.8690   -7.4380   26.4151 C   0  0  0  0  0  0  0  0  0  0  0  0
    2.3021   -5.6726   26.0378 C   0  0  0  0  0  0  0  0  0  0  0  0
    7.0880   -4.6163   27.0010 C   0  0  0  0  0  0  0  0  0  0  0  0
    8.3117   -4.3698   27.4436 C   0  0  0  0  0  0  0  0  0  0  0  0
    1.1339   -5.0515   26.3541 C   0  0  0  0  0  0  0  0  0  0  0  0
    4.8080   -8.0362   16.7101 C   0  0  0  0  0  0  0  0  0  0  0  0
   -1.2173   -3.9294   26.9717 O   0  0  0  0  0  0  0  0  0  0  0  0
   -1.0025   -5.0942   27.4586 C   0  0  0  0  0  0  0  0  0  0  0  0
    2.2474   -8.9123   16.6273 C   0  0  0  0  0  0  0  0  0  0  0  0
    4.4957   -9.2636   17.3041 C   0  0  0  0  0  0  0  0  0  0  0  0
   -1.8070   -5.6086   28.1920 O   0  0  0  0  0  0  0  0  0  0  0  0
   10.4296   -5.1799   28.3140 C   0  0  0  0  0  0  0  0  0  0  0  0
    6.6017   -5.9004   26.9187 C   0  0  0  0  0  0  0  0  0  0  0  0
    2.4761   -6.9940   26.4111 N   0  0  0  0  0  0  0  0  0  0  0  0
    9.1353   -5.4053   27.8239 C   0  0  0  0  0  0  0  0  0  0  0  0
    0.9922   -9.3232   16.5995 O   0  0  0  0  0  0  0  0  0  0  0  0
    1.5232   -7.6869   27.1182 C   0  0  0  0  0  0  0  0  0  0  0  0
    8.6878   -6.6715   27.7262 N   0  0  0  0  0  0  0  0  0  0  0  0
    6.9911   -8.2423   27.1808 C   0  0  0  0  0  0  0  0  0  0  0  0
    3.8436   -7.2758   16.0578 C   0  0  0  0  0  0  0  0  0  0  0  0
    3.1882   -9.7190   17.2566 C   0  0  0  0  0  0  0  0  0  0  0  0
    5.3488   -6.1737   26.5092 C   0  0  0  0  0  0  0  0  0  0  0  0
    7.4567   -6.9464   27.2858 C   0  0  0  0  0  0  0  0  0  0  0  0
    0.1921   -5.7592   27.1123 C   0  0  0  0  0  0  0  0  0  0  0  0
    3.5517   -7.7407   25.9711 C   0  0  0  0  0  0  0  0  0  0  0  0
  1  4  4  0
  1 22  4  0
  2 20  4  0
  2 27  4  0
  3 12  4  0
  3 23  4  0
  4 25  4  0
  4 28  1  0
  5  8  4  0
  5 17  4  0
  6  7  4  0
  6 16  4  0
  7 18  4  0
  8 27  4  0
  9 13  4  0
  9 23  4  0
 10 11  1  0
 11 14  2  0
 11 27  1  0
 12 19  1  0
 12 24  4  0
 13 24  4  0
 15 18  1  0
 16 25  4  0
 16 26  4  0
 17 20  4  0
 17 28  1  0
 18 21  4  0
 21 26  4  0
 22 26  4  0
M  END
$$$$

 Created by Python create_sdf_string function

 28 30  0  0  0  0  0  0  0  0999 V2000
    5.7174   -8.4529   26.7190 C   0  0  0  0  0  0  0  0  0  0  0  0
    0.3974   -7.0711   27.5149 C   0  0  0  0  0  0  0  0  0  0  0  0
    2.5338   -7.6891   16.0102 C   0  0  0  0  0  0  0  0  0  0  0  0
    4.8690   -7.4380   26.4151 C   0  0  0  0  0  0  0  0  0  0  0  0
    2.3021   -5.6726   26.0378 C   0  0  0  0  0  0  0  0  0  0  0  0
    7.0880   -4.6163   27.0010 C   0  0  0  0  0  0  0  0  0  0  0  0
    8.3117   -4.3698   27.4436 C   0  0  0  0  0  0  0  0  0  0  0  0
    1.1339   -5.0515   26.3541 C   0  0  0  0  0  0  0  0  0  0  0  0
    4.8080   -8.0362   16.7101 C   0  0  0  0  0  0  0  0  0  0  0  0
   -1.2173   -3.9294   26.9717 O   0  0  0  0  0  0  0  0  0  0  0  0
   -1.0025   -5.0942   27.4586 C   0  0  0  0  0  0  0  0  0  0  0  0
    2.2474   -8.9123   16.6273 C   0  0  0  0  0  0  0  0  0  0  0  0
    4.4957   -9.2636   17.3041 C   0  0  0  0  0  0  0  0  0  0  0  0
   -1.8070   -5.6086   28.1920 O   0  0  0  0  0  0  0  0  0  0  0  0
   10.4296   -5.1799   28.3140 C   0  0  0  0  0  0  0  0  0  0  0  0
    6.6017   -5.9004   26.9187 C   0  0  0  0  0  0  0  0  0  0  0  0
    2.4761   -6.9940   26.4111 N   0  0  0  0  0  0  0  0  0  0  0  0
    9.1353   -5.4053   27.8239 C   0  0  0  0  0  0  0  0  0  0  0  0
    0.9922   -9.3232   16.5995 O   0  0  0  0  0  0  0  0  0  0  0  0
    1.5232   -7.6869   27.1182 C   0  0  0  0  0  0  0  0  0  0  0  0
    8.6878   -6.6715   27.7262 N   0  0  0  0  0  0  0  0  0  0  0  0
    6.9911   -8.2423   27.1808 C   0  0  0  0  0  0  0  0  0  0  0  0
    3.8436   -7.2758   16.0578 C   0  0  0  0  0  0  0  0  0  0  0  0
    3.1882   -9.7190   17.2566 C   0  0  0  0  0  0  0  0  0  0  0  0
    5.3488   -6.1737   26.5092 C   0  0  0  0  0  0  0  0  0  0  0  0
    7.4567   -6.9464   27.2858 C   0  0  0  0  0  0  0  0  0  0  0  0
    0.1921   -5.7592   27.1123 C   0  0  0  0  0  0  0  0  0  0  0  0
    3.5517   -7.7407   25.9711 C   0  0  0  0  0  0  0  0  0  0  0  0
  1  4  4  0
  1 22  4  0
  2 20  4  0
  2 27  4  0
  3 12  4  0
  3 23  4  0
  4 25  4  0
  4 28  1  0
  5  8  4  0
  5 17  4  0
  6  7  4  0
  6 16  4  0
  7 18  4  0
  8 27  4  0
  9 13  4  0
  9 23  4  0
 10 11  1  0
 11 14  2  0
 11 27  1  0
 12 19  1  0
 12 24  4  0
 13 24  4  0
 15 18  1  0
 16 25  4  0
 16 26  4  0
 17 20  4  0
 17 28  1  0
 18 21  4  0
 21 26  4  0
 22 26  4  0
M  END
$$$$

 Created by Python create_sdf_string function

 28 30  0  0  0  0  0  0  0  0999 V2000
    5.7174   -8.4529   26.7190 C   0  0  0  0  0  0  0  0  0  0  0  0
    0.3974   -7.0711   27.5149 C   0  0  0  0  0  0  0  0  0  0  0  0
    2.5338   -7.6891   16.0102 C   0  0  0  0  0  0  0  0  0  0  0  0
    4.8690   -7.4380   26.4151 C   0  0  0  0  0  0  0  0  0  0  0  0
    2.3021   -5.6726   26.0378 C   0  0  0  0  0  0  0  0  0  0  0  0
    7.0880   -4.6163   27.0010 C   0  0  0  0  0  0  0  0  0  0  0  0
    8.3117   -4.3698   27.4436 C   0  0  0  0  0  0  0  0  0  0  0  0
    1.1339   -5.0515   26.3541 C   0  0  0  0  0  0  0  0  0  0  0  0
    4.8080   -8.0362   16.7101 C   0  0  0  0  0  0  0  0  0  0  0  0
   -1.2173   -3.9294   26.9717 O   0  0  0  0  0  0  0  0  0  0  0  0
   -1.0025   -5.0942   27.4586 C   0  0  0  0  0  0  0  0  0  0  0  0
    2.2474   -8.9123   16.6273 C   0  0  0  0  0  0  0  0  0  0  0  0
    4.4957   -9.2636   17.3041 C   0  0  0  0  0  0  0  0  0  0  0  0
   -1.8070   -5.6086   28.1920 O   0  0  0  0  0  0  0  0  0  0  0  0
   10.4296   -5.1799   28.3140 C   0  0  0  0  0  0  0  0  0  0  0  0
    6.6017   -5.9004   26.9187 C   0  0  0  0  0  0  0  0  0  0  0  0
    2.4761   -6.9940   26.4111 N   0  0  0  0  0  0  0  0  0  0  0  0
    9.1353   -5.4053   27.8239 C   0  0  0  0  0  0  0  0  0  0  0  0
    0.9922   -9.3232   16.5995 O   0  0  0  0  0  0  0  0  0  0  0  0
    1.5232   -7.6869   27.1182 C   0  0  0  0  0  0  0  0  0  0  0  0
    8.6878   -6.6715   27.7262 N   0  0  0  0  0  0  0  0  0  0  0  0
    6.9911   -8.2423   27.1808 C   0  0  0  0  0  0  0  0  0  0  0  0
    3.8436   -7.2758   16.0578 C   0  0  0  0  0  0  0  0  0  0  0  0
    3.1882   -9.7190   17.2566 C   0  0  0  0  0  0  0  0  0  0  0  0
    5.3488   -6.1737   26.5092 C   0  0  0  0  0  0  0  0  0  0  0  0
    7.4567   -6.9464   27.2858 C   0  0  0  0  0  0  0  0  0  0  0  0
    0.1921   -5.7592   27.1123 C   0  0  0  0  0  0  0  0  0  0  0  0
    3.5517   -7.7407   25.9711 C   0  0  0  0  0  0  0  0  0  0  0  0
  1  4  4  0
  1 22  4  0
  2 20  4  0
  2 27  4  0
  3 12  4  0
  3 23  4  0
  4 25  4  0
  4 28  1  0
  5  8  4  0
  5 17  4  0
  6  7  4  0
  6 16  4  0
  7 18  4  0
  8 27  4  0
  9 13  4  0
  9 23  4  0
 10 11  1  0
 11 14  2  0
 11 27  1  0
 12 19  1  0
 12 24  4  0
 13 24  4  0
 15 18  1  0
 16 25  4  0
 16 26  4  0
 17 20  4  0
 17 28  1  0
 18 21  4  0
 21 26  4  0
 22 26  4  0
M  END
$$$$

 Created by Python create_sdf_string function

 28 30  0  0  0  0  0  0  0  0999 V2000
    5.7174   -8.4529   26.7190 C   0  0  0  0  0  0  0  0  0  0  0  0
    0.3974   -7.0711   27.5149 C   0  0  0  0  0  0  0  0  0  0  0  0
    2.5338   -7.6891   16.0102 C   0  0  0  0  0  0  0  0  0  0  0  0
    4.8690   -7.4380   26.4151 C   0  0  0  0  0  0  0  0  0  0  0  0
    2.3021   -5.6726   26.0378 C   0  0  0  0  0  0  0  0  0  0  0  0
    7.0880   -4.6163   27.0010 C   0  0  0  0  0  0  0  0  0  0  0  0
    8.3117   -4.3698   27.4436 C   0  0  0  0  0  0  0  0  0  0  0  0
    1.1339   -5.0515   26.3541 C   0  0  0  0  0  0  0  0  0  0  0  0
    4.8080   -8.0362   16.7101 C   0  0  0  0  0  0  0  0  0  0  0  0
   -1.2173   -3.9294   26.9717 O   0  0  0  0  0  0  0  0  0  0  0  0
   -1.0025   -5.0942   27.4586 C   0  0  0  0  0  0  0  0  0  0  0  0
    2.2474   -8.9123   16.6273 C   0  0  0  0  0  0  0  0  0  0  0  0
    4.4957   -9.2636   17.3041 C   0  0  0  0  0  0  0  0  0  0  0  0
   -1.8070   -5.6086   28.1920 O   0  0  0  0  0  0  0  0  0  0  0  0
   10.4296   -5.1799   28.3140 C   0  0  0  0  0  0  0  0  0  0  0  0
    6.6017   -5.9004   26.9187 C   0  0  0  0  0  0  0  0  0  0  0  0
    2.4761   -6.9940   26.4111 N   0  0  0  0  0  0  0  0  0  0  0  0
    9.1353   -5.4053   27.8239 C   0  0  0  0  0  0  0  0  0  0  0  0
    0.9922   -9.3232   16.5995 O   0  0  0  0  0  0  0  0  0  0  0  0
    1.5232   -7.6869   27.1182 C   0  0  0  0  0  0  0  0  0  0  0  0
    8.6878   -6.6715   27.7262 N   0  0  0  0  0  0  0  0  0  0  0  0
    6.9911   -8.2423   27.1808 C   0  0  0  0  0  0  0  0  0  0  0  0
    3.8436   -7.2758   16.0578 C   0  0  0  0  0  0  0  0  0  0  0  0
    3.1882   -9.7190   17.2566 C   0  0  0  0  0  0  0  0  0  0  0  0
    5.3488   -6.1737   26.5092 C   0  0  0  0  0  0  0  0  0  0  0  0
    7.4567   -6.9464   27.2858 C   0  0  0  0  0  0  0  0  0  0  0  0
    0.1921   -5.7592   27.1123 C   0  0  0  0  0  0  0  0  0  0  0  0
    3.5517   -7.7407   25.9711 C   0  0  0  0  0  0  0  0  0  0  0  0
  1  4  4  0
  1 22  4  0
  2 20  4  0
  2 27  4  0
  3 12  4  0
  3 23  4  0
  4 25  4  0
  4 28  1  0
  5  8  4  0
  5 17  4  0
  6  7  4  0
  6 16  4  0
  7 18  4  0
  8 27  4  0
  9 13  4  0
  9 23  4  0
 10 11  1  0
 11 14  2  0
 11 27  1  0
 12 19  1  0
 12 24  4  0
 13 24  4  0
 15 18  1  0
 16 25  4  0
 16 26  4  0
 17 20  4  0
 17 28  1  0
 18 21  4  0
 21 26  4  0
 22 26  4  0
M  END
$$$$

 Created by Python create_sdf_string function

 28 30  0  0  0  0  0  0  0  0999 V2000
    5.7174   -8.4529   26.7190 C   0  0  0  0  0  0  0  0  0  0  0  0
    0.3974   -7.0711   27.5149 C   0  0  0  0  0  0  0  0  0  0  0  0
    2.5338   -7.6891   16.0102 C   0  0  0  0  0  0  0  0  0  0  0  0
    4.8690   -7.4380   26.4151 C   0  0  0  0  0  0  0  0  0  0  0  0
    2.3021   -5.6726   26.0378 C   0  0  0  0  0  0  0  0  0  0  0  0
    7.0880   -4.6163   27.0010 C   0  0  0  0  0  0  0  0  0  0  0  0
    8.3117   -4.3698   27.4436 C   0  0  0  0  0  0  0  0  0  0  0  0
    1.1339   -5.0515   26.3541 C   0  0  0  0  0  0  0  0  0  0  0  0
    4.8080   -8.0362   16.7101 C   0  0  0  0  0  0  0  0  0  0  0  0
   -1.2173   -3.9294   26.9717 O   0  0  0  0  0  0  0  0  0  0  0  0
   -1.0025   -5.0942   27.4586 C   0  0  0  0  0  0  0  0  0  0  0  0
    2.2474   -8.9123   16.6273 C   0  0  0  0  0  0  0  0  0  0  0  0
    4.4957   -9.2636   17.3041 C   0  0  0  0  0  0  0  0  0  0  0  0
   -1.8070   -5.6086   28.1920 O   0  0  0  0  0  0  0  0  0  0  0  0
   10.4296   -5.1799   28.3140 C   0  0  0  0  0  0  0  0  0  0  0  0
    6.6017   -5.9004   26.9187 C   0  0  0  0  0  0  0  0  0  0  0  0
    2.4761   -6.9940   26.4111 N   0  0  0  0  0  0  0  0  0  0  0  0
    9.1353   -5.4053   27.8239 C   0  0  0  0  0  0  0  0  0  0  0  0
    0.9922   -9.3232   16.5995 O   0  0  0  0  0  0  0  0  0  0  0  0
    1.5232   -7.6869   27.1182 C   0  0  0  0  0  0  0  0  0  0  0  0
    8.6878   -6.6715   27.7262 N   0  0  0  0  0  0  0  0  0  0  0  0
    6.9911   -8.2423   27.1808 C   0  0  0  0  0  0  0  0  0  0  0  0
    3.8436   -7.2758   16.0578 C   0  0  0  0  0  0  0  0  0  0  0  0
    3.1882   -9.7190   17.2566 C   0  0  0  0  0  0  0  0  0  0  0  0
    5.3488   -6.1737   26.5092 C   0  0  0  0  0  0  0  0  0  0  0  0
    7.4567   -6.9464   27.2858 C   0  0  0  0  0  0  0  0  0  0  0  0
    0.1921   -5.7592   27.1123 C   0  0  0  0  0  0  0  0  0  0  0  0
    3.5517   -7.7407   25.9711 C   0  0  0  0  0  0  0  0  0  0  0  0
  1  4  4  0
  1 22  4  0
  2 20  4  0
  2 27  4  0
  3 12  4  0
  3 23  4  0
  4 25  4  0
  4 28  1  0
  5  8  4  0
  5 17  4  0
  6  7  4  0
  6 16  4  0
  7 18  4  0
  8 27  4  0
  9 13  4  0
  9 23  4  0
 10 11  1  0
 11 14  2  0
 11 27  1  0
 12 19  1  0
 12 24  4  0
 13 24  4  0
 15 18  1  0
 16 25  4  0
 16 26  4  0
 17 20  4  0
 17 28  1  0
 18 21  4  0
 21 26  4  0
 22 26  4  0
M  END
$$$$

 Created by Python create_sdf_string function

 28 30  0  0  0  0  0  0  0  0999 V2000
    5.7174   -8.4529   26.7190 C   0  0  0  0  0  0  0  0  0  0  0  0
    0.3974   -7.0711   27.5149 C   0  0  0  0  0  0  0  0  0  0  0  0
    2.5338   -7.6891   16.0102 C   0  0  0  0  0  0  0  0  0  0  0  0
    4.8690   -7.4380   26.4151 C   0  0  0  0  0  0  0  0  0  0  0  0
    2.3021   -5.6726   26.0378 C   0  0  0  0  0  0  0  0  0  0  0  0
    7.0880   -4.6163   27.0010 C   0  0  0  0  0  0  0  0  0  0  0  0
    8.3117   -4.3698   27.4436 C   0  0  0  0  0  0  0  0  0  0  0  0
    1.1339   -5.0515   26.3541 C   0  0  0  0  0  0  0  0  0  0  0  0
    4.8080   -8.0362   16.7101 C   0  0  0  0  0  0  0  0  0  0  0  0
   -1.2173   -3.9294   26.9717 O   0  0  0  0  0  0  0  0  0  0  0  0
   -1.0025   -5.0942   27.4586 C   0  0  0  0  0  0  0  0  0  0  0  0
    2.2474   -8.9123   16.6273 C   0  0  0  0  0  0  0  0  0  0  0  0
    4.4957   -9.2636   17.3041 C   0  0  0  0  0  0  0  0  0  0  0  0
   -1.8070   -5.6086   28.1920 O   0  0  0  0  0  0  0  0  0  0  0  0
   10.4296   -5.1799   28.3140 C   0  0  0  0  0  0  0  0  0  0  0  0
    6.6017   -5.9004   26.9187 C   0  0  0  0  0  0  0  0  0  0  0  0
    2.4761   -6.9940   26.4111 N   0  0  0  0  0  0  0  0  0  0  0  0
    9.1353   -5.4053   27.8239 C   0  0  0  0  0  0  0  0  0  0  0  0
    0.9922   -9.3232   16.5995 O   0  0  0  0  0  0  0  0  0  0  0  0
    1.5232   -7.6869   27.1182 C   0  0  0  0  0  0  0  0  0  0  0  0
    8.6878   -6.6715   27.7262 N   0  0  0  0  0  0  0  0  0  0  0  0
    6.9911   -8.2423   27.1808 C   0  0  0  0  0  0  0  0  0  0  0  0
    3.8436   -7.2758   16.0578 C   0  0  0  0  0  0  0  0  0  0  0  0
    3.1882   -9.7190   17.2566 C   0  0  0  0  0  0  0  0  0  0  0  0
    5.3488   -6.1737   26.5092 C   0  0  0  0  0  0  0  0  0  0  0  0
    7.4567   -6.9464   27.2858 C   0  0  0  0  0  0  0  0  0  0  0  0
    0.1921   -5.7592   27.1123 C   0  0  0  0  0  0  0  0  0  0  0  0
    3.5517   -7.7407   25.9711 C   0  0  0  0  0  0  0  0  0  0  0  0
  1  4  4  0
  1 22  4  0
  2 20  4  0
  2 27  4  0
  3 12  4  0
  3 23  4  0
  4 25  4  0
  4 28  1  0
  5  8  4  0
  5 17  4  0
  6  7  4  0
  6 16  4  0
  7 18  4  0
  8 27  4  0
  9 13  4  0
  9 23  4  0
 10 11  1  0
 11 14  2  0
 11 27  1  0
 12 19  1  0
 12 24  4  0
 13 24  4  0
 15 18  1  0
 16 25  4  0
 16 26  4  0
 17 20  4  0
 17 28  1  0
 18 21  4  0
 21 26  4  0
 22 26  4  0
M  END
$$$$

 Created by Python create_sdf_string function

 28 30  0  0  0  0  0  0  0  0999 V2000
    5.7174   -8.4529   26.7190 C   0  0  0  0  0  0  0  0  0  0  0  0
    0.3974   -7.0711   27.5149 C   0  0  0  0  0  0  0  0  0  0  0  0
    2.5338   -7.6891   16.0102 C   0  0  0  0  0  0  0  0  0  0  0  0
    4.8690   -7.4380   26.4151 C   0  0  0  0  0  0  0  0  0  0  0  0
    2.3021   -5.6726   26.0378 C   0  0  0  0  0  0  0  0  0  0  0  0
    7.0880   -4.6163   27.0010 C   0  0  0  0  0  0  0  0  0  0  0  0
    8.3117   -4.3698   27.4436 C   0  0  0  0  0  0  0  0  0  0  0  0
    1.1339   -5.0515   26.3541 C   0  0  0  0  0  0  0  0  0  0  0  0
    4.8080   -8.0362   16.7101 C   0  0  0  0  0  0  0  0  0  0  0  0
   -1.2173   -3.9294   26.9717 O   0  0  0  0  0  0  0  0  0  0  0  0
   -1.0025   -5.0942   27.4586 C   0  0  0  0  0  0  0  0  0  0  0  0
    2.2474   -8.9123   16.6273 C   0  0  0  0  0  0  0  0  0  0  0  0
    4.4957   -9.2636   17.3041 C   0  0  0  0  0  0  0  0  0  0  0  0
   -1.8070   -5.6086   28.1920 O   0  0  0  0  0  0  0  0  0  0  0  0
   10.4296   -5.1799   28.3140 C   0  0  0  0  0  0  0  0  0  0  0  0
    6.6017   -5.9004   26.9187 C   0  0  0  0  0  0  0  0  0  0  0  0
    2.4761   -6.9940   26.4111 N   0  0  0  0  0  0  0  0  0  0  0  0
    9.1353   -5.4053   27.8239 C   0  0  0  0  0  0  0  0  0  0  0  0
    0.9922   -9.3232   16.5995 O   0  0  0  0  0  0  0  0  0  0  0  0
    1.5232   -7.6869   27.1182 C   0  0  0  0  0  0  0  0  0  0  0  0
    8.6878   -6.6715   27.7262 N   0  0  0  0  0  0  0  0  0  0  0  0
    6.9911   -8.2423   27.1808 C   0  0  0  0  0  0  0  0  0  0  0  0
    3.8436   -7.2758   16.0578 C   0  0  0  0  0  0  0  0  0  0  0  0
    3.1882   -9.7190   17.2566 C   0  0  0  0  0  0  0  0  0  0  0  0
    5.3488   -6.1737   26.5092 C   0  0  0  0  0  0  0  0  0  0  0  0
    7.4567   -6.9464   27.2858 C   0  0  0  0  0  0  0  0  0  0  0  0
    0.1921   -5.7592   27.1123 C   0  0  0  0  0  0  0  0  0  0  0  0
    3.5517   -7.7407   25.9711 C   0  0  0  0  0  0  0  0  0  0  0  0
  1  4  4  0
  1 22  4  0
  2 20  4  0
  2 27  4  0
  3 12  4  0
  3 23  4  0
  4 25  4  0
  4 28  1  0
  5  8  4  0
  5 17  4  0
  6  7  4  0
  6 16  4  0
  7 18  4  0
  8 27  4  0
  9 13  4  0
  9 23  4  0
 10 11  1  0
 11 14  2  0
 11 27  1  0
 12 19  1  0
 12 24  4  0
 13 24  4  0
 15 18  1  0
 16 25  4  0
 16 26  4  0
 17 20  4  0
 17 28  1  0
 18 21  4  0
 21 26  4  0
 22 26  4  0
M  END
$$$$

 Created by Python create_sdf_string function

 28 30  0  0  0  0  0  0  0  0999 V2000
    5.7174   -8.4529   26.7190 C   0  0  0  0  0  0  0  0  0  0  0  0
    0.3974   -7.0711   27.5149 C   0  0  0  0  0  0  0  0  0  0  0  0
    2.5338   -7.6891   16.0102 C   0  0  0  0  0  0  0  0  0  0  0  0
    4.8690   -7.4380   26.4151 C   0  0  0  0  0  0  0  0  0  0  0  0
    2.3021   -5.6726   26.0378 C   0  0  0  0  0  0  0  0  0  0  0  0
    7.0880   -4.6163   27.0010 C   0  0  0  0  0  0  0  0  0  0  0  0
    8.3117   -4.3698   27.4436 C   0  0  0  0  0  0  0  0  0  0  0  0
    1.1339   -5.0515   26.3541 C   0  0  0  0  0  0  0  0  0  0  0  0
    4.8080   -8.0362   16.7101 C   0  0  0  0  0  0  0  0  0  0  0  0
   -1.2173   -3.9294   26.9717 O   0  0  0  0  0  0  0  0  0  0  0  0
   -1.0025   -5.0942   27.4586 C   0  0  0  0  0  0  0  0  0  0  0  0
    2.2474   -8.9123   16.6273 C   0  0  0  0  0  0  0  0  0  0  0  0
    4.4957   -9.2636   17.3041 C   0  0  0  0  0  0  0  0  0  0  0  0
   -1.8070   -5.6086   28.1920 O   0  0  0  0  0  0  0  0  0  0  0  0
   10.4296   -5.1799   28.3140 C   0  0  0  0  0  0  0  0  0  0  0  0
    6.6017   -5.9004   26.9187 C   0  0  0  0  0  0  0  0  0  0  0  0
    2.4761   -6.9940   26.4111 N   0  0  0  0  0  0  0  0  0  0  0  0
    9.1353   -5.4053   27.8239 C   0  0  0  0  0  0  0  0  0  0  0  0
    0.9922   -9.3232   16.5995 O   0  0  0  0  0  0  0  0  0  0  0  0
    1.5232   -7.6869   27.1182 C   0  0  0  0  0  0  0  0  0  0  0  0
    8.6878   -6.6715   27.7262 N   0  0  0  0  0  0  0  0  0  0  0  0
    6.9911   -8.2423   27.1808 C   0  0  0  0  0  0  0  0  0  0  0  0
    3.8436   -7.2758   16.0578 C   0  0  0  0  0  0  0  0  0  0  0  0
    3.1882   -9.7190   17.2566 C   0  0  0  0  0  0  0  0  0  0  0  0
    5.3488   -6.1737   26.5092 C   0  0  0  0  0  0  0  0  0  0  0  0
    7.4567   -6.9464   27.2858 C   0  0  0  0  0  0  0  0  0  0  0  0
    0.1921   -5.7592   27.1123 C   0  0  0  0  0  0  0  0  0  0  0  0
    3.5517   -7.7407   25.9711 C   0  0  0  0  0  0  0  0  0  0  0  0
  1  4  4  0
  1 22  4  0
  2 20  4  0
  2 27  4  0
  3 12  4  0
  3 23  4  0
  4 25  4  0
  4 28  1  0
  5  8  4  0
  5 17  4  0
  6  7  4  0
  6 16  4  0
  7 18  4  0
  8 27  4  0
  9 13  4  0
  9 23  4  0
 10 11  1  0
 11 14  2  0
 11 27  1  0
 12 19  1  0
 12 24  4  0
 13 24  4  0
 15 18  1  0
 16 25  4  0
 16 26  4  0
 17 20  4  0
 17 28  1  0
 18 21  4  0
 21 26  4  0
 22 26  4  0
M  END
$$$$

 Created by Python create_sdf_string function

 28 30  0  0  0  0  0  0  0  0999 V2000
    5.7174   -8.4529   26.7190 C   0  0  0  0  0  0  0  0  0  0  0  0
    0.3974   -7.0711   27.5149 C   0  0  0  0  0  0  0  0  0  0  0  0
    2.5338   -7.6891   16.0102 C   0  0  0  0  0  0  0  0  0  0  0  0
    4.8690   -7.4380   26.4151 C   0  0  0  0  0  0  0  0  0  0  0  0
    2.3021   -5.6726   26.0378 C   0  0  0  0  0  0  0  0  0  0  0  0
    7.0880   -4.6163   27.0010 C   0  0  0  0  0  0  0  0  0  0  0  0
    8.3117   -4.3698   27.4436 C   0  0  0  0  0  0  0  0  0  0  0  0
    1.1339   -5.0515   26.3541 C   0  0  0  0  0  0  0  0  0  0  0  0
    4.8080   -8.0362   16.7101 C   0  0  0  0  0  0  0  0  0  0  0  0
   -1.2173   -3.9294   26.9717 O   0  0  0  0  0  0  0  0  0  0  0  0
   -1.0025   -5.0942   27.4586 C   0  0  0  0  0  0  0  0  0  0  0  0
    2.2474   -8.9123   16.6273 C   0  0  0  0  0  0  0  0  0  0  0  0
    4.4957   -9.2636   17.3041 C   0  0  0  0  0  0  0  0  0  0  0  0
   -1.8070   -5.6086   28.1920 O   0  0  0  0  0  0  0  0  0  0  0  0
   10.4296   -5.1799   28.3140 C   0  0  0  0  0  0  0  0  0  0  0  0
    6.6017   -5.9004   26.9187 C   0  0  0  0  0  0  0  0  0  0  0  0
    2.4761   -6.9940   26.4111 N   0  0  0  0  0  0  0  0  0  0  0  0
    9.1353   -5.4053   27.8239 C   0  0  0  0  0  0  0  0  0  0  0  0
    0.9922   -9.3232   16.5995 O   0  0  0  0  0  0  0  0  0  0  0  0
    1.5232   -7.6869   27.1182 C   0  0  0  0  0  0  0  0  0  0  0  0
    8.6878   -6.6715   27.7262 N   0  0  0  0  0  0  0  0  0  0  0  0
    6.9911   -8.2423   27.1808 C   0  0  0  0  0  0  0  0  0  0  0  0
    3.8436   -7.2758   16.0578 C   0  0  0  0  0  0  0  0  0  0  0  0
    3.1882   -9.7190   17.2566 C   0  0  0  0  0  0  0  0  0  0  0  0
    5.3488   -6.1737   26.5092 C   0  0  0  0  0  0  0  0  0  0  0  0
    7.4567   -6.9464   27.2858 C   0  0  0  0  0  0  0  0  0  0  0  0
    0.1921   -5.7592   27.1123 C   0  0  0  0  0  0  0  0  0  0  0  0
    3.5517   -7.7407   25.9711 C   0  0  0  0  0  0  0  0  0  0  0  0
  1  4  4  0
  1 22  4  0
  2 20  4  0
  2 27  4  0
  3 12  4  0
  3 23  4  0
  4 25  4  0
  4 28  1  0
  5  8  4  0
  5 17  4  0
  6  7  4  0
  6 16  4  0
  7 18  4  0
  8 27  4  0
  9 13  4  0
  9 23  4  0
 10 11  1  0
 11 14  2  0
 11 27  1  0
 12 19  1  0
 12 24  4  0
 13 24  4  0
 15 18  1  0
 16 25  4  0
 16 26  4  0
 17 20  4  0
 17 28  1  0
 18 21  4  0
 21 26  4  0
 22 26  4  0
M  END
$$$$

 Created by Python create_sdf_string function

 28 30  0  0  0  0  0  0  0  0999 V2000
    5.7174   -8.4529   26.7190 C   0  0  0  0  0  0  0  0  0  0  0  0
    0.3974   -7.0711   27.5149 C   0  0  0  0  0  0  0  0  0  0  0  0
    2.5338   -7.6891   16.0102 C   0  0  0  0  0  0  0  0  0  0  0  0
    4.8690   -7.4380   26.4151 C   0  0  0  0  0  0  0  0  0  0  0  0
    2.3021   -5.6726   26.0378 C   0  0  0  0  0  0  0  0  0  0  0  0
    7.0880   -4.6163   27.0010 C   0  0  0  0  0  0  0  0  0  0  0  0
    8.3117   -4.3698   27.4436 C   0  0  0  0  0  0  0  0  0  0  0  0
    1.1339   -5.0515   26.3541 C   0  0  0  0  0  0  0  0  0  0  0  0
    4.8080   -8.0362   16.7101 C   0  0  0  0  0  0  0  0  0  0  0  0
   -1.2173   -3.9294   26.9717 O   0  0  0  0  0  0  0  0  0  0  0  0
   -1.0025   -5.0942   27.4586 C   0  0  0  0  0  0  0  0  0  0  0  0
    2.2474   -8.9123   16.6273 C   0  0  0  0  0  0  0  0  0  0  0  0
    4.4957   -9.2636   17.3041 C   0  0  0  0  0  0  0  0  0  0  0  0
   -1.8070   -5.6086   28.1920 O   0  0  0  0  0  0  0  0  0  0  0  0
   10.4296   -5.1799   28.3140 C   0  0  0  0  0  0  0  0  0  0  0  0
    6.6017   -5.9004   26.9187 C   0  0  0  0  0  0  0  0  0  0  0  0
    2.4761   -6.9940   26.4111 N   0  0  0  0  0  0  0  0  0  0  0  0
    9.1353   -5.4053   27.8239 C   0  0  0  0  0  0  0  0  0  0  0  0
    0.9922   -9.3232   16.5995 O   0  0  0  0  0  0  0  0  0  0  0  0
    1.5232   -7.6869   27.1182 C   0  0  0  0  0  0  0  0  0  0  0  0
    8.6878   -6.6715   27.7262 N   0  0  0  0  0  0  0  0  0  0  0  0
    6.9911   -8.2423   27.1808 C   0  0  0  0  0  0  0  0  0  0  0  0
    3.8436   -7.2758   16.0578 C   0  0  0  0  0  0  0  0  0  0  0  0
    3.1882   -9.7190   17.2566 C   0  0  0  0  0  0  0  0  0  0  0  0
    5.3488   -6.1737   26.5092 C   0  0  0  0  0  0  0  0  0  0  0  0
    7.4567   -6.9464   27.2858 C   0  0  0  0  0  0  0  0  0  0  0  0
    0.1921   -5.7592   27.1123 C   0  0  0  0  0  0  0  0  0  0  0  0
    3.5517   -7.7407   25.9711 C   0  0  0  0  0  0  0  0  0  0  0  0
  1  4  4  0
  1 22  4  0
  2 20  4  0
  2 27  4  0
  3 12  4  0
  3 23  4  0
  4 25  4  0
  4 28  1  0
  5  8  4  0
  5 17  4  0
  6  7  4  0
  6 16  4  0
  7 18  4  0
  8 27  4  0
  9 13  4  0
  9 23  4  0
 10 11  1  0
 11 14  2  0
 11 27  1  0
 12 19  1  0
 12 24  4  0
 13 24  4  0
 15 18  1  0
 16 25  4  0
 16 26  4  0
 17 20  4  0
 17 28  1  0
 18 21  4  0
 21 26  4  0
 22 26  4  0
M  END
$$$$

 Created by Python create_sdf_string function

 28 30  0  0  0  0  0  0  0  0999 V2000
    5.7174   -8.4529   26.7190 C   0  0  0  0  0  0  0  0  0  0  0  0
    0.3974   -7.0711   27.5149 C   0  0  0  0  0  0  0  0  0  0  0  0
    2.5338   -7.6891   16.0102 C   0  0  0  0  0  0  0  0  0  0  0  0
    4.8690   -7.4380   26.4151 C   0  0  0  0  0  0  0  0  0  0  0  0
    2.3021   -5.6726   26.0378 C   0  0  0  0  0  0  0  0  0  0  0  0
    7.0880   -4.6163   27.0010 C   0  0  0  0  0  0  0  0  0  0  0  0
    8.3117   -4.3698   27.4436 C   0  0  0  0  0  0  0  0  0  0  0  0
    1.1339   -5.0515   26.3541 C   0  0  0  0  0  0  0  0  0  0  0  0
    4.8080   -8.0362   16.7101 C   0  0  0  0  0  0  0  0  0  0  0  0
   -1.2173   -3.9294   26.9717 O   0  0  0  0  0  0  0  0  0  0  0  0
   -1.0025   -5.0942   27.4586 C   0  0  0  0  0  0  0  0  0  0  0  0
    2.2474   -8.9123   16.6273 C   0  0  0  0  0  0  0  0  0  0  0  0
    4.4957   -9.2636   17.3041 C   0  0  0  0  0  0  0  0  0  0  0  0
   -1.8070   -5.6086   28.1920 O   0  0  0  0  0  0  0  0  0  0  0  0
   10.4296   -5.1799   28.3140 C   0  0  0  0  0  0  0  0  0  0  0  0
    6.6017   -5.9004   26.9187 C   0  0  0  0  0  0  0  0  0  0  0  0
    2.4761   -6.9940   26.4111 N   0  0  0  0  0  0  0  0  0  0  0  0
    9.1353   -5.4053   27.8239 C   0  0  0  0  0  0  0  0  0  0  0  0
    0.9922   -9.3232   16.5995 O   0  0  0  0  0  0  0  0  0  0  0  0
    1.5232   -7.6869   27.1182 C   0  0  0  0  0  0  0  0  0  0  0  0
    8.6878   -6.6715   27.7262 N   0  0  0  0  0  0  0  0  0  0  0  0
    6.9911   -8.2423   27.1808 C   0  0  0  0  0  0  0  0  0  0  0  0
    3.8436   -7.2758   16.0578 C   0  0  0  0  0  0  0  0  0  0  0  0
    3.1882   -9.7190   17.2566 C   0  0  0  0  0  0  0  0  0  0  0  0
    5.3488   -6.1737   26.5092 C   0  0  0  0  0  0  0  0  0  0  0  0
    7.4567   -6.9464   27.2858 C   0  0  0  0  0  0  0  0  0  0  0  0
    0.1921   -5.7592   27.1123 C   0  0  0  0  0  0  0  0  0  0  0  0
    3.5517   -7.7407   25.9711 C   0  0  0  0  0  0  0  0  0  0  0  0
  1  4  4  0
  1 22  4  0
  2 20  4  0
  2 27  4  0
  3 12  4  0
  3 23  4  0
  4 25  4  0
  4 28  1  0
  5  8  4  0
  5 17  4  0
  6  7  4  0
  6 16  4  0
  7 18  4  0
  8 27  4  0
  9 13  4  0
  9 23  4  0
 10 11  1  0
 11 14  2  0
 11 27  1  0
 12 19  1  0
 12 24  4  0
 13 24  4  0
 15 18  1  0
 16 25  4  0
 16 26  4  0
 17 20  4  0
 17 28  1  0
 18 21  4  0
 21 26  4  0
 22 26  4  0
M  END
$$$$

 Created by Python create_sdf_string function

 28 30  0  0  0  0  0  0  0  0999 V2000
    5.7174   -8.4529   26.7190 C   0  0  0  0  0  0  0  0  0  0  0  0
    0.3974   -7.0711   27.5149 C   0  0  0  0  0  0  0  0  0  0  0  0
    2.5338   -7.6891   16.0102 C   0  0  0  0  0  0  0  0  0  0  0  0
    4.8690   -7.4380   26.4151 C   0  0  0  0  0  0  0  0  0  0  0  0
    2.3021   -5.6726   26.0378 C   0  0  0  0  0  0  0  0  0  0  0  0
    7.0880   -4.6163   27.0010 C   0  0  0  0  0  0  0  0  0  0  0  0
    8.3117   -4.3698   27.4436 C   0  0  0  0  0  0  0  0  0  0  0  0
    1.1339   -5.0515   26.3541 C   0  0  0  0  0  0  0  0  0  0  0  0
    4.8080   -8.0362   16.7101 C   0  0  0  0  0  0  0  0  0  0  0  0
   -1.2173   -3.9294   26.9717 O   0  0  0  0  0  0  0  0  0  0  0  0
   -1.0025   -5.0942   27.4586 C   0  0  0  0  0  0  0  0  0  0  0  0
    2.2474   -8.9123   16.6273 C   0  0  0  0  0  0  0  0  0  0  0  0
    4.4957   -9.2636   17.3041 C   0  0  0  0  0  0  0  0  0  0  0  0
   -1.8070   -5.6086   28.1920 O   0  0  0  0  0  0  0  0  0  0  0  0
   10.4296   -5.1799   28.3140 C   0  0  0  0  0  0  0  0  0  0  0  0
    6.6017   -5.9004   26.9187 C   0  0  0  0  0  0  0  0  0  0  0  0
    2.4761   -6.9940   26.4111 N   0  0  0  0  0  0  0  0  0  0  0  0
    9.1353   -5.4053   27.8239 C   0  0  0  0  0  0  0  0  0  0  0  0
    0.9922   -9.3232   16.5995 O   0  0  0  0  0  0  0  0  0  0  0  0
    1.5232   -7.6869   27.1182 C   0  0  0  0  0  0  0  0  0  0  0  0
    8.6878   -6.6715   27.7262 N   0  0  0  0  0  0  0  0  0  0  0  0
    6.9911   -8.2423   27.1808 C   0  0  0  0  0  0  0  0  0  0  0  0
    3.8436   -7.2758   16.0578 C   0  0  0  0  0  0  0  0  0  0  0  0
    3.1882   -9.7190   17.2566 C   0  0  0  0  0  0  0  0  0  0  0  0
    5.3488   -6.1737   26.5092 C   0  0  0  0  0  0  0  0  0  0  0  0
    7.4567   -6.9464   27.2858 C   0  0  0  0  0  0  0  0  0  0  0  0
    0.1921   -5.7592   27.1123 C   0  0  0  0  0  0  0  0  0  0  0  0
    3.5517   -7.7407   25.9711 C   0  0  0  0  0  0  0  0  0  0  0  0
  1  4  4  0
  1 22  4  0
  2 20  4  0
  2 27  4  0
  3 12  4  0
  3 23  4  0
  4 25  4  0
  4 28  1  0
  5  8  4  0
  5 17  4  0
  6  7  4  0
  6 16  4  0
  7 18  4  0
  8 27  4  0
  9 13  4  0
  9 23  4  0
 10 11  1  0
 11 14  2  0
 11 27  1  0
 12 19  1  0
 12 24  4  0
 13 24  4  0
 15 18  1  0
 16 25  4  0
 16 26  4  0
 17 20  4  0
 17 28  1  0
 18 21  4  0
 21 26  4  0
 22 26  4  0
M  END
$$$$

 Created by Python create_sdf_string function

 28 30  0  0  0  0  0  0  0  0999 V2000
    5.7174   -8.4529   26.7190 C   0  0  0  0  0  0  0  0  0  0  0  0
    0.3974   -7.0711   27.5149 C   0  0  0  0  0  0  0  0  0  0  0  0
    2.5338   -7.6891   16.0102 C   0  0  0  0  0  0  0  0  0  0  0  0
    4.8690   -7.4380   26.4151 C   0  0  0  0  0  0  0  0  0  0  0  0
    2.3021   -5.6726   26.0378 C   0  0  0  0  0  0  0  0  0  0  0  0
    7.0880   -4.6163   27.0010 C   0  0  0  0  0  0  0  0  0  0  0  0
    8.3117   -4.3698   27.4436 C   0  0  0  0  0  0  0  0  0  0  0  0
    1.1339   -5.0515   26.3541 C   0  0  0  0  0  0  0  0  0  0  0  0
    4.8080   -8.0362   16.7101 C   0  0  0  0  0  0  0  0  0  0  0  0
   -1.2173   -3.9294   26.9717 O   0  0  0  0  0  0  0  0  0  0  0  0
   -1.0025   -5.0942   27.4586 C   0  0  0  0  0  0  0  0  0  0  0  0
    2.2474   -8.9123   16.6273 C   0  0  0  0  0  0  0  0  0  0  0  0
    4.4957   -9.2636   17.3041 C   0  0  0  0  0  0  0  0  0  0  0  0
   -1.8070   -5.6086   28.1920 O   0  0  0  0  0  0  0  0  0  0  0  0
   10.4296   -5.1799   28.3140 C   0  0  0  0  0  0  0  0  0  0  0  0
    6.6017   -5.9004   26.9187 C   0  0  0  0  0  0  0  0  0  0  0  0
    2.4761   -6.9940   26.4111 N   0  0  0  0  0  0  0  0  0  0  0  0
    9.1353   -5.4053   27.8239 C   0  0  0  0  0  0  0  0  0  0  0  0
    0.9922   -9.3232   16.5995 O   0  0  0  0  0  0  0  0  0  0  0  0
    1.5232   -7.6869   27.1182 C   0  0  0  0  0  0  0  0  0  0  0  0
    8.6878   -6.6715   27.7262 N   0  0  0  0  0  0  0  0  0  0  0  0
    6.9911   -8.2423   27.1808 C   0  0  0  0  0  0  0  0  0  0  0  0
    3.8436   -7.2758   16.0578 C   0  0  0  0  0  0  0  0  0  0  0  0
    3.1882   -9.7190   17.2566 C   0  0  0  0  0  0  0  0  0  0  0  0
    5.3488   -6.1737   26.5092 C   0  0  0  0  0  0  0  0  0  0  0  0
    7.4567   -6.9464   27.2858 C   0  0  0  0  0  0  0  0  0  0  0  0
    0.1921   -5.7592   27.1123 C   0  0  0  0  0  0  0  0  0  0  0  0
    3.5517   -7.7407   25.9711 C   0  0  0  0  0  0  0  0  0  0  0  0
  1  4  4  0
  1 22  4  0
  2 20  4  0
  2 27  4  0
  3 12  4  0
  3 23  4  0
  4 25  4  0
  4 28  1  0
  5  8  4  0
  5 17  4  0
  6  7  4  0
  6 16  4  0
  7 18  4  0
  8 27  4  0
  9 13  4  0
  9 23  4  0
 10 11  1  0
 11 14  2  0
 11 27  1  0
 12 19  1  0
 12 24  4  0
 13 24  4  0
 15 18  1  0
 16 25  4  0
 16 26  4  0
 17 20  4  0
 17 28  1  0
 18 21  4  0
 21 26  4  0
 22 26  4  0
M  END
$$$$

 Created by Python create_sdf_string function

 28 30  0  0  0  0  0  0  0  0999 V2000
    5.7174   -8.4529   26.7190 C   0  0  0  0  0  0  0  0  0  0  0  0
    0.3974   -7.0711   27.5149 C   0  0  0  0  0  0  0  0  0  0  0  0
    2.5338   -7.6891   16.0102 C   0  0  0  0  0  0  0  0  0  0  0  0
    4.8690   -7.4380   26.4151 C   0  0  0  0  0  0  0  0  0  0  0  0
    2.3021   -5.6726   26.0378 C   0  0  0  0  0  0  0  0  0  0  0  0
    7.0880   -4.6163   27.0010 C   0  0  0  0  0  0  0  0  0  0  0  0
    8.3117   -4.3698   27.4436 C   0  0  0  0  0  0  0  0  0  0  0  0
    1.1339   -5.0515   26.3541 C   0  0  0  0  0  0  0  0  0  0  0  0
    4.8080   -8.0362   16.7101 C   0  0  0  0  0  0  0  0  0  0  0  0
   -1.2173   -3.9294   26.9717 O   0  0  0  0  0  0  0  0  0  0  0  0
   -1.0025   -5.0942   27.4586 C   0  0  0  0  0  0  0  0  0  0  0  0
    2.2474   -8.9123   16.6273 C   0  0  0  0  0  0  0  0  0  0  0  0
    4.4957   -9.2636   17.3041 C   0  0  0  0  0  0  0  0  0  0  0  0
   -1.8070   -5.6086   28.1920 O   0  0  0  0  0  0  0  0  0  0  0  0
   10.4296   -5.1799   28.3140 C   0  0  0  0  0  0  0  0  0  0  0  0
    6.6017   -5.9004   26.9187 C   0  0  0  0  0  0  0  0  0  0  0  0
    2.4761   -6.9940   26.4111 N   0  0  0  0  0  0  0  0  0  0  0  0
    9.1353   -5.4053   27.8239 C   0  0  0  0  0  0  0  0  0  0  0  0
    0.9922   -9.3232   16.5995 O   0  0  0  0  0  0  0  0  0  0  0  0
    1.5232   -7.6869   27.1182 C   0  0  0  0  0  0  0  0  0  0  0  0
    8.6878   -6.6715   27.7262 N   0  0  0  0  0  0  0  0  0  0  0  0
    6.9911   -8.2423   27.1808 C   0  0  0  0  0  0  0  0  0  0  0  0
    3.8436   -7.2758   16.0578 C   0  0  0  0  0  0  0  0  0  0  0  0
    3.1882   -9.7190   17.2566 C   0  0  0  0  0  0  0  0  0  0  0  0
    5.3488   -6.1737   26.5092 C   0  0  0  0  0  0  0  0  0  0  0  0
    7.4567   -6.9464   27.2858 C   0  0  0  0  0  0  0  0  0  0  0  0
    0.1921   -5.7592   27.1123 C   0  0  0  0  0  0  0  0  0  0  0  0
    3.5517   -7.7407   25.9711 C   0  0  0  0  0  0  0  0  0  0  0  0
  1  4  4  0
  1 22  4  0
  2 20  4  0
  2 27  4  0
  3 12  4  0
  3 23  4  0
  4 25  4  0
  4 28  1  0
  5  8  4  0
  5 17  4  0
  6  7  4  0
  6 16  4  0
  7 18  4  0
  8 27  4  0
  9 13  4  0
  9 23  4  0
 10 11  1  0
 11 14  2  0
 11 27  1  0
 12 19  1  0
 12 24  4  0
 13 24  4  0
 15 18  1  0
 16 25  4  0
 16 26  4  0
 17 20  4  0
 17 28  1  0
 18 21  4  0
 21 26  4  0
 22 26  4  0
M  END
$$$$

 Created by Python create_sdf_string function

 28 30  0  0  0  0  0  0  0  0999 V2000
    5.7174   -8.4529   26.7190 C   0  0  0  0  0  0  0  0  0  0  0  0
    0.3974   -7.0711   27.5149 C   0  0  0  0  0  0  0  0  0  0  0  0
    2.5338   -7.6891   16.0102 C   0  0  0  0  0  0  0  0  0  0  0  0
    4.8690   -7.4380   26.4151 C   0  0  0  0  0  0  0  0  0  0  0  0
    2.3021   -5.6726   26.0378 C   0  0  0  0  0  0  0  0  0  0  0  0
    7.0880   -4.6163   27.0010 C   0  0  0  0  0  0  0  0  0  0  0  0
    8.3117   -4.3698   27.4436 C   0  0  0  0  0  0  0  0  0  0  0  0
    1.1339   -5.0515   26.3541 C   0  0  0  0  0  0  0  0  0  0  0  0
    4.8080   -8.0362   16.7101 C   0  0  0  0  0  0  0  0  0  0  0  0
   -1.2173   -3.9294   26.9717 O   0  0  0  0  0  0  0  0  0  0  0  0
   -1.0025   -5.0942   27.4586 C   0  0  0  0  0  0  0  0  0  0  0  0
    2.2474   -8.9123   16.6273 C   0  0  0  0  0  0  0  0  0  0  0  0
    4.4957   -9.2636   17.3041 C   0  0  0  0  0  0  0  0  0  0  0  0
   -1.8070   -5.6086   28.1920 O   0  0  0  0  0  0  0  0  0  0  0  0
   10.4296   -5.1799   28.3140 C   0  0  0  0  0  0  0  0  0  0  0  0
    6.6017   -5.9004   26.9187 C   0  0  0  0  0  0  0  0  0  0  0  0
    2.4761   -6.9940   26.4111 N   0  0  0  0  0  0  0  0  0  0  0  0
    9.1353   -5.4053   27.8239 C   0  0  0  0  0  0  0  0  0  0  0  0
    0.9922   -9.3232   16.5995 O   0  0  0  0  0  0  0  0  0  0  0  0
    1.5232   -7.6869   27.1182 C   0  0  0  0  0  0  0  0  0  0  0  0
    8.6878   -6.6715   27.7262 N   0  0  0  0  0  0  0  0  0  0  0  0
    6.9911   -8.2423   27.1808 C   0  0  0  0  0  0  0  0  0  0  0  0
    3.8436   -7.2758   16.0578 C   0  0  0  0  0  0  0  0  0  0  0  0
    3.1882   -9.7190   17.2566 C   0  0  0  0  0  0  0  0  0  0  0  0
    5.3488   -6.1737   26.5092 C   0  0  0  0  0  0  0  0  0  0  0  0
    7.4567   -6.9464   27.2858 C   0  0  0  0  0  0  0  0  0  0  0  0
    0.1921   -5.7592   27.1123 C   0  0  0  0  0  0  0  0  0  0  0  0
    3.5517   -7.7407   25.9711 C   0  0  0  0  0  0  0  0  0  0  0  0
  1  4  4  0
  1 22  4  0
  2 20  4  0
  2 27  4  0
  3 12  4  0
  3 23  4  0
  4 25  4  0
  4 28  1  0
  5  8  4  0
  5 17  4  0
  6  7  4  0
  6 16  4  0
  7 18  4  0
  8 27  4  0
  9 13  4  0
  9 23  4  0
 10 11  1  0
 11 14  2  0
 11 27  1  0
 12 19  1  0
 12 24  4  0
 13 24  4  0
 15 18  1  0
 16 25  4  0
 16 26  4  0
 17 20  4  0
 17 28  1  0
 18 21  4  0
 21 26  4  0
 22 26  4  0
M  END
$$$$

 Created by Python create_sdf_string function

 28 30  0  0  0  0  0  0  0  0999 V2000
    5.7174   -8.4529   26.7190 C   0  0  0  0  0  0  0  0  0  0  0  0
    0.3974   -7.0711   27.5149 C   0  0  0  0  0  0  0  0  0  0  0  0
    2.5338   -7.6891   16.0102 C   0  0  0  0  0  0  0  0  0  0  0  0
    4.8690   -7.4380   26.4151 C   0  0  0  0  0  0  0  0  0  0  0  0
    2.3021   -5.6726   26.0378 C   0  0  0  0  0  0  0  0  0  0  0  0
    7.0880   -4.6163   27.0010 C   0  0  0  0  0  0  0  0  0  0  0  0
    8.3117   -4.3698   27.4436 C   0  0  0  0  0  0  0  0  0  0  0  0
    1.1339   -5.0515   26.3541 C   0  0  0  0  0  0  0  0  0  0  0  0
    4.8080   -8.0362   16.7101 C   0  0  0  0  0  0  0  0  0  0  0  0
   -1.2173   -3.9294   26.9717 O   0  0  0  0  0  0  0  0  0  0  0  0
   -1.0025   -5.0942   27.4586 C   0  0  0  0  0  0  0  0  0  0  0  0
    2.2474   -8.9123   16.6273 C   0  0  0  0  0  0  0  0  0  0  0  0
    4.4957   -9.2636   17.3041 C   0  0  0  0  0  0  0  0  0  0  0  0
   -1.8070   -5.6086   28.1920 O   0  0  0  0  0  0  0  0  0  0  0  0
   10.4296   -5.1799   28.3140 C   0  0  0  0  0  0  0  0  0  0  0  0
    6.6017   -5.9004   26.9187 C   0  0  0  0  0  0  0  0  0  0  0  0
    2.4761   -6.9940   26.4111 N   0  0  0  0  0  0  0  0  0  0  0  0
    9.1353   -5.4053   27.8239 C   0  0  0  0  0  0  0  0  0  0  0  0
    0.9922   -9.3232   16.5995 O   0  0  0  0  0  0  0  0  0  0  0  0
    1.5232   -7.6869   27.1182 C   0  0  0  0  0  0  0  0  0  0  0  0
    8.6878   -6.6715   27.7262 N   0  0  0  0  0  0  0  0  0  0  0  0
    6.9911   -8.2423   27.1808 C   0  0  0  0  0  0  0  0  0  0  0  0
    3.8436   -7.2758   16.0578 C   0  0  0  0  0  0  0  0  0  0  0  0
    3.1882   -9.7190   17.2566 C   0  0  0  0  0  0  0  0  0  0  0  0
    5.3488   -6.1737   26.5092 C   0  0  0  0  0  0  0  0  0  0  0  0
    7.4567   -6.9464   27.2858 C   0  0  0  0  0  0  0  0  0  0  0  0
    0.1921   -5.7592   27.1123 C   0  0  0  0  0  0  0  0  0  0  0  0
    3.5517   -7.7407   25.9711 C   0  0  0  0  0  0  0  0  0  0  0  0
  1  4  4  0
  1 22  4  0
  2 20  4  0
  2 27  4  0
  3 12  4  0
  3 23  4  0
  4 25  4  0
  4 28  1  0
  5  8  4  0
  5 17  4  0
  6  7  4  0
  6 16  4  0
  7 18  4  0
  8 27  4  0
  9 13  4  0
  9 23  4  0
 10 11  1  0
 11 14  2  0
 11 27  1  0
 12 19  1  0
 12 24  4  0
 13 24  4  0
 15 18  1  0
 16 25  4  0
 16 26  4  0
 17 20  4  0
 17 28  1  0
 18 21  4  0
 21 26  4  0
 22 26  4  0
M  END
$$$$

 Created by Python create_sdf_string function

 28 30  0  0  0  0  0  0  0  0999 V2000
    5.7174   -8.4529   26.7190 C   0  0  0  0  0  0  0  0  0  0  0  0
    0.3974   -7.0711   27.5149 C   0  0  0  0  0  0  0  0  0  0  0  0
    2.5338   -7.6891   16.0102 C   0  0  0  0  0  0  0  0  0  0  0  0
    4.8690   -7.4380   26.4151 C   0  0  0  0  0  0  0  0  0  0  0  0
    2.3021   -5.6726   26.0378 C   0  0  0  0  0  0  0  0  0  0  0  0
    7.0880   -4.6163   27.0010 C   0  0  0  0  0  0  0  0  0  0  0  0
    8.3117   -4.3698   27.4436 C   0  0  0  0  0  0  0  0  0  0  0  0
    1.1339   -5.0515   26.3541 C   0  0  0  0  0  0  0  0  0  0  0  0
    4.8080   -8.0362   16.7101 C   0  0  0  0  0  0  0  0  0  0  0  0
   -1.2173   -3.9294   26.9717 O   0  0  0  0  0  0  0  0  0  0  0  0
   -1.0025   -5.0942   27.4586 C   0  0  0  0  0  0  0  0  0  0  0  0
    2.2474   -8.9123   16.6273 C   0  0  0  0  0  0  0  0  0  0  0  0
    4.4957   -9.2636   17.3041 C   0  0  0  0  0  0  0  0  0  0  0  0
   -1.8070   -5.6086   28.1920 O   0  0  0  0  0  0  0  0  0  0  0  0
   10.4296   -5.1799   28.3140 C   0  0  0  0  0  0  0  0  0  0  0  0
    6.6017   -5.9004   26.9187 C   0  0  0  0  0  0  0  0  0  0  0  0
    2.4761   -6.9940   26.4111 N   0  0  0  0  0  0  0  0  0  0  0  0
    9.1353   -5.4053   27.8239 C   0  0  0  0  0  0  0  0  0  0  0  0
    0.9922   -9.3232   16.5995 O   0  0  0  0  0  0  0  0  0  0  0  0
    1.5232   -7.6869   27.1182 C   0  0  0  0  0  0  0  0  0  0  0  0
    8.6878   -6.6715   27.7262 N   0  0  0  0  0  0  0  0  0  0  0  0
    6.9911   -8.2423   27.1808 C   0  0  0  0  0  0  0  0  0  0  0  0
    3.8436   -7.2758   16.0578 C   0  0  0  0  0  0  0  0  0  0  0  0
    3.1882   -9.7190   17.2566 C   0  0  0  0  0  0  0  0  0  0  0  0
    5.3488   -6.1737   26.5092 C   0  0  0  0  0  0  0  0  0  0  0  0
    7.4567   -6.9464   27.2858 C   0  0  0  0  0  0  0  0  0  0  0  0
    0.1921   -5.7592   27.1123 C   0  0  0  0  0  0  0  0  0  0  0  0
    3.5517   -7.7407   25.9711 C   0  0  0  0  0  0  0  0  0  0  0  0
  1  4  4  0
  1 22  4  0
  2 20  4  0
  2 27  4  0
  3 12  4  0
  3 23  4  0
  4 25  4  0
  4 28  1  0
  5  8  4  0
  5 17  4  0
  6  7  4  0
  6 16  4  0
  7 18  4  0
  8 27  4  0
  9 13  4  0
  9 23  4  0
 10 11  1  0
 11 14  2  0
 11 27  1  0
 12 19  1  0
 12 24  4  0
 13 24  4  0
 15 18  1  0
 16 25  4  0
 16 26  4  0
 17 20  4  0
 17 28  1  0
 18 21  4  0
 21 26  4  0
 22 26  4  0
M  END
$$$$

 Created by Python create_sdf_string function

 28 30  0  0  0  0  0  0  0  0999 V2000
    5.7174   -8.4529   26.7190 C   0  0  0  0  0  0  0  0  0  0  0  0
    0.3974   -7.0711   27.5149 C   0  0  0  0  0  0  0  0  0  0  0  0
    2.5338   -7.6891   16.0102 C   0  0  0  0  0  0  0  0  0  0  0  0
    4.8690   -7.4380   26.4151 C   0  0  0  0  0  0  0  0  0  0  0  0
    2.3021   -5.6726   26.0378 C   0  0  0  0  0  0  0  0  0  0  0  0
    7.0880   -4.6163   27.0010 C   0  0  0  0  0  0  0  0  0  0  0  0
    8.3117   -4.3698   27.4436 C   0  0  0  0  0  0  0  0  0  0  0  0
    1.1339   -5.0515   26.3541 C   0  0  0  0  0  0  0  0  0  0  0  0
    4.8080   -8.0362   16.7101 C   0  0  0  0  0  0  0  0  0  0  0  0
   -1.2173   -3.9294   26.9717 O   0  0  0  0  0  0  0  0  0  0  0  0
   -1.0025   -5.0942   27.4586 C   0  0  0  0  0  0  0  0  0  0  0  0
    2.2474   -8.9123   16.6273 C   0  0  0  0  0  0  0  0  0  0  0  0
    4.4957   -9.2636   17.3041 C   0  0  0  0  0  0  0  0  0  0  0  0
   -1.8070   -5.6086   28.1920 O   0  0  0  0  0  0  0  0  0  0  0  0
   10.4296   -5.1799   28.3140 C   0  0  0  0  0  0  0  0  0  0  0  0
    6.6017   -5.9004   26.9187 C   0  0  0  0  0  0  0  0  0  0  0  0
    2.4761   -6.9940   26.4111 N   0  0  0  0  0  0  0  0  0  0  0  0
    9.1353   -5.4053   27.8239 C   0  0  0  0  0  0  0  0  0  0  0  0
    0.9922   -9.3232   16.5995 O   0  0  0  0  0  0  0  0  0  0  0  0
    1.5232   -7.6869   27.1182 C   0  0  0  0  0  0  0  0  0  0  0  0
    8.6878   -6.6715   27.7262 N   0  0  0  0  0  0  0  0  0  0  0  0
    6.9911   -8.2423   27.1808 C   0  0  0  0  0  0  0  0  0  0  0  0
    3.8436   -7.2758   16.0578 C   0  0  0  0  0  0  0  0  0  0  0  0
    3.1882   -9.7190   17.2566 C   0  0  0  0  0  0  0  0  0  0  0  0
    5.3488   -6.1737   26.5092 C   0  0  0  0  0  0  0  0  0  0  0  0
    7.4567   -6.9464   27.2858 C   0  0  0  0  0  0  0  0  0  0  0  0
    0.1921   -5.7592   27.1123 C   0  0  0  0  0  0  0  0  0  0  0  0
    3.5517   -7.7407   25.9711 C   0  0  0  0  0  0  0  0  0  0  0  0
  1  4  4  0
  1 22  4  0
  2 20  4  0
  2 27  4  0
  3 12  4  0
  3 23  4  0
  4 25  4  0
  4 28  1  0
  5  8  4  0
  5 17  4  0
  6  7  4  0
  6 16  4  0
  7 18  4  0
  8 27  4  0
  9 13  4  0
  9 23  4  0
 10 11  1  0
 11 14  2  0
 11 27  1  0
 12 19  1  0
 12 24  4  0
 13 24  4  0
 15 18  1  0
 16 25  4  0
 16 26  4  0
 17 20  4  0
 17 28  1  0
 18 21  4  0
 21 26  4  0
 22 26  4  0
M  END
$$$$

 Created by Python create_sdf_string function

 28 30  0  0  0  0  0  0  0  0999 V2000
    5.7174   -8.4529   26.7190 C   0  0  0  0  0  0  0  0  0  0  0  0
    0.3974   -7.0711   27.5149 C   0  0  0  0  0  0  0  0  0  0  0  0
    2.5338   -7.6891   16.0102 C   0  0  0  0  0  0  0  0  0  0  0  0
    4.8690   -7.4380   26.4151 C   0  0  0  0  0  0  0  0  0  0  0  0
    2.3021   -5.6726   26.0378 C   0  0  0  0  0  0  0  0  0  0  0  0
    7.0880   -4.6163   27.0010 C   0  0  0  0  0  0  0  0  0  0  0  0
    8.3117   -4.3698   27.4436 C   0  0  0  0  0  0  0  0  0  0  0  0
    1.1339   -5.0515   26.3541 C   0  0  0  0  0  0  0  0  0  0  0  0
    4.8080   -8.0362   16.7101 C   0  0  0  0  0  0  0  0  0  0  0  0
   -1.2173   -3.9294   26.9717 O   0  0  0  0  0  0  0  0  0  0  0  0
   -1.0025   -5.0942   27.4586 C   0  0  0  0  0  0  0  0  0  0  0  0
    2.2474   -8.9123   16.6273 C   0  0  0  0  0  0  0  0  0  0  0  0
    4.4957   -9.2636   17.3041 C   0  0  0  0  0  0  0  0  0  0  0  0
   -1.8070   -5.6086   28.1920 O   0  0  0  0  0  0  0  0  0  0  0  0
   10.4296   -5.1799   28.3140 C   0  0  0  0  0  0  0  0  0  0  0  0
    6.6017   -5.9004   26.9187 C   0  0  0  0  0  0  0  0  0  0  0  0
    2.4761   -6.9940   26.4111 N   0  0  0  0  0  0  0  0  0  0  0  0
    9.1353   -5.4053   27.8239 C   0  0  0  0  0  0  0  0  0  0  0  0
    0.9922   -9.3232   16.5995 O   0  0  0  0  0  0  0  0  0  0  0  0
    1.5232   -7.6869   27.1182 C   0  0  0  0  0  0  0  0  0  0  0  0
    8.6878   -6.6715   27.7262 N   0  0  0  0  0  0  0  0  0  0  0  0
    6.9911   -8.2423   27.1808 C   0  0  0  0  0  0  0  0  0  0  0  0
    3.8436   -7.2758   16.0578 C   0  0  0  0  0  0  0  0  0  0  0  0
    3.1882   -9.7190   17.2566 C   0  0  0  0  0  0  0  0  0  0  0  0
    5.3488   -6.1737   26.5092 C   0  0  0  0  0  0  0  0  0  0  0  0
    7.4567   -6.9464   27.2858 C   0  0  0  0  0  0  0  0  0  0  0  0
    0.1921   -5.7592   27.1123 C   0  0  0  0  0  0  0  0  0  0  0  0
    3.5517   -7.7407   25.9711 C   0  0  0  0  0  0  0  0  0  0  0  0
  1  4  4  0
  1 22  4  0
  2 20  4  0
  2 27  4  0
  3 12  4  0
  3 23  4  0
  4 25  4  0
  4 28  1  0
  5  8  4  0
  5 17  4  0
  6  7  4  0
  6 16  4  0
  7 18  4  0
  8 27  4  0
  9 13  4  0
  9 23  4  0
 10 11  1  0
 11 14  2  0
 11 27  1  0
 12 19  1  0
 12 24  4  0
 13 24  4  0
 15 18  1  0
 16 25  4  0
 16 26  4  0
 17 20  4  0
 17 28  1  0
 18 21  4  0
 21 26  4  0
 22 26  4  0
M  END
$$$$

 Created by Python create_sdf_string function

 28 30  0  0  0  0  0  0  0  0999 V2000
    5.7174   -8.4529   26.7190 C   0  0  0  0  0  0  0  0  0  0  0  0
    0.3974   -7.0711   27.5149 C   0  0  0  0  0  0  0  0  0  0  0  0
    2.5338   -7.6891   16.0102 C   0  0  0  0  0  0  0  0  0  0  0  0
    4.8690   -7.4380   26.4151 C   0  0  0  0  0  0  0  0  0  0  0  0
    2.3021   -5.6726   26.0378 C   0  0  0  0  0  0  0  0  0  0  0  0
    7.0880   -4.6163   27.0010 C   0  0  0  0  0  0  0  0  0  0  0  0
    8.3117   -4.3698   27.4436 C   0  0  0  0  0  0  0  0  0  0  0  0
    1.1339   -5.0515   26.3541 C   0  0  0  0  0  0  0  0  0  0  0  0
    4.8080   -8.0362   16.7101 C   0  0  0  0  0  0  0  0  0  0  0  0
   -1.2173   -3.9294   26.9717 O   0  0  0  0  0  0  0  0  0  0  0  0
   -1.0025   -5.0942   27.4586 C   0  0  0  0  0  0  0  0  0  0  0  0
    2.2474   -8.9123   16.6273 C   0  0  0  0  0  0  0  0  0  0  0  0
    4.4957   -9.2636   17.3041 C   0  0  0  0  0  0  0  0  0  0  0  0
   -1.8070   -5.6086   28.1920 O   0  0  0  0  0  0  0  0  0  0  0  0
   10.4296   -5.1799   28.3140 C   0  0  0  0  0  0  0  0  0  0  0  0
    6.6017   -5.9004   26.9187 C   0  0  0  0  0  0  0  0  0  0  0  0
    2.4761   -6.9940   26.4111 N   0  0  0  0  0  0  0  0  0  0  0  0
    9.1353   -5.4053   27.8239 C   0  0  0  0  0  0  0  0  0  0  0  0
    0.9922   -9.3232   16.5995 O   0  0  0  0  0  0  0  0  0  0  0  0
    1.5232   -7.6869   27.1182 C   0  0  0  0  0  0  0  0  0  0  0  0
    8.6878   -6.6715   27.7262 N   0  0  0  0  0  0  0  0  0  0  0  0
    6.9911   -8.2423   27.1808 C   0  0  0  0  0  0  0  0  0  0  0  0
    3.8436   -7.2758   16.0578 C   0  0  0  0  0  0  0  0  0  0  0  0
    3.1882   -9.7190   17.2566 C   0  0  0  0  0  0  0  0  0  0  0  0
    5.3488   -6.1737   26.5092 C   0  0  0  0  0  0  0  0  0  0  0  0
    7.4567   -6.9464   27.2858 C   0  0  0  0  0  0  0  0  0  0  0  0
    0.1921   -5.7592   27.1123 C   0  0  0  0  0  0  0  0  0  0  0  0
    3.5517   -7.7407   25.9711 C   0  0  0  0  0  0  0  0  0  0  0  0
  1  4  4  0
  1 22  4  0
  2 20  4  0
  2 27  4  0
  3 12  4  0
  3 23  4  0
  4 25  4  0
  4 28  1  0
  5  8  4  0
  5 17  4  0
  6  7  4  0
  6 16  4  0
  7 18  4  0
  8 27  4  0
  9 13  4  0
  9 23  4  0
 10 11  1  0
 11 14  2  0
 11 27  1  0
 12 19  1  0
 12 24  4  0
 13 24  4  0
 15 18  1  0
 16 25  4  0
 16 26  4  0
 17 20  4  0
 17 28  1  0
 18 21  4  0
 21 26  4  0
 22 26  4  0
M  END
$$$$

 Created by Python create_sdf_string function

 28 30  0  0  0  0  0  0  0  0999 V2000
    5.7174   -8.4529   26.7190 C   0  0  0  0  0  0  0  0  0  0  0  0
    0.3974   -7.0711   27.5149 C   0  0  0  0  0  0  0  0  0  0  0  0
    2.5338   -7.6891   16.0102 C   0  0  0  0  0  0  0  0  0  0  0  0
    4.8690   -7.4380   26.4151 C   0  0  0  0  0  0  0  0  0  0  0  0
    2.3021   -5.6726   26.0378 C   0  0  0  0  0  0  0  0  0  0  0  0
    7.0880   -4.6163   27.0010 C   0  0  0  0  0  0  0  0  0  0  0  0
    8.3117   -4.3698   27.4436 C   0  0  0  0  0  0  0  0  0  0  0  0
    1.1339   -5.0515   26.3541 C   0  0  0  0  0  0  0  0  0  0  0  0
    4.8080   -8.0362   16.7101 C   0  0  0  0  0  0  0  0  0  0  0  0
   -1.2173   -3.9294   26.9717 O   0  0  0  0  0  0  0  0  0  0  0  0
   -1.0025   -5.0942   27.4586 C   0  0  0  0  0  0  0  0  0  0  0  0
    2.2474   -8.9123   16.6273 C   0  0  0  0  0  0  0  0  0  0  0  0
    4.4957   -9.2636   17.3041 C   0  0  0  0  0  0  0  0  0  0  0  0
   -1.8070   -5.6086   28.1920 O   0  0  0  0  0  0  0  0  0  0  0  0
   10.4296   -5.1799   28.3140 C   0  0  0  0  0  0  0  0  0  0  0  0
    6.6017   -5.9004   26.9187 C   0  0  0  0  0  0  0  0  0  0  0  0
    2.4761   -6.9940   26.4111 N   0  0  0  0  0  0  0  0  0  0  0  0
    9.1353   -5.4053   27.8239 C   0  0  0  0  0  0  0  0  0  0  0  0
    0.9922   -9.3232   16.5995 O   0  0  0  0  0  0  0  0  0  0  0  0
    1.5232   -7.6869   27.1182 C   0  0  0  0  0  0  0  0  0  0  0  0
    8.6878   -6.6715   27.7262 N   0  0  0  0  0  0  0  0  0  0  0  0
    6.9911   -8.2423   27.1808 C   0  0  0  0  0  0  0  0  0  0  0  0
    3.8436   -7.2758   16.0578 C   0  0  0  0  0  0  0  0  0  0  0  0
    3.1882   -9.7190   17.2566 C   0  0  0  0  0  0  0  0  0  0  0  0
    5.3488   -6.1737   26.5092 C   0  0  0  0  0  0  0  0  0  0  0  0
    7.4567   -6.9464   27.2858 C   0  0  0  0  0  0  0  0  0  0  0  0
    0.1921   -5.7592   27.1123 C   0  0  0  0  0  0  0  0  0  0  0  0
    3.5517   -7.7407   25.9711 C   0  0  0  0  0  0  0  0  0  0  0  0
  1  4  4  0
  1 22  4  0
  2 20  4  0
  2 27  4  0
  3 12  4  0
  3 23  4  0
  4 25  4  0
  4 28  1  0
  5  8  4  0
  5 17  4  0
  6  7  4  0
  6 16  4  0
  7 18  4  0
  8 27  4  0
  9 13  4  0
  9 23  4  0
 10 11  1  0
 11 14  2  0
 11 27  1  0
 12 19  1  0
 12 24  4  0
 13 24  4  0
 15 18  1  0
 16 25  4  0
 16 26  4  0
 17 20  4  0
 17 28  1  0
 18 21  4  0
 21 26  4  0
 22 26  4  0
M  END
$$$$

 Created by Python create_sdf_string function

 28 30  0  0  0  0  0  0  0  0999 V2000
    5.7174   -8.4529   26.7190 C   0  0  0  0  0  0  0  0  0  0  0  0
    0.3974   -7.0711   27.5149 C   0  0  0  0  0  0  0  0  0  0  0  0
    2.5338   -7.6891   16.0102 C   0  0  0  0  0  0  0  0  0  0  0  0
    4.8690   -7.4380   26.4151 C   0  0  0  0  0  0  0  0  0  0  0  0
    2.3021   -5.6726   26.0378 C   0  0  0  0  0  0  0  0  0  0  0  0
    7.0880   -4.6163   27.0010 C   0  0  0  0  0  0  0  0  0  0  0  0
    8.3117   -4.3698   27.4436 C   0  0  0  0  0  0  0  0  0  0  0  0
    1.1339   -5.0515   26.3541 C   0  0  0  0  0  0  0  0  0  0  0  0
    4.8080   -8.0362   16.7101 C   0  0  0  0  0  0  0  0  0  0  0  0
   -1.2173   -3.9294   26.9717 O   0  0  0  0  0  0  0  0  0  0  0  0
   -1.0025   -5.0942   27.4586 C   0  0  0  0  0  0  0  0  0  0  0  0
    2.2474   -8.9123   16.6273 C   0  0  0  0  0  0  0  0  0  0  0  0
    4.4957   -9.2636   17.3041 C   0  0  0  0  0  0  0  0  0  0  0  0
   -1.8070   -5.6086   28.1920 O   0  0  0  0  0  0  0  0  0  0  0  0
   10.4296   -5.1799   28.3140 C   0  0  0  0  0  0  0  0  0  0  0  0
    6.6017   -5.9004   26.9187 C   0  0  0  0  0  0  0  0  0  0  0  0
    2.4761   -6.9940   26.4111 N   0  0  0  0  0  0  0  0  0  0  0  0
    9.1353   -5.4053   27.8239 C   0  0  0  0  0  0  0  0  0  0  0  0
    0.9922   -9.3232   16.5995 O   0  0  0  0  0  0  0  0  0  0  0  0
    1.5232   -7.6869   27.1182 C   0  0  0  0  0  0  0  0  0  0  0  0
    8.6878   -6.6715   27.7262 N   0  0  0  0  0  0  0  0  0  0  0  0
    6.9911   -8.2423   27.1808 C   0  0  0  0  0  0  0  0  0  0  0  0
    3.8436   -7.2758   16.0578 C   0  0  0  0  0  0  0  0  0  0  0  0
    3.1882   -9.7190   17.2566 C   0  0  0  0  0  0  0  0  0  0  0  0
    5.3488   -6.1737   26.5092 C   0  0  0  0  0  0  0  0  0  0  0  0
    7.4567   -6.9464   27.2858 C   0  0  0  0  0  0  0  0  0  0  0  0
    0.1921   -5.7592   27.1123 C   0  0  0  0  0  0  0  0  0  0  0  0
    3.5517   -7.7407   25.9711 C   0  0  0  0  0  0  0  0  0  0  0  0
  1  4  4  0
  1 22  4  0
  2 20  4  0
  2 27  4  0
  3 12  4  0
  3 23  4  0
  4 25  4  0
  4 28  1  0
  5  8  4  0
  5 17  4  0
  6  7  4  0
  6 16  4  0
  7 18  4  0
  8 27  4  0
  9 13  4  0
  9 23  4  0
 10 11  1  0
 11 14  2  0
 11 27  1  0
 12 19  1  0
 12 24  4  0
 13 24  4  0
 15 18  1  0
 16 25  4  0
 16 26  4  0
 17 20  4  0
 17 28  1  0
 18 21  4  0
 21 26  4  0
 22 26  4  0
M  END
$$$$

 Created by Python create_sdf_string function

 28 30  0  0  0  0  0  0  0  0999 V2000
    5.7174   -8.4529   26.7190 C   0  0  0  0  0  0  0  0  0  0  0  0
    0.3974   -7.0711   27.5149 C   0  0  0  0  0  0  0  0  0  0  0  0
    2.5338   -7.6891   16.0102 C   0  0  0  0  0  0  0  0  0  0  0  0
    4.8690   -7.4380   26.4151 C   0  0  0  0  0  0  0  0  0  0  0  0
    2.3021   -5.6726   26.0378 C   0  0  0  0  0  0  0  0  0  0  0  0
    7.0880   -4.6163   27.0010 C   0  0  0  0  0  0  0  0  0  0  0  0
    8.3117   -4.3698   27.4436 C   0  0  0  0  0  0  0  0  0  0  0  0
    1.1339   -5.0515   26.3541 C   0  0  0  0  0  0  0  0  0  0  0  0
    4.8080   -8.0362   16.7101 C   0  0  0  0  0  0  0  0  0  0  0  0
   -1.2173   -3.9294   26.9717 O   0  0  0  0  0  0  0  0  0  0  0  0
   -1.0025   -5.0942   27.4586 C   0  0  0  0  0  0  0  0  0  0  0  0
    2.2474   -8.9123   16.6273 C   0  0  0  0  0  0  0  0  0  0  0  0
    4.4957   -9.2636   17.3041 C   0  0  0  0  0  0  0  0  0  0  0  0
   -1.8070   -5.6086   28.1920 O   0  0  0  0  0  0  0  0  0  0  0  0
   10.4296   -5.1799   28.3140 C   0  0  0  0  0  0  0  0  0  0  0  0
    6.6017   -5.9004   26.9187 C   0  0  0  0  0  0  0  0  0  0  0  0
    2.4761   -6.9940   26.4111 N   0  0  0  0  0  0  0  0  0  0  0  0
    9.1353   -5.4053   27.8239 C   0  0  0  0  0  0  0  0  0  0  0  0
    0.9922   -9.3232   16.5995 O   0  0  0  0  0  0  0  0  0  0  0  0
    1.5232   -7.6869   27.1182 C   0  0  0  0  0  0  0  0  0  0  0  0
    8.6878   -6.6715   27.7262 N   0  0  0  0  0  0  0  0  0  0  0  0
    6.9911   -8.2423   27.1808 C   0  0  0  0  0  0  0  0  0  0  0  0
    3.8436   -7.2758   16.0578 C   0  0  0  0  0  0  0  0  0  0  0  0
    3.1882   -9.7190   17.2566 C   0  0  0  0  0  0  0  0  0  0  0  0
    5.3488   -6.1737   26.5092 C   0  0  0  0  0  0  0  0  0  0  0  0
    7.4567   -6.9464   27.2858 C   0  0  0  0  0  0  0  0  0  0  0  0
    0.1921   -5.7592   27.1123 C   0  0  0  0  0  0  0  0  0  0  0  0
    3.5517   -7.7407   25.9711 C   0  0  0  0  0  0  0  0  0  0  0  0
  1  4  4  0
  1 22  4  0
  2 20  4  0
  2 27  4  0
  3 12  4  0
  3 23  4  0
  4 25  4  0
  4 28  1  0
  5  8  4  0
  5 17  4  0
  6  7  4  0
  6 16  4  0
  7 18  4  0
  8 27  4  0
  9 13  4  0
  9 23  4  0
 10 11  1  0
 11 14  2  0
 11 27  1  0
 12 19  1  0
 12 24  4  0
 13 24  4  0
 15 18  1  0
 16 25  4  0
 16 26  4  0
 17 20  4  0
 17 28  1  0
 18 21  4  0
 21 26  4  0
 22 26  4  0
M  END
$$$$

 Created by Python create_sdf_string function

 28 30  0  0  0  0  0  0  0  0999 V2000
    5.7174   -8.4529   26.7190 C   0  0  0  0  0  0  0  0  0  0  0  0
    0.3974   -7.0711   27.5149 C   0  0  0  0  0  0  0  0  0  0  0  0
    2.5338   -7.6891   16.0102 C   0  0  0  0  0  0  0  0  0  0  0  0
    4.8690   -7.4380   26.4151 C   0  0  0  0  0  0  0  0  0  0  0  0
    2.3021   -5.6726   26.0378 C   0  0  0  0  0  0  0  0  0  0  0  0
    7.0880   -4.6163   27.0010 C   0  0  0  0  0  0  0  0  0  0  0  0
    8.3117   -4.3698   27.4436 C   0  0  0  0  0  0  0  0  0  0  0  0
    1.1339   -5.0515   26.3541 C   0  0  0  0  0  0  0  0  0  0  0  0
    4.8080   -8.0362   16.7101 C   0  0  0  0  0  0  0  0  0  0  0  0
   -1.2173   -3.9294   26.9717 O   0  0  0  0  0  0  0  0  0  0  0  0
   -1.0025   -5.0942   27.4586 C   0  0  0  0  0  0  0  0  0  0  0  0
    2.2474   -8.9123   16.6273 C   0  0  0  0  0  0  0  0  0  0  0  0
    4.4957   -9.2636   17.3041 C   0  0  0  0  0  0  0  0  0  0  0  0
   -1.8070   -5.6086   28.1920 O   0  0  0  0  0  0  0  0  0  0  0  0
   10.4296   -5.1799   28.3140 C   0  0  0  0  0  0  0  0  0  0  0  0
    6.6017   -5.9004   26.9187 C   0  0  0  0  0  0  0  0  0  0  0  0
    2.4761   -6.9940   26.4111 N   0  0  0  0  0  0  0  0  0  0  0  0
    9.1353   -5.4053   27.8239 C   0  0  0  0  0  0  0  0  0  0  0  0
    0.9922   -9.3232   16.5995 O   0  0  0  0  0  0  0  0  0  0  0  0
    1.5232   -7.6869   27.1182 C   0  0  0  0  0  0  0  0  0  0  0  0
    8.6878   -6.6715   27.7262 N   0  0  0  0  0  0  0  0  0  0  0  0
    6.9911   -8.2423   27.1808 C   0  0  0  0  0  0  0  0  0  0  0  0
    3.8436   -7.2758   16.0578 C   0  0  0  0  0  0  0  0  0  0  0  0
    3.1882   -9.7190   17.2566 C   0  0  0  0  0  0  0  0  0  0  0  0
    5.3488   -6.1737   26.5092 C   0  0  0  0  0  0  0  0  0  0  0  0
    7.4567   -6.9464   27.2858 C   0  0  0  0  0  0  0  0  0  0  0  0
    0.1921   -5.7592   27.1123 C   0  0  0  0  0  0  0  0  0  0  0  0
    3.5517   -7.7407   25.9711 C   0  0  0  0  0  0  0  0  0  0  0  0
  1  4  4  0
  1 22  4  0
  2 20  4  0
  2 27  4  0
  3 12  4  0
  3 23  4  0
  4 25  4  0
  4 28  1  0
  5  8  4  0
  5 17  4  0
  6  7  4  0
  6 16  4  0
  7 18  4  0
  8 27  4  0
  9 13  4  0
  9 23  4  0
 10 11  1  0
 11 14  2  0
 11 27  1  0
 12 19  1  0
 12 24  4  0
 13 24  4  0
 15 18  1  0
 16 25  4  0
 16 26  4  0
 17 20  4  0
 17 28  1  0
 18 21  4  0
 21 26  4  0
 22 26  4  0
M  END
$$$$

 Created by Python create_sdf_string function

 28 30  0  0  0  0  0  0  0  0999 V2000
    5.7174   -8.4529   26.7190 C   0  0  0  0  0  0  0  0  0  0  0  0
    0.3974   -7.0711   27.5149 C   0  0  0  0  0  0  0  0  0  0  0  0
    2.5338   -7.6891   16.0102 C   0  0  0  0  0  0  0  0  0  0  0  0
    4.8690   -7.4380   26.4151 C   0  0  0  0  0  0  0  0  0  0  0  0
    2.3021   -5.6726   26.0378 C   0  0  0  0  0  0  0  0  0  0  0  0
    7.0880   -4.6163   27.0010 C   0  0  0  0  0  0  0  0  0  0  0  0
    8.3117   -4.3698   27.4436 C   0  0  0  0  0  0  0  0  0  0  0  0
    1.1339   -5.0515   26.3541 C   0  0  0  0  0  0  0  0  0  0  0  0
    4.8080   -8.0362   16.7101 C   0  0  0  0  0  0  0  0  0  0  0  0
   -1.2173   -3.9294   26.9717 O   0  0  0  0  0  0  0  0  0  0  0  0
   -1.0025   -5.0942   27.4586 C   0  0  0  0  0  0  0  0  0  0  0  0
    2.2474   -8.9123   16.6273 C   0  0  0  0  0  0  0  0  0  0  0  0
    4.4957   -9.2636   17.3041 C   0  0  0  0  0  0  0  0  0  0  0  0
   -1.8070   -5.6086   28.1920 O   0  0  0  0  0  0  0  0  0  0  0  0
   10.4296   -5.1799   28.3140 C   0  0  0  0  0  0  0  0  0  0  0  0
    6.6017   -5.9004   26.9187 C   0  0  0  0  0  0  0  0  0  0  0  0
    2.4761   -6.9940   26.4111 N   0  0  0  0  0  0  0  0  0  0  0  0
    9.1353   -5.4053   27.8239 C   0  0  0  0  0  0  0  0  0  0  0  0
    0.9922   -9.3232   16.5995 O   0  0  0  0  0  0  0  0  0  0  0  0
    1.5232   -7.6869   27.1182 C   0  0  0  0  0  0  0  0  0  0  0  0
    8.6878   -6.6715   27.7262 N   0  0  0  0  0  0  0  0  0  0  0  0
    6.9911   -8.2423   27.1808 C   0  0  0  0  0  0  0  0  0  0  0  0
    3.8436   -7.2758   16.0578 C   0  0  0  0  0  0  0  0  0  0  0  0
    3.1882   -9.7190   17.2566 C   0  0  0  0  0  0  0  0  0  0  0  0
    5.3488   -6.1737   26.5092 C   0  0  0  0  0  0  0  0  0  0  0  0
    7.4567   -6.9464   27.2858 C   0  0  0  0  0  0  0  0  0  0  0  0
    0.1921   -5.7592   27.1123 C   0  0  0  0  0  0  0  0  0  0  0  0
    3.5517   -7.7407   25.9711 C   0  0  0  0  0  0  0  0  0  0  0  0
  1  4  4  0
  1 22  4  0
  2 20  4  0
  2 27  4  0
  3 12  4  0
  3 23  4  0
  4 25  4  0
  4 28  1  0
  5  8  4  0
  5 17  4  0
  6  7  4  0
  6 16  4  0
  7 18  4  0
  8 27  4  0
  9 13  4  0
  9 23  4  0
 10 11  1  0
 11 14  2  0
 11 27  1  0
 12 19  1  0
 12 24  4  0
 13 24  4  0
 15 18  1  0
 16 25  4  0
 16 26  4  0
 17 20  4  0
 17 28  1  0
 18 21  4  0
 21 26  4  0
 22 26  4  0
M  END
$$$$

 Created by Python create_sdf_string function

 28 30  0  0  0  0  0  0  0  0999 V2000
    5.7174   -8.4529   26.7190 C   0  0  0  0  0  0  0  0  0  0  0  0
    0.3974   -7.0711   27.5149 C   0  0  0  0  0  0  0  0  0  0  0  0
    2.5338   -7.6891   16.0102 C   0  0  0  0  0  0  0  0  0  0  0  0
    4.8690   -7.4380   26.4151 C   0  0  0  0  0  0  0  0  0  0  0  0
    2.3021   -5.6726   26.0378 C   0  0  0  0  0  0  0  0  0  0  0  0
    7.0880   -4.6163   27.0010 C   0  0  0  0  0  0  0  0  0  0  0  0
    8.3117   -4.3698   27.4436 C   0  0  0  0  0  0  0  0  0  0  0  0
    1.1339   -5.0515   26.3541 C   0  0  0  0  0  0  0  0  0  0  0  0
    4.8080   -8.0362   16.7101 C   0  0  0  0  0  0  0  0  0  0  0  0
   -1.2173   -3.9294   26.9717 O   0  0  0  0  0  0  0  0  0  0  0  0
   -1.0025   -5.0942   27.4586 C   0  0  0  0  0  0  0  0  0  0  0  0
    2.2474   -8.9123   16.6273 C   0  0  0  0  0  0  0  0  0  0  0  0
    4.4957   -9.2636   17.3041 C   0  0  0  0  0  0  0  0  0  0  0  0
   -1.8070   -5.6086   28.1920 O   0  0  0  0  0  0  0  0  0  0  0  0
   10.4296   -5.1799   28.3140 C   0  0  0  0  0  0  0  0  0  0  0  0
    6.6017   -5.9004   26.9187 C   0  0  0  0  0  0  0  0  0  0  0  0
    2.4761   -6.9940   26.4111 N   0  0  0  0  0  0  0  0  0  0  0  0
    9.1353   -5.4053   27.8239 C   0  0  0  0  0  0  0  0  0  0  0  0
    0.9922   -9.3232   16.5995 O   0  0  0  0  0  0  0  0  0  0  0  0
    1.5232   -7.6869   27.1182 C   0  0  0  0  0  0  0  0  0  0  0  0
    8.6878   -6.6715   27.7262 N   0  0  0  0  0  0  0  0  0  0  0  0
    6.9911   -8.2423   27.1808 C   0  0  0  0  0  0  0  0  0  0  0  0
    3.8436   -7.2758   16.0578 C   0  0  0  0  0  0  0  0  0  0  0  0
    3.1882   -9.7190   17.2566 C   0  0  0  0  0  0  0  0  0  0  0  0
    5.3488   -6.1737   26.5092 C   0  0  0  0  0  0  0  0  0  0  0  0
    7.4567   -6.9464   27.2858 C   0  0  0  0  0  0  0  0  0  0  0  0
    0.1921   -5.7592   27.1123 C   0  0  0  0  0  0  0  0  0  0  0  0
    3.5517   -7.7407   25.9711 C   0  0  0  0  0  0  0  0  0  0  0  0
  1  4  4  0
  1 22  4  0
  2 20  4  0
  2 27  4  0
  3 12  4  0
  3 23  4  0
  4 25  4  0
  4 28  1  0
  5  8  4  0
  5 17  4  0
  6  7  4  0
  6 16  4  0
  7 18  4  0
  8 27  4  0
  9 13  4  0
  9 23  4  0
 10 11  1  0
 11 14  2  0
 11 27  1  0
 12 19  1  0
 12 24  4  0
 13 24  4  0
 15 18  1  0
 16 25  4  0
 16 26  4  0
 17 20  4  0
 17 28  1  0
 18 21  4  0
 21 26  4  0
 22 26  4  0
M  END
$$$$

 Created by Python create_sdf_string function

 28 30  0  0  0  0  0  0  0  0999 V2000
    5.7174   -8.4529   26.7190 C   0  0  0  0  0  0  0  0  0  0  0  0
    0.3974   -7.0711   27.5149 C   0  0  0  0  0  0  0  0  0  0  0  0
    2.5338   -7.6891   16.0102 C   0  0  0  0  0  0  0  0  0  0  0  0
    4.8690   -7.4380   26.4151 C   0  0  0  0  0  0  0  0  0  0  0  0
    2.3021   -5.6726   26.0378 C   0  0  0  0  0  0  0  0  0  0  0  0
    7.0880   -4.6163   27.0010 C   0  0  0  0  0  0  0  0  0  0  0  0
    8.3117   -4.3698   27.4436 C   0  0  0  0  0  0  0  0  0  0  0  0
    1.1339   -5.0515   26.3541 C   0  0  0  0  0  0  0  0  0  0  0  0
    4.8080   -8.0362   16.7101 C   0  0  0  0  0  0  0  0  0  0  0  0
   -1.2173   -3.9294   26.9717 O   0  0  0  0  0  0  0  0  0  0  0  0
   -1.0025   -5.0942   27.4586 C   0  0  0  0  0  0  0  0  0  0  0  0
    2.2474   -8.9123   16.6273 C   0  0  0  0  0  0  0  0  0  0  0  0
    4.4957   -9.2636   17.3041 C   0  0  0  0  0  0  0  0  0  0  0  0
   -1.8070   -5.6086   28.1920 O   0  0  0  0  0  0  0  0  0  0  0  0
   10.4296   -5.1799   28.3140 C   0  0  0  0  0  0  0  0  0  0  0  0
    6.6017   -5.9004   26.9187 C   0  0  0  0  0  0  0  0  0  0  0  0
    2.4761   -6.9940   26.4111 N   0  0  0  0  0  0  0  0  0  0  0  0
    9.1353   -5.4053   27.8239 C   0  0  0  0  0  0  0  0  0  0  0  0
    0.9922   -9.3232   16.5995 O   0  0  0  0  0  0  0  0  0  0  0  0
    1.5232   -7.6869   27.1182 C   0  0  0  0  0  0  0  0  0  0  0  0
    8.6878   -6.6715   27.7262 N   0  0  0  0  0  0  0  0  0  0  0  0
    6.9911   -8.2423   27.1808 C   0  0  0  0  0  0  0  0  0  0  0  0
    3.8436   -7.2758   16.0578 C   0  0  0  0  0  0  0  0  0  0  0  0
    3.1882   -9.7190   17.2566 C   0  0  0  0  0  0  0  0  0  0  0  0
    5.3488   -6.1737   26.5092 C   0  0  0  0  0  0  0  0  0  0  0  0
    7.4567   -6.9464   27.2858 C   0  0  0  0  0  0  0  0  0  0  0  0
    0.1921   -5.7592   27.1123 C   0  0  0  0  0  0  0  0  0  0  0  0
    3.5517   -7.7407   25.9711 C   0  0  0  0  0  0  0  0  0  0  0  0
  1  4  4  0
  1 22  4  0
  2 20  4  0
  2 27  4  0
  3 12  4  0
  3 23  4  0
  4 25  4  0
  4 28  1  0
  5  8  4  0
  5 17  4  0
  6  7  4  0
  6 16  4  0
  7 18  4  0
  8 27  4  0
  9 13  4  0
  9 23  4  0
 10 11  1  0
 11 14  2  0
 11 27  1  0
 12 19  1  0
 12 24  4  0
 13 24  4  0
 15 18  1  0
 16 25  4  0
 16 26  4  0
 17 20  4  0
 17 28  1  0
 18 21  4  0
 21 26  4  0
 22 26  4  0
M  END
$$$$

 Created by Python create_sdf_string function

 28 30  0  0  0  0  0  0  0  0999 V2000
    5.7174   -8.4529   26.7190 C   0  0  0  0  0  0  0  0  0  0  0  0
    0.3974   -7.0711   27.5149 C   0  0  0  0  0  0  0  0  0  0  0  0
    2.5338   -7.6891   16.0102 C   0  0  0  0  0  0  0  0  0  0  0  0
    4.8690   -7.4380   26.4151 C   0  0  0  0  0  0  0  0  0  0  0  0
    2.3021   -5.6726   26.0378 C   0  0  0  0  0  0  0  0  0  0  0  0
    7.0880   -4.6163   27.0010 C   0  0  0  0  0  0  0  0  0  0  0  0
    8.3117   -4.3698   27.4436 C   0  0  0  0  0  0  0  0  0  0  0  0
    1.1339   -5.0515   26.3541 C   0  0  0  0  0  0  0  0  0  0  0  0
    4.8080   -8.0362   16.7101 C   0  0  0  0  0  0  0  0  0  0  0  0
   -1.2173   -3.9294   26.9717 O   0  0  0  0  0  0  0  0  0  0  0  0
   -1.0025   -5.0942   27.4586 C   0  0  0  0  0  0  0  0  0  0  0  0
    2.2474   -8.9123   16.6273 C   0  0  0  0  0  0  0  0  0  0  0  0
    4.4957   -9.2636   17.3041 C   0  0  0  0  0  0  0  0  0  0  0  0
   -1.8070   -5.6086   28.1920 O   0  0  0  0  0  0  0  0  0  0  0  0
   10.4296   -5.1799   28.3140 C   0  0  0  0  0  0  0  0  0  0  0  0
    6.6017   -5.9004   26.9187 C   0  0  0  0  0  0  0  0  0  0  0  0
    2.4761   -6.9940   26.4111 N   0  0  0  0  0  0  0  0  0  0  0  0
    9.1353   -5.4053   27.8239 C   0  0  0  0  0  0  0  0  0  0  0  0
    0.9922   -9.3232   16.5995 O   0  0  0  0  0  0  0  0  0  0  0  0
    1.5232   -7.6869   27.1182 C   0  0  0  0  0  0  0  0  0  0  0  0
    8.6878   -6.6715   27.7262 N   0  0  0  0  0  0  0  0  0  0  0  0
    6.9911   -8.2423   27.1808 C   0  0  0  0  0  0  0  0  0  0  0  0
    3.8436   -7.2758   16.0578 C   0  0  0  0  0  0  0  0  0  0  0  0
    3.1882   -9.7190   17.2566 C   0  0  0  0  0  0  0  0  0  0  0  0
    5.3488   -6.1737   26.5092 C   0  0  0  0  0  0  0  0  0  0  0  0
    7.4567   -6.9464   27.2858 C   0  0  0  0  0  0  0  0  0  0  0  0
    0.1921   -5.7592   27.1123 C   0  0  0  0  0  0  0  0  0  0  0  0
    3.5517   -7.7407   25.9711 C   0  0  0  0  0  0  0  0  0  0  0  0
  1  4  4  0
  1 22  4  0
  2 20  4  0
  2 27  4  0
  3 12  4  0
  3 23  4  0
  4 25  4  0
  4 28  1  0
  5  8  4  0
  5 17  4  0
  6  7  4  0
  6 16  4  0
  7 18  4  0
  8 27  4  0
  9 13  4  0
  9 23  4  0
 10 11  1  0
 11 14  2  0
 11 27  1  0
 12 19  1  0
 12 24  4  0
 13 24  4  0
 15 18  1  0
 16 25  4  0
 16 26  4  0
 17 20  4  0
 17 28  1  0
 18 21  4  0
 21 26  4  0
 22 26  4  0
M  END
$$$$

 Created by Python create_sdf_string function

 28 30  0  0  0  0  0  0  0  0999 V2000
    5.7174   -8.4529   26.7190 C   0  0  0  0  0  0  0  0  0  0  0  0
    0.3974   -7.0711   27.5149 C   0  0  0  0  0  0  0  0  0  0  0  0
    2.5338   -7.6891   16.0102 C   0  0  0  0  0  0  0  0  0  0  0  0
    4.8690   -7.4380   26.4151 C   0  0  0  0  0  0  0  0  0  0  0  0
    2.3021   -5.6726   26.0378 C   0  0  0  0  0  0  0  0  0  0  0  0
    7.0880   -4.6163   27.0010 C   0  0  0  0  0  0  0  0  0  0  0  0
    8.3117   -4.3698   27.4436 C   0  0  0  0  0  0  0  0  0  0  0  0
    1.1339   -5.0515   26.3541 C   0  0  0  0  0  0  0  0  0  0  0  0
    4.8080   -8.0362   16.7101 C   0  0  0  0  0  0  0  0  0  0  0  0
   -1.2173   -3.9294   26.9717 O   0  0  0  0  0  0  0  0  0  0  0  0
   -1.0025   -5.0942   27.4586 C   0  0  0  0  0  0  0  0  0  0  0  0
    2.2474   -8.9123   16.6273 C   0  0  0  0  0  0  0  0  0  0  0  0
    4.4957   -9.2636   17.3041 C   0  0  0  0  0  0  0  0  0  0  0  0
   -1.8070   -5.6086   28.1920 O   0  0  0  0  0  0  0  0  0  0  0  0
   10.4296   -5.1799   28.3140 C   0  0  0  0  0  0  0  0  0  0  0  0
    6.6017   -5.9004   26.9187 C   0  0  0  0  0  0  0  0  0  0  0  0
    2.4761   -6.9940   26.4111 N   0  0  0  0  0  0  0  0  0  0  0  0
    9.1353   -5.4053   27.8239 C   0  0  0  0  0  0  0  0  0  0  0  0
    0.9922   -9.3232   16.5995 O   0  0  0  0  0  0  0  0  0  0  0  0
    1.5232   -7.6869   27.1182 C   0  0  0  0  0  0  0  0  0  0  0  0
    8.6878   -6.6715   27.7262 N   0  0  0  0  0  0  0  0  0  0  0  0
    6.9911   -8.2423   27.1808 C   0  0  0  0  0  0  0  0  0  0  0  0
    3.8436   -7.2758   16.0578 C   0  0  0  0  0  0  0  0  0  0  0  0
    3.1882   -9.7190   17.2566 C   0  0  0  0  0  0  0  0  0  0  0  0
    5.3488   -6.1737   26.5092 C   0  0  0  0  0  0  0  0  0  0  0  0
    7.4567   -6.9464   27.2858 C   0  0  0  0  0  0  0  0  0  0  0  0
    0.1921   -5.7592   27.1123 C   0  0  0  0  0  0  0  0  0  0  0  0
    3.5517   -7.7407   25.9711 C   0  0  0  0  0  0  0  0  0  0  0  0
  1  4  4  0
  1 22  4  0
  2 20  4  0
  2 27  4  0
  3 12  4  0
  3 23  4  0
  4 25  4  0
  4 28  1  0
  5  8  4  0
  5 17  4  0
  6  7  4  0
  6 16  4  0
  7 18  4  0
  8 27  4  0
  9 13  4  0
  9 23  4  0
 10 11  1  0
 11 14  2  0
 11 27  1  0
 12 19  1  0
 12 24  4  0
 13 24  4  0
 15 18  1  0
 16 25  4  0
 16 26  4  0
 17 20  4  0
 17 28  1  0
 18 21  4  0
 21 26  4  0
 22 26  4  0
M  END
$$$$

 Created by Python create_sdf_string function

 28 30  0  0  0  0  0  0  0  0999 V2000
    5.7174   -8.4529   26.7190 C   0  0  0  0  0  0  0  0  0  0  0  0
    0.3974   -7.0711   27.5149 C   0  0  0  0  0  0  0  0  0  0  0  0
    2.5338   -7.6891   16.0102 C   0  0  0  0  0  0  0  0  0  0  0  0
    4.8690   -7.4380   26.4151 C   0  0  0  0  0  0  0  0  0  0  0  0
    2.3021   -5.6726   26.0378 C   0  0  0  0  0  0  0  0  0  0  0  0
    7.0880   -4.6163   27.0010 C   0  0  0  0  0  0  0  0  0  0  0  0
    8.3117   -4.3698   27.4436 C   0  0  0  0  0  0  0  0  0  0  0  0
    1.1339   -5.0515   26.3541 C   0  0  0  0  0  0  0  0  0  0  0  0
    4.8080   -8.0362   16.7101 C   0  0  0  0  0  0  0  0  0  0  0  0
   -1.2173   -3.9294   26.9717 O   0  0  0  0  0  0  0  0  0  0  0  0
   -1.0025   -5.0942   27.4586 C   0  0  0  0  0  0  0  0  0  0  0  0
    2.2474   -8.9123   16.6273 C   0  0  0  0  0  0  0  0  0  0  0  0
    4.4957   -9.2636   17.3041 C   0  0  0  0  0  0  0  0  0  0  0  0
   -1.8070   -5.6086   28.1920 O   0  0  0  0  0  0  0  0  0  0  0  0
   10.4296   -5.1799   28.3140 C   0  0  0  0  0  0  0  0  0  0  0  0
    6.6017   -5.9004   26.9187 C   0  0  0  0  0  0  0  0  0  0  0  0
    2.4761   -6.9940   26.4111 N   0  0  0  0  0  0  0  0  0  0  0  0
    9.1353   -5.4053   27.8239 C   0  0  0  0  0  0  0  0  0  0  0  0
    0.9922   -9.3232   16.5995 O   0  0  0  0  0  0  0  0  0  0  0  0
    1.5232   -7.6869   27.1182 C   0  0  0  0  0  0  0  0  0  0  0  0
    8.6878   -6.6715   27.7262 N   0  0  0  0  0  0  0  0  0  0  0  0
    6.9911   -8.2423   27.1808 C   0  0  0  0  0  0  0  0  0  0  0  0
    3.8436   -7.2758   16.0578 C   0  0  0  0  0  0  0  0  0  0  0  0
    3.1882   -9.7190   17.2566 C   0  0  0  0  0  0  0  0  0  0  0  0
    5.3488   -6.1737   26.5092 C   0  0  0  0  0  0  0  0  0  0  0  0
    7.4567   -6.9464   27.2858 C   0  0  0  0  0  0  0  0  0  0  0  0
    0.1921   -5.7592   27.1123 C   0  0  0  0  0  0  0  0  0  0  0  0
    3.5517   -7.7407   25.9711 C   0  0  0  0  0  0  0  0  0  0  0  0
  1  4  4  0
  1 22  4  0
  2 20  4  0
  2 27  4  0
  3 12  4  0
  3 23  4  0
  4 25  4  0
  4 28  1  0
  5  8  4  0
  5 17  4  0
  6  7  4  0
  6 16  4  0
  7 18  4  0
  8 27  4  0
  9 13  4  0
  9 23  4  0
 10 11  1  0
 11 14  2  0
 11 27  1  0
 12 19  1  0
 12 24  4  0
 13 24  4  0
 15 18  1  0
 16 25  4  0
 16 26  4  0
 17 20  4  0
 17 28  1  0
 18 21  4  0
 21 26  4  0
 22 26  4  0
M  END
$$$$

 Created by Python create_sdf_string function

 28 30  0  0  0  0  0  0  0  0999 V2000
    5.7174   -8.4529   26.7190 C   0  0  0  0  0  0  0  0  0  0  0  0
    0.3974   -7.0711   27.5149 C   0  0  0  0  0  0  0  0  0  0  0  0
    2.5338   -7.6891   16.0102 C   0  0  0  0  0  0  0  0  0  0  0  0
    4.8690   -7.4380   26.4151 C   0  0  0  0  0  0  0  0  0  0  0  0
    2.3021   -5.6726   26.0378 C   0  0  0  0  0  0  0  0  0  0  0  0
    7.0880   -4.6163   27.0010 C   0  0  0  0  0  0  0  0  0  0  0  0
    8.3117   -4.3698   27.4436 C   0  0  0  0  0  0  0  0  0  0  0  0
    1.1339   -5.0515   26.3541 C   0  0  0  0  0  0  0  0  0  0  0  0
    4.8080   -8.0362   16.7101 C   0  0  0  0  0  0  0  0  0  0  0  0
   -1.2173   -3.9294   26.9717 O   0  0  0  0  0  0  0  0  0  0  0  0
   -1.0025   -5.0942   27.4586 C   0  0  0  0  0  0  0  0  0  0  0  0
    2.2474   -8.9123   16.6273 C   0  0  0  0  0  0  0  0  0  0  0  0
    4.4957   -9.2636   17.3041 C   0  0  0  0  0  0  0  0  0  0  0  0
   -1.8070   -5.6086   28.1920 O   0  0  0  0  0  0  0  0  0  0  0  0
   10.4296   -5.1799   28.3140 C   0  0  0  0  0  0  0  0  0  0  0  0
    6.6017   -5.9004   26.9187 C   0  0  0  0  0  0  0  0  0  0  0  0
    2.4761   -6.9940   26.4111 N   0  0  0  0  0  0  0  0  0  0  0  0
    9.1353   -5.4053   27.8239 C   0  0  0  0  0  0  0  0  0  0  0  0
    0.9922   -9.3232   16.5995 O   0  0  0  0  0  0  0  0  0  0  0  0
    1.5232   -7.6869   27.1182 C   0  0  0  0  0  0  0  0  0  0  0  0
    8.6878   -6.6715   27.7262 N   0  0  0  0  0  0  0  0  0  0  0  0
    6.9911   -8.2423   27.1808 C   0  0  0  0  0  0  0  0  0  0  0  0
    3.8436   -7.2758   16.0578 C   0  0  0  0  0  0  0  0  0  0  0  0
    3.1882   -9.7190   17.2566 C   0  0  0  0  0  0  0  0  0  0  0  0
    5.3488   -6.1737   26.5092 C   0  0  0  0  0  0  0  0  0  0  0  0
    7.4567   -6.9464   27.2858 C   0  0  0  0  0  0  0  0  0  0  0  0
    0.1921   -5.7592   27.1123 C   0  0  0  0  0  0  0  0  0  0  0  0
    3.5517   -7.7407   25.9711 C   0  0  0  0  0  0  0  0  0  0  0  0
  1  4  4  0
  1 22  4  0
  2 20  4  0
  2 27  4  0
  3 12  4  0
  3 23  4  0
  4 25  4  0
  4 28  1  0
  5  8  4  0
  5 17  4  0
  6  7  4  0
  6 16  4  0
  7 18  4  0
  8 27  4  0
  9 13  4  0
  9 23  4  0
 10 11  1  0
 11 14  2  0
 11 27  1  0
 12 19  1  0
 12 24  4  0
 13 24  4  0
 15 18  1  0
 16 25  4  0
 16 26  4  0
 17 20  4  0
 17 28  1  0
 18 21  4  0
 21 26  4  0
 22 26  4  0
M  END
$$$$

 Created by Python create_sdf_string function

 28 30  0  0  0  0  0  0  0  0999 V2000
    5.7174   -8.4529   26.7190 C   0  0  0  0  0  0  0  0  0  0  0  0
    0.3974   -7.0711   27.5149 C   0  0  0  0  0  0  0  0  0  0  0  0
    2.5338   -7.6891   16.0102 C   0  0  0  0  0  0  0  0  0  0  0  0
    4.8690   -7.4380   26.4151 C   0  0  0  0  0  0  0  0  0  0  0  0
    2.3021   -5.6726   26.0378 C   0  0  0  0  0  0  0  0  0  0  0  0
    7.0880   -4.6163   27.0010 C   0  0  0  0  0  0  0  0  0  0  0  0
    8.3117   -4.3698   27.4436 C   0  0  0  0  0  0  0  0  0  0  0  0
    1.1339   -5.0515   26.3541 C   0  0  0  0  0  0  0  0  0  0  0  0
    4.8080   -8.0362   16.7101 C   0  0  0  0  0  0  0  0  0  0  0  0
   -1.2173   -3.9294   26.9717 O   0  0  0  0  0  0  0  0  0  0  0  0
   -1.0025   -5.0942   27.4586 C   0  0  0  0  0  0  0  0  0  0  0  0
    2.2474   -8.9123   16.6273 C   0  0  0  0  0  0  0  0  0  0  0  0
    4.4957   -9.2636   17.3041 C   0  0  0  0  0  0  0  0  0  0  0  0
   -1.8070   -5.6086   28.1920 O   0  0  0  0  0  0  0  0  0  0  0  0
   10.4296   -5.1799   28.3140 C   0  0  0  0  0  0  0  0  0  0  0  0
    6.6017   -5.9004   26.9187 C   0  0  0  0  0  0  0  0  0  0  0  0
    2.4761   -6.9940   26.4111 N   0  0  0  0  0  0  0  0  0  0  0  0
    9.1353   -5.4053   27.8239 C   0  0  0  0  0  0  0  0  0  0  0  0
    0.9922   -9.3232   16.5995 O   0  0  0  0  0  0  0  0  0  0  0  0
    1.5232   -7.6869   27.1182 C   0  0  0  0  0  0  0  0  0  0  0  0
    8.6878   -6.6715   27.7262 N   0  0  0  0  0  0  0  0  0  0  0  0
    6.9911   -8.2423   27.1808 C   0  0  0  0  0  0  0  0  0  0  0  0
    3.8436   -7.2758   16.0578 C   0  0  0  0  0  0  0  0  0  0  0  0
    3.1882   -9.7190   17.2566 C   0  0  0  0  0  0  0  0  0  0  0  0
    5.3488   -6.1737   26.5092 C   0  0  0  0  0  0  0  0  0  0  0  0
    7.4567   -6.9464   27.2858 C   0  0  0  0  0  0  0  0  0  0  0  0
    0.1921   -5.7592   27.1123 C   0  0  0  0  0  0  0  0  0  0  0  0
    3.5517   -7.7407   25.9711 C   0  0  0  0  0  0  0  0  0  0  0  0
  1  4  4  0
  1 22  4  0
  2 20  4  0
  2 27  4  0
  3 12  4  0
  3 23  4  0
  4 25  4  0
  4 28  1  0
  5  8  4  0
  5 17  4  0
  6  7  4  0
  6 16  4  0
  7 18  4  0
  8 27  4  0
  9 13  4  0
  9 23  4  0
 10 11  1  0
 11 14  2  0
 11 27  1  0
 12 19  1  0
 12 24  4  0
 13 24  4  0
 15 18  1  0
 16 25  4  0
 16 26  4  0
 17 20  4  0
 17 28  1  0
 18 21  4  0
 21 26  4  0
 22 26  4  0
M  END
$$$$

 Created by Python create_sdf_string function

 28 30  0  0  0  0  0  0  0  0999 V2000
    5.7174   -8.4529   26.7190 C   0  0  0  0  0  0  0  0  0  0  0  0
    0.3974   -7.0711   27.5149 C   0  0  0  0  0  0  0  0  0  0  0  0
    2.5338   -7.6891   16.0102 C   0  0  0  0  0  0  0  0  0  0  0  0
    4.8690   -7.4380   26.4151 C   0  0  0  0  0  0  0  0  0  0  0  0
    2.3021   -5.6726   26.0378 C   0  0  0  0  0  0  0  0  0  0  0  0
    7.0880   -4.6163   27.0010 C   0  0  0  0  0  0  0  0  0  0  0  0
    8.3117   -4.3698   27.4436 C   0  0  0  0  0  0  0  0  0  0  0  0
    1.1339   -5.0515   26.3541 C   0  0  0  0  0  0  0  0  0  0  0  0
    4.8080   -8.0362   16.7101 C   0  0  0  0  0  0  0  0  0  0  0  0
   -1.2173   -3.9294   26.9717 O   0  0  0  0  0  0  0  0  0  0  0  0
   -1.0025   -5.0942   27.4586 C   0  0  0  0  0  0  0  0  0  0  0  0
    2.2474   -8.9123   16.6273 C   0  0  0  0  0  0  0  0  0  0  0  0
    4.4957   -9.2636   17.3041 C   0  0  0  0  0  0  0  0  0  0  0  0
   -1.8070   -5.6086   28.1920 O   0  0  0  0  0  0  0  0  0  0  0  0
   10.4296   -5.1799   28.3140 C   0  0  0  0  0  0  0  0  0  0  0  0
    6.6017   -5.9004   26.9187 C   0  0  0  0  0  0  0  0  0  0  0  0
    2.4761   -6.9940   26.4111 N   0  0  0  0  0  0  0  0  0  0  0  0
    9.1353   -5.4053   27.8239 C   0  0  0  0  0  0  0  0  0  0  0  0
    0.9922   -9.3232   16.5995 O   0  0  0  0  0  0  0  0  0  0  0  0
    1.5232   -7.6869   27.1182 C   0  0  0  0  0  0  0  0  0  0  0  0
    8.6878   -6.6715   27.7262 N   0  0  0  0  0  0  0  0  0  0  0  0
    6.9911   -8.2423   27.1808 C   0  0  0  0  0  0  0  0  0  0  0  0
    3.8436   -7.2758   16.0578 C   0  0  0  0  0  0  0  0  0  0  0  0
    3.1882   -9.7190   17.2566 C   0  0  0  0  0  0  0  0  0  0  0  0
    5.3488   -6.1737   26.5092 C   0  0  0  0  0  0  0  0  0  0  0  0
    7.4567   -6.9464   27.2858 C   0  0  0  0  0  0  0  0  0  0  0  0
    0.1921   -5.7592   27.1123 C   0  0  0  0  0  0  0  0  0  0  0  0
    3.5517   -7.7407   25.9711 C   0  0  0  0  0  0  0  0  0  0  0  0
  1  4  4  0
  1 22  4  0
  2 20  4  0
  2 27  4  0
  3 12  4  0
  3 23  4  0
  4 25  4  0
  4 28  1  0
  5  8  4  0
  5 17  4  0
  6  7  4  0
  6 16  4  0
  7 18  4  0
  8 27  4  0
  9 13  4  0
  9 23  4  0
 10 11  1  0
 11 14  2  0
 11 27  1  0
 12 19  1  0
 12 24  4  0
 13 24  4  0
 15 18  1  0
 16 25  4  0
 16 26  4  0
 17 20  4  0
 17 28  1  0
 18 21  4  0
 21 26  4  0
 22 26  4  0
M  END
$$$$

 Created by Python create_sdf_string function

 28 30  0  0  0  0  0  0  0  0999 V2000
    5.7174   -8.4529   26.7190 C   0  0  0  0  0  0  0  0  0  0  0  0
    0.3974   -7.0711   27.5149 C   0  0  0  0  0  0  0  0  0  0  0  0
    2.5338   -7.6891   16.0102 C   0  0  0  0  0  0  0  0  0  0  0  0
    4.8690   -7.4380   26.4151 C   0  0  0  0  0  0  0  0  0  0  0  0
    2.3021   -5.6726   26.0378 C   0  0  0  0  0  0  0  0  0  0  0  0
    7.0880   -4.6163   27.0010 C   0  0  0  0  0  0  0  0  0  0  0  0
    8.3117   -4.3698   27.4436 C   0  0  0  0  0  0  0  0  0  0  0  0
    1.1339   -5.0515   26.3541 C   0  0  0  0  0  0  0  0  0  0  0  0
    4.8080   -8.0362   16.7101 C   0  0  0  0  0  0  0  0  0  0  0  0
   -1.2173   -3.9294   26.9717 O   0  0  0  0  0  0  0  0  0  0  0  0
   -1.0025   -5.0942   27.4586 C   0  0  0  0  0  0  0  0  0  0  0  0
    2.2474   -8.9123   16.6273 C   0  0  0  0  0  0  0  0  0  0  0  0
    4.4957   -9.2636   17.3041 C   0  0  0  0  0  0  0  0  0  0  0  0
   -1.8070   -5.6086   28.1920 O   0  0  0  0  0  0  0  0  0  0  0  0
   10.4296   -5.1799   28.3140 C   0  0  0  0  0  0  0  0  0  0  0  0
    6.6017   -5.9004   26.9187 C   0  0  0  0  0  0  0  0  0  0  0  0
    2.4761   -6.9940   26.4111 N   0  0  0  0  0  0  0  0  0  0  0  0
    9.1353   -5.4053   27.8239 C   0  0  0  0  0  0  0  0  0  0  0  0
    0.9922   -9.3232   16.5995 O   0  0  0  0  0  0  0  0  0  0  0  0
    1.5232   -7.6869   27.1182 C   0  0  0  0  0  0  0  0  0  0  0  0
    8.6878   -6.6715   27.7262 N   0  0  0  0  0  0  0  0  0  0  0  0
    6.9911   -8.2423   27.1808 C   0  0  0  0  0  0  0  0  0  0  0  0
    3.8436   -7.2758   16.0578 C   0  0  0  0  0  0  0  0  0  0  0  0
    3.1882   -9.7190   17.2566 C   0  0  0  0  0  0  0  0  0  0  0  0
    5.3488   -6.1737   26.5092 C   0  0  0  0  0  0  0  0  0  0  0  0
    7.4567   -6.9464   27.2858 C   0  0  0  0  0  0  0  0  0  0  0  0
    0.1921   -5.7592   27.1123 C   0  0  0  0  0  0  0  0  0  0  0  0
    3.5517   -7.7407   25.9711 C   0  0  0  0  0  0  0  0  0  0  0  0
  1  4  4  0
  1 22  4  0
  2 20  4  0
  2 27  4  0
  3 12  4  0
  3 23  4  0
  4 25  4  0
  4 28  1  0
  5  8  4  0
  5 17  4  0
  6  7  4  0
  6 16  4  0
  7 18  4  0
  8 27  4  0
  9 13  4  0
  9 23  4  0
 10 11  1  0
 11 14  2  0
 11 27  1  0
 12 19  1  0
 12 24  4  0
 13 24  4  0
 15 18  1  0
 16 25  4  0
 16 26  4  0
 17 20  4  0
 17 28  1  0
 18 21  4  0
 21 26  4  0
 22 26  4  0
M  END
$$$$

 Created by Python create_sdf_string function

 28 30  0  0  0  0  0  0  0  0999 V2000
    5.7174   -8.4529   26.7190 C   0  0  0  0  0  0  0  0  0  0  0  0
    0.3974   -7.0711   27.5149 C   0  0  0  0  0  0  0  0  0  0  0  0
    2.5338   -7.6891   16.0102 C   0  0  0  0  0  0  0  0  0  0  0  0
    4.8690   -7.4380   26.4151 C   0  0  0  0  0  0  0  0  0  0  0  0
    2.3021   -5.6726   26.0378 C   0  0  0  0  0  0  0  0  0  0  0  0
    7.0880   -4.6163   27.0010 C   0  0  0  0  0  0  0  0  0  0  0  0
    8.3117   -4.3698   27.4436 C   0  0  0  0  0  0  0  0  0  0  0  0
    1.1339   -5.0515   26.3541 C   0  0  0  0  0  0  0  0  0  0  0  0
    4.8080   -8.0362   16.7101 C   0  0  0  0  0  0  0  0  0  0  0  0
   -1.2173   -3.9294   26.9717 O   0  0  0  0  0  0  0  0  0  0  0  0
   -1.0025   -5.0942   27.4586 C   0  0  0  0  0  0  0  0  0  0  0  0
    2.2474   -8.9123   16.6273 C   0  0  0  0  0  0  0  0  0  0  0  0
    4.4957   -9.2636   17.3041 C   0  0  0  0  0  0  0  0  0  0  0  0
   -1.8070   -5.6086   28.1920 O   0  0  0  0  0  0  0  0  0  0  0  0
   10.4296   -5.1799   28.3140 C   0  0  0  0  0  0  0  0  0  0  0  0
    6.6017   -5.9004   26.9187 C   0  0  0  0  0  0  0  0  0  0  0  0
    2.4761   -6.9940   26.4111 N   0  0  0  0  0  0  0  0  0  0  0  0
    9.1353   -5.4053   27.8239 C   0  0  0  0  0  0  0  0  0  0  0  0
    0.9922   -9.3232   16.5995 O   0  0  0  0  0  0  0  0  0  0  0  0
    1.5232   -7.6869   27.1182 C   0  0  0  0  0  0  0  0  0  0  0  0
    8.6878   -6.6715   27.7262 N   0  0  0  0  0  0  0  0  0  0  0  0
    6.9911   -8.2423   27.1808 C   0  0  0  0  0  0  0  0  0  0  0  0
    3.8436   -7.2758   16.0578 C   0  0  0  0  0  0  0  0  0  0  0  0
    3.1882   -9.7190   17.2566 C   0  0  0  0  0  0  0  0  0  0  0  0
    5.3488   -6.1737   26.5092 C   0  0  0  0  0  0  0  0  0  0  0  0
    7.4567   -6.9464   27.2858 C   0  0  0  0  0  0  0  0  0  0  0  0
    0.1921   -5.7592   27.1123 C   0  0  0  0  0  0  0  0  0  0  0  0
    3.5517   -7.7407   25.9711 C   0  0  0  0  0  0  0  0  0  0  0  0
  1  4  4  0
  1 22  4  0
  2 20  4  0
  2 27  4  0
  3 12  4  0
  3 23  4  0
  4 25  4  0
  4 28  1  0
  5  8  4  0
  5 17  4  0
  6  7  4  0
  6 16  4  0
  7 18  4  0
  8 27  4  0
  9 13  4  0
  9 23  4  0
 10 11  1  0
 11 14  2  0
 11 27  1  0
 12 19  1  0
 12 24  4  0
 13 24  4  0
 15 18  1  0
 16 25  4  0
 16 26  4  0
 17 20  4  0
 17 28  1  0
 18 21  4  0
 21 26  4  0
 22 26  4  0
M  END
$$$$

 Created by Python create_sdf_string function

 28 30  0  0  0  0  0  0  0  0999 V2000
    5.7174   -8.4529   26.7190 C   0  0  0  0  0  0  0  0  0  0  0  0
    0.3974   -7.0711   27.5149 C   0  0  0  0  0  0  0  0  0  0  0  0
    2.5338   -7.6891   16.0102 C   0  0  0  0  0  0  0  0  0  0  0  0
    4.8690   -7.4380   26.4151 C   0  0  0  0  0  0  0  0  0  0  0  0
    2.3021   -5.6726   26.0378 C   0  0  0  0  0  0  0  0  0  0  0  0
    7.0880   -4.6163   27.0010 C   0  0  0  0  0  0  0  0  0  0  0  0
    8.3117   -4.3698   27.4436 C   0  0  0  0  0  0  0  0  0  0  0  0
    1.1339   -5.0515   26.3541 C   0  0  0  0  0  0  0  0  0  0  0  0
    4.8080   -8.0362   16.7101 C   0  0  0  0  0  0  0  0  0  0  0  0
   -1.2173   -3.9294   26.9717 O   0  0  0  0  0  0  0  0  0  0  0  0
   -1.0025   -5.0942   27.4586 C   0  0  0  0  0  0  0  0  0  0  0  0
    2.2474   -8.9123   16.6273 C   0  0  0  0  0  0  0  0  0  0  0  0
    4.4957   -9.2636   17.3041 C   0  0  0  0  0  0  0  0  0  0  0  0
   -1.8070   -5.6086   28.1920 O   0  0  0  0  0  0  0  0  0  0  0  0
   10.4296   -5.1799   28.3140 C   0  0  0  0  0  0  0  0  0  0  0  0
    6.6017   -5.9004   26.9187 C   0  0  0  0  0  0  0  0  0  0  0  0
    2.4761   -6.9940   26.4111 N   0  0  0  0  0  0  0  0  0  0  0  0
    9.1353   -5.4053   27.8239 C   0  0  0  0  0  0  0  0  0  0  0  0
    0.9922   -9.3232   16.5995 O   0  0  0  0  0  0  0  0  0  0  0  0
    1.5232   -7.6869   27.1182 C   0  0  0  0  0  0  0  0  0  0  0  0
    8.6878   -6.6715   27.7262 N   0  0  0  0  0  0  0  0  0  0  0  0
    6.9911   -8.2423   27.1808 C   0  0  0  0  0  0  0  0  0  0  0  0
    3.8436   -7.2758   16.0578 C   0  0  0  0  0  0  0  0  0  0  0  0
    3.1882   -9.7190   17.2566 C   0  0  0  0  0  0  0  0  0  0  0  0
    5.3488   -6.1737   26.5092 C   0  0  0  0  0  0  0  0  0  0  0  0
    7.4567   -6.9464   27.2858 C   0  0  0  0  0  0  0  0  0  0  0  0
    0.1921   -5.7592   27.1123 C   0  0  0  0  0  0  0  0  0  0  0  0
    3.5517   -7.7407   25.9711 C   0  0  0  0  0  0  0  0  0  0  0  0
  1  4  4  0
  1 22  4  0
  2 20  4  0
  2 27  4  0
  3 12  4  0
  3 23  4  0
  4 25  4  0
  4 28  1  0
  5  8  4  0
  5 17  4  0
  6  7  4  0
  6 16  4  0
  7 18  4  0
  8 27  4  0
  9 13  4  0
  9 23  4  0
 10 11  1  0
 11 14  2  0
 11 27  1  0
 12 19  1  0
 12 24  4  0
 13 24  4  0
 15 18  1  0
 16 25  4  0
 16 26  4  0
 17 20  4  0
 17 28  1  0
 18 21  4  0
 21 26  4  0
 22 26  4  0
M  END
$$$$

 Created by Python create_sdf_string function

 28 30  0  0  0  0  0  0  0  0999 V2000
    5.7174   -8.4529   26.7190 C   0  0  0  0  0  0  0  0  0  0  0  0
    0.3974   -7.0711   27.5149 C   0  0  0  0  0  0  0  0  0  0  0  0
    2.5338   -7.6891   16.0102 C   0  0  0  0  0  0  0  0  0  0  0  0
    4.8690   -7.4380   26.4151 C   0  0  0  0  0  0  0  0  0  0  0  0
    2.3021   -5.6726   26.0378 C   0  0  0  0  0  0  0  0  0  0  0  0
    7.0880   -4.6163   27.0010 C   0  0  0  0  0  0  0  0  0  0  0  0
    8.3117   -4.3698   27.4436 C   0  0  0  0  0  0  0  0  0  0  0  0
    1.1339   -5.0515   26.3541 C   0  0  0  0  0  0  0  0  0  0  0  0
    4.8080   -8.0362   16.7101 C   0  0  0  0  0  0  0  0  0  0  0  0
   -1.2173   -3.9294   26.9717 O   0  0  0  0  0  0  0  0  0  0  0  0
   -1.0025   -5.0942   27.4586 C   0  0  0  0  0  0  0  0  0  0  0  0
    2.2474   -8.9123   16.6273 C   0  0  0  0  0  0  0  0  0  0  0  0
    4.4957   -9.2636   17.3041 C   0  0  0  0  0  0  0  0  0  0  0  0
   -1.8070   -5.6086   28.1920 O   0  0  0  0  0  0  0  0  0  0  0  0
   10.4296   -5.1799   28.3140 C   0  0  0  0  0  0  0  0  0  0  0  0
    6.6017   -5.9004   26.9187 C   0  0  0  0  0  0  0  0  0  0  0  0
    2.4761   -6.9940   26.4111 N   0  0  0  0  0  0  0  0  0  0  0  0
    9.1353   -5.4053   27.8239 C   0  0  0  0  0  0  0  0  0  0  0  0
    0.9922   -9.3232   16.5995 O   0  0  0  0  0  0  0  0  0  0  0  0
    1.5232   -7.6869   27.1182 C   0  0  0  0  0  0  0  0  0  0  0  0
    8.6878   -6.6715   27.7262 N   0  0  0  0  0  0  0  0  0  0  0  0
    6.9911   -8.2423   27.1808 C   0  0  0  0  0  0  0  0  0  0  0  0
    3.8436   -7.2758   16.0578 C   0  0  0  0  0  0  0  0  0  0  0  0
    3.1882   -9.7190   17.2566 C   0  0  0  0  0  0  0  0  0  0  0  0
    5.3488   -6.1737   26.5092 C   0  0  0  0  0  0  0  0  0  0  0  0
    7.4567   -6.9464   27.2858 C   0  0  0  0  0  0  0  0  0  0  0  0
    0.1921   -5.7592   27.1123 C   0  0  0  0  0  0  0  0  0  0  0  0
    3.5517   -7.7407   25.9711 C   0  0  0  0  0  0  0  0  0  0  0  0
  1  4  4  0
  1 22  4  0
  2 20  4  0
  2 27  4  0
  3 12  4  0
  3 23  4  0
  4 25  4  0
  4 28  1  0
  5  8  4  0
  5 17  4  0
  6  7  4  0
  6 16  4  0
  7 18  4  0
  8 27  4  0
  9 13  4  0
  9 23  4  0
 10 11  1  0
 11 14  2  0
 11 27  1  0
 12 19  1  0
 12 24  4  0
 13 24  4  0
 15 18  1  0
 16 25  4  0
 16 26  4  0
 17 20  4  0
 17 28  1  0
 18 21  4  0
 21 26  4  0
 22 26  4  0
M  END
$$$$

 Created by Python create_sdf_string function

 28 30  0  0  0  0  0  0  0  0999 V2000
    5.7174   -8.4529   26.7190 C   0  0  0  0  0  0  0  0  0  0  0  0
    0.3974   -7.0711   27.5149 C   0  0  0  0  0  0  0  0  0  0  0  0
    2.5338   -7.6891   16.0102 C   0  0  0  0  0  0  0  0  0  0  0  0
    4.8690   -7.4380   26.4151 C   0  0  0  0  0  0  0  0  0  0  0  0
    2.3021   -5.6726   26.0378 C   0  0  0  0  0  0  0  0  0  0  0  0
    7.0880   -4.6163   27.0010 C   0  0  0  0  0  0  0  0  0  0  0  0
    8.3117   -4.3698   27.4436 C   0  0  0  0  0  0  0  0  0  0  0  0
    1.1339   -5.0515   26.3541 C   0  0  0  0  0  0  0  0  0  0  0  0
    4.8080   -8.0362   16.7101 C   0  0  0  0  0  0  0  0  0  0  0  0
   -1.2173   -3.9294   26.9717 O   0  0  0  0  0  0  0  0  0  0  0  0
   -1.0025   -5.0942   27.4586 C   0  0  0  0  0  0  0  0  0  0  0  0
    2.2474   -8.9123   16.6273 C   0  0  0  0  0  0  0  0  0  0  0  0
    4.4957   -9.2636   17.3041 C   0  0  0  0  0  0  0  0  0  0  0  0
   -1.8070   -5.6086   28.1920 O   0  0  0  0  0  0  0  0  0  0  0  0
   10.4296   -5.1799   28.3140 C   0  0  0  0  0  0  0  0  0  0  0  0
    6.6017   -5.9004   26.9187 C   0  0  0  0  0  0  0  0  0  0  0  0
    2.4761   -6.9940   26.4111 N   0  0  0  0  0  0  0  0  0  0  0  0
    9.1353   -5.4053   27.8239 C   0  0  0  0  0  0  0  0  0  0  0  0
    0.9922   -9.3232   16.5995 O   0  0  0  0  0  0  0  0  0  0  0  0
    1.5232   -7.6869   27.1182 C   0  0  0  0  0  0  0  0  0  0  0  0
    8.6878   -6.6715   27.7262 N   0  0  0  0  0  0  0  0  0  0  0  0
    6.9911   -8.2423   27.1808 C   0  0  0  0  0  0  0  0  0  0  0  0
    3.8436   -7.2758   16.0578 C   0  0  0  0  0  0  0  0  0  0  0  0
    3.1882   -9.7190   17.2566 C   0  0  0  0  0  0  0  0  0  0  0  0
    5.3488   -6.1737   26.5092 C   0  0  0  0  0  0  0  0  0  0  0  0
    7.4567   -6.9464   27.2858 C   0  0  0  0  0  0  0  0  0  0  0  0
    0.1921   -5.7592   27.1123 C   0  0  0  0  0  0  0  0  0  0  0  0
    3.5517   -7.7407   25.9711 C   0  0  0  0  0  0  0  0  0  0  0  0
  1  4  4  0
  1 22  4  0
  2 20  4  0
  2 27  4  0
  3 12  4  0
  3 23  4  0
  4 25  4  0
  4 28  1  0
  5  8  4  0
  5 17  4  0
  6  7  4  0
  6 16  4  0
  7 18  4  0
  8 27  4  0
  9 13  4  0
  9 23  4  0
 10 11  1  0
 11 14  2  0
 11 27  1  0
 12 19  1  0
 12 24  4  0
 13 24  4  0
 15 18  1  0
 16 25  4  0
 16 26  4  0
 17 20  4  0
 17 28  1  0
 18 21  4  0
 21 26  4  0
 22 26  4  0
M  END
$$$$

 Created by Python create_sdf_string function

 28 30  0  0  0  0  0  0  0  0999 V2000
    5.7174   -8.4529   26.7190 C   0  0  0  0  0  0  0  0  0  0  0  0
    0.3974   -7.0711   27.5149 C   0  0  0  0  0  0  0  0  0  0  0  0
    2.5338   -7.6891   16.0102 C   0  0  0  0  0  0  0  0  0  0  0  0
    4.8690   -7.4380   26.4151 C   0  0  0  0  0  0  0  0  0  0  0  0
    2.3021   -5.6726   26.0378 C   0  0  0  0  0  0  0  0  0  0  0  0
    7.0880   -4.6163   27.0010 C   0  0  0  0  0  0  0  0  0  0  0  0
    8.3117   -4.3698   27.4436 C   0  0  0  0  0  0  0  0  0  0  0  0
    1.1339   -5.0515   26.3541 C   0  0  0  0  0  0  0  0  0  0  0  0
    4.8080   -8.0362   16.7101 C   0  0  0  0  0  0  0  0  0  0  0  0
   -1.2173   -3.9294   26.9717 O   0  0  0  0  0  0  0  0  0  0  0  0
   -1.0025   -5.0942   27.4586 C   0  0  0  0  0  0  0  0  0  0  0  0
    2.2474   -8.9123   16.6273 C   0  0  0  0  0  0  0  0  0  0  0  0
    4.4957   -9.2636   17.3041 C   0  0  0  0  0  0  0  0  0  0  0  0
   -1.8070   -5.6086   28.1920 O   0  0  0  0  0  0  0  0  0  0  0  0
   10.4296   -5.1799   28.3140 C   0  0  0  0  0  0  0  0  0  0  0  0
    6.6017   -5.9004   26.9187 C   0  0  0  0  0  0  0  0  0  0  0  0
    2.4761   -6.9940   26.4111 N   0  0  0  0  0  0  0  0  0  0  0  0
    9.1353   -5.4053   27.8239 C   0  0  0  0  0  0  0  0  0  0  0  0
    0.9922   -9.3232   16.5995 O   0  0  0  0  0  0  0  0  0  0  0  0
    1.5232   -7.6869   27.1182 C   0  0  0  0  0  0  0  0  0  0  0  0
    8.6878   -6.6715   27.7262 N   0  0  0  0  0  0  0  0  0  0  0  0
    6.9911   -8.2423   27.1808 C   0  0  0  0  0  0  0  0  0  0  0  0
    3.8436   -7.2758   16.0578 C   0  0  0  0  0  0  0  0  0  0  0  0
    3.1882   -9.7190   17.2566 C   0  0  0  0  0  0  0  0  0  0  0  0
    5.3488   -6.1737   26.5092 C   0  0  0  0  0  0  0  0  0  0  0  0
    7.4567   -6.9464   27.2858 C   0  0  0  0  0  0  0  0  0  0  0  0
    0.1921   -5.7592   27.1123 C   0  0  0  0  0  0  0  0  0  0  0  0
    3.5517   -7.7407   25.9711 C   0  0  0  0  0  0  0  0  0  0  0  0
  1  4  4  0
  1 22  4  0
  2 20  4  0
  2 27  4  0
  3 12  4  0
  3 23  4  0
  4 25  4  0
  4 28  1  0
  5  8  4  0
  5 17  4  0
  6  7  4  0
  6 16  4  0
  7 18  4  0
  8 27  4  0
  9 13  4  0
  9 23  4  0
 10 11  1  0
 11 14  2  0
 11 27  1  0
 12 19  1  0
 12 24  4  0
 13 24  4  0
 15 18  1  0
 16 25  4  0
 16 26  4  0
 17 20  4  0
 17 28  1  0
 18 21  4  0
 21 26  4  0
 22 26  4  0
M  END
$$$$

 Created by Python create_sdf_string function

 28 30  0  0  0  0  0  0  0  0999 V2000
    5.7174   -8.4529   26.7190 C   0  0  0  0  0  0  0  0  0  0  0  0
    0.3974   -7.0711   27.5149 C   0  0  0  0  0  0  0  0  0  0  0  0
    2.5338   -7.6891   16.0102 C   0  0  0  0  0  0  0  0  0  0  0  0
    4.8690   -7.4380   26.4151 C   0  0  0  0  0  0  0  0  0  0  0  0
    2.3021   -5.6726   26.0378 C   0  0  0  0  0  0  0  0  0  0  0  0
    7.0880   -4.6163   27.0010 C   0  0  0  0  0  0  0  0  0  0  0  0
    8.3117   -4.3698   27.4436 C   0  0  0  0  0  0  0  0  0  0  0  0
    1.1339   -5.0515   26.3541 C   0  0  0  0  0  0  0  0  0  0  0  0
    4.8080   -8.0362   16.7101 C   0  0  0  0  0  0  0  0  0  0  0  0
   -1.2173   -3.9294   26.9717 O   0  0  0  0  0  0  0  0  0  0  0  0
   -1.0025   -5.0942   27.4586 C   0  0  0  0  0  0  0  0  0  0  0  0
    2.2474   -8.9123   16.6273 C   0  0  0  0  0  0  0  0  0  0  0  0
    4.4957   -9.2636   17.3041 C   0  0  0  0  0  0  0  0  0  0  0  0
   -1.8070   -5.6086   28.1920 O   0  0  0  0  0  0  0  0  0  0  0  0
   10.4296   -5.1799   28.3140 C   0  0  0  0  0  0  0  0  0  0  0  0
    6.6017   -5.9004   26.9187 C   0  0  0  0  0  0  0  0  0  0  0  0
    2.4761   -6.9940   26.4111 N   0  0  0  0  0  0  0  0  0  0  0  0
    9.1353   -5.4053   27.8239 C   0  0  0  0  0  0  0  0  0  0  0  0
    0.9922   -9.3232   16.5995 O   0  0  0  0  0  0  0  0  0  0  0  0
    1.5232   -7.6869   27.1182 C   0  0  0  0  0  0  0  0  0  0  0  0
    8.6878   -6.6715   27.7262 N   0  0  0  0  0  0  0  0  0  0  0  0
    6.9911   -8.2423   27.1808 C   0  0  0  0  0  0  0  0  0  0  0  0
    3.8436   -7.2758   16.0578 C   0  0  0  0  0  0  0  0  0  0  0  0
    3.1882   -9.7190   17.2566 C   0  0  0  0  0  0  0  0  0  0  0  0
    5.3488   -6.1737   26.5092 C   0  0  0  0  0  0  0  0  0  0  0  0
    7.4567   -6.9464   27.2858 C   0  0  0  0  0  0  0  0  0  0  0  0
    0.1921   -5.7592   27.1123 C   0  0  0  0  0  0  0  0  0  0  0  0
    3.5517   -7.7407   25.9711 C   0  0  0  0  0  0  0  0  0  0  0  0
  1  4  4  0
  1 22  4  0
  2 20  4  0
  2 27  4  0
  3 12  4  0
  3 23  4  0
  4 25  4  0
  4 28  1  0
  5  8  4  0
  5 17  4  0
  6  7  4  0
  6 16  4  0
  7 18  4  0
  8 27  4  0
  9 13  4  0
  9 23  4  0
 10 11  1  0
 11 14  2  0
 11 27  1  0
 12 19  1  0
 12 24  4  0
 13 24  4  0
 15 18  1  0
 16 25  4  0
 16 26  4  0
 17 20  4  0
 17 28  1  0
 18 21  4  0
 21 26  4  0
 22 26  4  0
M  END
$$$$

 Created by Python create_sdf_string function

 28 30  0  0  0  0  0  0  0  0999 V2000
    5.7174   -8.4529   26.7190 C   0  0  0  0  0  0  0  0  0  0  0  0
    0.3974   -7.0711   27.5149 C   0  0  0  0  0  0  0  0  0  0  0  0
    2.5338   -7.6891   16.0102 C   0  0  0  0  0  0  0  0  0  0  0  0
    4.8690   -7.4380   26.4151 C   0  0  0  0  0  0  0  0  0  0  0  0
    2.3021   -5.6726   26.0378 C   0  0  0  0  0  0  0  0  0  0  0  0
    7.0880   -4.6163   27.0010 C   0  0  0  0  0  0  0  0  0  0  0  0
    8.3117   -4.3698   27.4436 C   0  0  0  0  0  0  0  0  0  0  0  0
    1.1339   -5.0515   26.3541 C   0  0  0  0  0  0  0  0  0  0  0  0
    4.8080   -8.0362   16.7101 C   0  0  0  0  0  0  0  0  0  0  0  0
   -1.2173   -3.9294   26.9717 O   0  0  0  0  0  0  0  0  0  0  0  0
   -1.0025   -5.0942   27.4586 C   0  0  0  0  0  0  0  0  0  0  0  0
    2.2474   -8.9123   16.6273 C   0  0  0  0  0  0  0  0  0  0  0  0
    4.4957   -9.2636   17.3041 C   0  0  0  0  0  0  0  0  0  0  0  0
   -1.8070   -5.6086   28.1920 O   0  0  0  0  0  0  0  0  0  0  0  0
   10.4296   -5.1799   28.3140 C   0  0  0  0  0  0  0  0  0  0  0  0
    6.6017   -5.9004   26.9187 C   0  0  0  0  0  0  0  0  0  0  0  0
    2.4761   -6.9940   26.4111 N   0  0  0  0  0  0  0  0  0  0  0  0
    9.1353   -5.4053   27.8239 C   0  0  0  0  0  0  0  0  0  0  0  0
    0.9922   -9.3232   16.5995 O   0  0  0  0  0  0  0  0  0  0  0  0
    1.5232   -7.6869   27.1182 C   0  0  0  0  0  0  0  0  0  0  0  0
    8.6878   -6.6715   27.7262 N   0  0  0  0  0  0  0  0  0  0  0  0
    6.9911   -8.2423   27.1808 C   0  0  0  0  0  0  0  0  0  0  0  0
    3.8436   -7.2758   16.0578 C   0  0  0  0  0  0  0  0  0  0  0  0
    3.1882   -9.7190   17.2566 C   0  0  0  0  0  0  0  0  0  0  0  0
    5.3488   -6.1737   26.5092 C   0  0  0  0  0  0  0  0  0  0  0  0
    7.4567   -6.9464   27.2858 C   0  0  0  0  0  0  0  0  0  0  0  0
    0.1921   -5.7592   27.1123 C   0  0  0  0  0  0  0  0  0  0  0  0
    3.5517   -7.7407   25.9711 C   0  0  0  0  0  0  0  0  0  0  0  0
  1  4  4  0
  1 22  4  0
  2 20  4  0
  2 27  4  0
  3 12  4  0
  3 23  4  0
  4 25  4  0
  4 28  1  0
  5  8  4  0
  5 17  4  0
  6  7  4  0
  6 16  4  0
  7 18  4  0
  8 27  4  0
  9 13  4  0
  9 23  4  0
 10 11  1  0
 11 14  2  0
 11 27  1  0
 12 19  1  0
 12 24  4  0
 13 24  4  0
 15 18  1  0
 16 25  4  0
 16 26  4  0
 17 20  4  0
 17 28  1  0
 18 21  4  0
 21 26  4  0
 22 26  4  0
M  END
$$$$

 Created by Python create_sdf_string function

 28 30  0  0  0  0  0  0  0  0999 V2000
    5.7174   -8.4529   26.7190 C   0  0  0  0  0  0  0  0  0  0  0  0
    0.3974   -7.0711   27.5149 C   0  0  0  0  0  0  0  0  0  0  0  0
    2.5338   -7.6891   16.0102 C   0  0  0  0  0  0  0  0  0  0  0  0
    4.8690   -7.4380   26.4151 C   0  0  0  0  0  0  0  0  0  0  0  0
    2.3021   -5.6726   26.0378 C   0  0  0  0  0  0  0  0  0  0  0  0
    7.0880   -4.6163   27.0010 C   0  0  0  0  0  0  0  0  0  0  0  0
    8.3117   -4.3698   27.4436 C   0  0  0  0  0  0  0  0  0  0  0  0
    1.1339   -5.0515   26.3541 C   0  0  0  0  0  0  0  0  0  0  0  0
    4.8080   -8.0362   16.7101 C   0  0  0  0  0  0  0  0  0  0  0  0
   -1.2173   -3.9294   26.9717 O   0  0  0  0  0  0  0  0  0  0  0  0
   -1.0025   -5.0942   27.4586 C   0  0  0  0  0  0  0  0  0  0  0  0
    2.2474   -8.9123   16.6273 C   0  0  0  0  0  0  0  0  0  0  0  0
    4.4957   -9.2636   17.3041 C   0  0  0  0  0  0  0  0  0  0  0  0
   -1.8070   -5.6086   28.1920 O   0  0  0  0  0  0  0  0  0  0  0  0
   10.4296   -5.1799   28.3140 C   0  0  0  0  0  0  0  0  0  0  0  0
    6.6017   -5.9004   26.9187 C   0  0  0  0  0  0  0  0  0  0  0  0
    2.4761   -6.9940   26.4111 N   0  0  0  0  0  0  0  0  0  0  0  0
    9.1353   -5.4053   27.8239 C   0  0  0  0  0  0  0  0  0  0  0  0
    0.9922   -9.3232   16.5995 O   0  0  0  0  0  0  0  0  0  0  0  0
    1.5232   -7.6869   27.1182 C   0  0  0  0  0  0  0  0  0  0  0  0
    8.6878   -6.6715   27.7262 N   0  0  0  0  0  0  0  0  0  0  0  0
    6.9911   -8.2423   27.1808 C   0  0  0  0  0  0  0  0  0  0  0  0
    3.8436   -7.2758   16.0578 C   0  0  0  0  0  0  0  0  0  0  0  0
    3.1882   -9.7190   17.2566 C   0  0  0  0  0  0  0  0  0  0  0  0
    5.3488   -6.1737   26.5092 C   0  0  0  0  0  0  0  0  0  0  0  0
    7.4567   -6.9464   27.2858 C   0  0  0  0  0  0  0  0  0  0  0  0
    0.1921   -5.7592   27.1123 C   0  0  0  0  0  0  0  0  0  0  0  0
    3.5517   -7.7407   25.9711 C   0  0  0  0  0  0  0  0  0  0  0  0
  1  4  4  0
  1 22  4  0
  2 20  4  0
  2 27  4  0
  3 12  4  0
  3 23  4  0
  4 25  4  0
  4 28  1  0
  5  8  4  0
  5 17  4  0
  6  7  4  0
  6 16  4  0
  7 18  4  0
  8 27  4  0
  9 13  4  0
  9 23  4  0
 10 11  1  0
 11 14  2  0
 11 27  1  0
 12 19  1  0
 12 24  4  0
 13 24  4  0
 15 18  1  0
 16 25  4  0
 16 26  4  0
 17 20  4  0
 17 28  1  0
 18 21  4  0
 21 26  4  0
 22 26  4  0
M  END
$$$$

 Created by Python create_sdf_string function

 28 30  0  0  0  0  0  0  0  0999 V2000
    5.7174   -8.4529   26.7190 C   0  0  0  0  0  0  0  0  0  0  0  0
    0.3974   -7.0711   27.5149 C   0  0  0  0  0  0  0  0  0  0  0  0
    2.5338   -7.6891   16.0102 C   0  0  0  0  0  0  0  0  0  0  0  0
    4.8690   -7.4380   26.4151 C   0  0  0  0  0  0  0  0  0  0  0  0
    2.3021   -5.6726   26.0378 C   0  0  0  0  0  0  0  0  0  0  0  0
    7.0880   -4.6163   27.0010 C   0  0  0  0  0  0  0  0  0  0  0  0
    8.3117   -4.3698   27.4436 C   0  0  0  0  0  0  0  0  0  0  0  0
    1.1339   -5.0515   26.3541 C   0  0  0  0  0  0  0  0  0  0  0  0
    4.8080   -8.0362   16.7101 C   0  0  0  0  0  0  0  0  0  0  0  0
   -1.2173   -3.9294   26.9717 O   0  0  0  0  0  0  0  0  0  0  0  0
   -1.0025   -5.0942   27.4586 C   0  0  0  0  0  0  0  0  0  0  0  0
    2.2474   -8.9123   16.6273 C   0  0  0  0  0  0  0  0  0  0  0  0
    4.4957   -9.2636   17.3041 C   0  0  0  0  0  0  0  0  0  0  0  0
   -1.8070   -5.6086   28.1920 O   0  0  0  0  0  0  0  0  0  0  0  0
   10.4296   -5.1799   28.3140 C   0  0  0  0  0  0  0  0  0  0  0  0
    6.6017   -5.9004   26.9187 C   0  0  0  0  0  0  0  0  0  0  0  0
    2.4761   -6.9940   26.4111 N   0  0  0  0  0  0  0  0  0  0  0  0
    9.1353   -5.4053   27.8239 C   0  0  0  0  0  0  0  0  0  0  0  0
    0.9922   -9.3232   16.5995 O   0  0  0  0  0  0  0  0  0  0  0  0
    1.5232   -7.6869   27.1182 C   0  0  0  0  0  0  0  0  0  0  0  0
    8.6878   -6.6715   27.7262 N   0  0  0  0  0  0  0  0  0  0  0  0
    6.9911   -8.2423   27.1808 C   0  0  0  0  0  0  0  0  0  0  0  0
    3.8436   -7.2758   16.0578 C   0  0  0  0  0  0  0  0  0  0  0  0
    3.1882   -9.7190   17.2566 C   0  0  0  0  0  0  0  0  0  0  0  0
    5.3488   -6.1737   26.5092 C   0  0  0  0  0  0  0  0  0  0  0  0
    7.4567   -6.9464   27.2858 C   0  0  0  0  0  0  0  0  0  0  0  0
    0.1921   -5.7592   27.1123 C   0  0  0  0  0  0  0  0  0  0  0  0
    3.5517   -7.7407   25.9711 C   0  0  0  0  0  0  0  0  0  0  0  0
  1  4  4  0
  1 22  4  0
  2 20  4  0
  2 27  4  0
  3 12  4  0
  3 23  4  0
  4 25  4  0
  4 28  1  0
  5  8  4  0
  5 17  4  0
  6  7  4  0
  6 16  4  0
  7 18  4  0
  8 27  4  0
  9 13  4  0
  9 23  4  0
 10 11  1  0
 11 14  2  0
 11 27  1  0
 12 19  1  0
 12 24  4  0
 13 24  4  0
 15 18  1  0
 16 25  4  0
 16 26  4  0
 17 20  4  0
 17 28  1  0
 18 21  4  0
 21 26  4  0
 22 26  4  0
M  END
$$$$

 Created by Python create_sdf_string function

 28 30  0  0  0  0  0  0  0  0999 V2000
    5.7174   -8.4529   26.7190 C   0  0  0  0  0  0  0  0  0  0  0  0
    0.3974   -7.0711   27.5149 C   0  0  0  0  0  0  0  0  0  0  0  0
    2.5338   -7.6891   16.0102 C   0  0  0  0  0  0  0  0  0  0  0  0
    4.8690   -7.4380   26.4151 C   0  0  0  0  0  0  0  0  0  0  0  0
    2.3021   -5.6726   26.0378 C   0  0  0  0  0  0  0  0  0  0  0  0
    7.0880   -4.6163   27.0010 C   0  0  0  0  0  0  0  0  0  0  0  0
    8.3117   -4.3698   27.4436 C   0  0  0  0  0  0  0  0  0  0  0  0
    1.1339   -5.0515   26.3541 C   0  0  0  0  0  0  0  0  0  0  0  0
    4.8080   -8.0362   16.7101 C   0  0  0  0  0  0  0  0  0  0  0  0
   -1.2173   -3.9294   26.9717 O   0  0  0  0  0  0  0  0  0  0  0  0
   -1.0025   -5.0942   27.4586 C   0  0  0  0  0  0  0  0  0  0  0  0
    2.2474   -8.9123   16.6273 C   0  0  0  0  0  0  0  0  0  0  0  0
    4.4957   -9.2636   17.3041 C   0  0  0  0  0  0  0  0  0  0  0  0
   -1.8070   -5.6086   28.1920 O   0  0  0  0  0  0  0  0  0  0  0  0
   10.4296   -5.1799   28.3140 C   0  0  0  0  0  0  0  0  0  0  0  0
    6.6017   -5.9004   26.9187 C   0  0  0  0  0  0  0  0  0  0  0  0
    2.4761   -6.9940   26.4111 N   0  0  0  0  0  0  0  0  0  0  0  0
    9.1353   -5.4053   27.8239 C   0  0  0  0  0  0  0  0  0  0  0  0
    0.9922   -9.3232   16.5995 O   0  0  0  0  0  0  0  0  0  0  0  0
    1.5232   -7.6869   27.1182 C   0  0  0  0  0  0  0  0  0  0  0  0
    8.6878   -6.6715   27.7262 N   0  0  0  0  0  0  0  0  0  0  0  0
    6.9911   -8.2423   27.1808 C   0  0  0  0  0  0  0  0  0  0  0  0
    3.8436   -7.2758   16.0578 C   0  0  0  0  0  0  0  0  0  0  0  0
    3.1882   -9.7190   17.2566 C   0  0  0  0  0  0  0  0  0  0  0  0
    5.3488   -6.1737   26.5092 C   0  0  0  0  0  0  0  0  0  0  0  0
    7.4567   -6.9464   27.2858 C   0  0  0  0  0  0  0  0  0  0  0  0
    0.1921   -5.7592   27.1123 C   0  0  0  0  0  0  0  0  0  0  0  0
    3.5517   -7.7407   25.9711 C   0  0  0  0  0  0  0  0  0  0  0  0
  1  4  4  0
  1 22  4  0
  2 20  4  0
  2 27  4  0
  3 12  4  0
  3 23  4  0
  4 25  4  0
  4 28  1  0
  5  8  4  0
  5 17  4  0
  6  7  4  0
  6 16  4  0
  7 18  4  0
  8 27  4  0
  9 13  4  0
  9 23  4  0
 10 11  1  0
 11 14  2  0
 11 27  1  0
 12 19  1  0
 12 24  4  0
 13 24  4  0
 15 18  1  0
 16 25  4  0
 16 26  4  0
 17 20  4  0
 17 28  1  0
 18 21  4  0
 21 26  4  0
 22 26  4  0
M  END
$$$$

 Created by Python create_sdf_string function

 28 30  0  0  0  0  0  0  0  0999 V2000
    5.7174   -8.4529   26.7190 C   0  0  0  0  0  0  0  0  0  0  0  0
    0.3974   -7.0711   27.5149 C   0  0  0  0  0  0  0  0  0  0  0  0
    2.5338   -7.6891   16.0102 C   0  0  0  0  0  0  0  0  0  0  0  0
    4.8690   -7.4380   26.4151 C   0  0  0  0  0  0  0  0  0  0  0  0
    2.3021   -5.6726   26.0378 C   0  0  0  0  0  0  0  0  0  0  0  0
    7.0880   -4.6163   27.0010 C   0  0  0  0  0  0  0  0  0  0  0  0
    8.3117   -4.3698   27.4436 C   0  0  0  0  0  0  0  0  0  0  0  0
    1.1339   -5.0515   26.3541 C   0  0  0  0  0  0  0  0  0  0  0  0
    4.8080   -8.0362   16.7101 C   0  0  0  0  0  0  0  0  0  0  0  0
   -1.2173   -3.9294   26.9717 O   0  0  0  0  0  0  0  0  0  0  0  0
   -1.0025   -5.0942   27.4586 C   0  0  0  0  0  0  0  0  0  0  0  0
    2.2474   -8.9123   16.6273 C   0  0  0  0  0  0  0  0  0  0  0  0
    4.4957   -9.2636   17.3041 C   0  0  0  0  0  0  0  0  0  0  0  0
   -1.8070   -5.6086   28.1920 O   0  0  0  0  0  0  0  0  0  0  0  0
   10.4296   -5.1799   28.3140 C   0  0  0  0  0  0  0  0  0  0  0  0
    6.6017   -5.9004   26.9187 C   0  0  0  0  0  0  0  0  0  0  0  0
    2.4761   -6.9940   26.4111 N   0  0  0  0  0  0  0  0  0  0  0  0
    9.1353   -5.4053   27.8239 C   0  0  0  0  0  0  0  0  0  0  0  0
    0.9922   -9.3232   16.5995 O   0  0  0  0  0  0  0  0  0  0  0  0
    1.5232   -7.6869   27.1182 C   0  0  0  0  0  0  0  0  0  0  0  0
    8.6878   -6.6715   27.7262 N   0  0  0  0  0  0  0  0  0  0  0  0
    6.9911   -8.2423   27.1808 C   0  0  0  0  0  0  0  0  0  0  0  0
    3.8436   -7.2758   16.0578 C   0  0  0  0  0  0  0  0  0  0  0  0
    3.1882   -9.7190   17.2566 C   0  0  0  0  0  0  0  0  0  0  0  0
    5.3488   -6.1737   26.5092 C   0  0  0  0  0  0  0  0  0  0  0  0
    7.4567   -6.9464   27.2858 C   0  0  0  0  0  0  0  0  0  0  0  0
    0.1921   -5.7592   27.1123 C   0  0  0  0  0  0  0  0  0  0  0  0
    3.5517   -7.7407   25.9711 C   0  0  0  0  0  0  0  0  0  0  0  0
  1  4  4  0
  1 22  4  0
  2 20  4  0
  2 27  4  0
  3 12  4  0
  3 23  4  0
  4 25  4  0
  4 28  1  0
  5  8  4  0
  5 17  4  0
  6  7  4  0
  6 16  4  0
  7 18  4  0
  8 27  4  0
  9 13  4  0
  9 23  4  0
 10 11  1  0
 11 14  2  0
 11 27  1  0
 12 19  1  0
 12 24  4  0
 13 24  4  0
 15 18  1  0
 16 25  4  0
 16 26  4  0
 17 20  4  0
 17 28  1  0
 18 21  4  0
 21 26  4  0
 22 26  4  0
M  END
$$$$

 Created by Python create_sdf_string function

 28 30  0  0  0  0  0  0  0  0999 V2000
    5.7174   -8.4529   26.7190 C   0  0  0  0  0  0  0  0  0  0  0  0
    0.3974   -7.0711   27.5149 C   0  0  0  0  0  0  0  0  0  0  0  0
    2.5338   -7.6891   16.0102 C   0  0  0  0  0  0  0  0  0  0  0  0
    4.8690   -7.4380   26.4151 C   0  0  0  0  0  0  0  0  0  0  0  0
    2.3021   -5.6726   26.0378 C   0  0  0  0  0  0  0  0  0  0  0  0
    7.0880   -4.6163   27.0010 C   0  0  0  0  0  0  0  0  0  0  0  0
    8.3117   -4.3698   27.4436 C   0  0  0  0  0  0  0  0  0  0  0  0
    1.1339   -5.0515   26.3541 C   0  0  0  0  0  0  0  0  0  0  0  0
    4.8080   -8.0362   16.7101 C   0  0  0  0  0  0  0  0  0  0  0  0
   -1.2173   -3.9294   26.9717 O   0  0  0  0  0  0  0  0  0  0  0  0
   -1.0025   -5.0942   27.4586 C   0  0  0  0  0  0  0  0  0  0  0  0
    2.2474   -8.9123   16.6273 C   0  0  0  0  0  0  0  0  0  0  0  0
    4.4957   -9.2636   17.3041 C   0  0  0  0  0  0  0  0  0  0  0  0
   -1.8070   -5.6086   28.1920 O   0  0  0  0  0  0  0  0  0  0  0  0
   10.4296   -5.1799   28.3140 C   0  0  0  0  0  0  0  0  0  0  0  0
    6.6017   -5.9004   26.9187 C   0  0  0  0  0  0  0  0  0  0  0  0
    2.4761   -6.9940   26.4111 N   0  0  0  0  0  0  0  0  0  0  0  0
    9.1353   -5.4053   27.8239 C   0  0  0  0  0  0  0  0  0  0  0  0
    0.9922   -9.3232   16.5995 O   0  0  0  0  0  0  0  0  0  0  0  0
    1.5232   -7.6869   27.1182 C   0  0  0  0  0  0  0  0  0  0  0  0
    8.6878   -6.6715   27.7262 N   0  0  0  0  0  0  0  0  0  0  0  0
    6.9911   -8.2423   27.1808 C   0  0  0  0  0  0  0  0  0  0  0  0
    3.8436   -7.2758   16.0578 C   0  0  0  0  0  0  0  0  0  0  0  0
    3.1882   -9.7190   17.2566 C   0  0  0  0  0  0  0  0  0  0  0  0
    5.3488   -6.1737   26.5092 C   0  0  0  0  0  0  0  0  0  0  0  0
    7.4567   -6.9464   27.2858 C   0  0  0  0  0  0  0  0  0  0  0  0
    0.1921   -5.7592   27.1123 C   0  0  0  0  0  0  0  0  0  0  0  0
    3.5517   -7.7407   25.9711 C   0  0  0  0  0  0  0  0  0  0  0  0
  1  4  4  0
  1 22  4  0
  2 20  4  0
  2 27  4  0
  3 12  4  0
  3 23  4  0
  4 25  4  0
  4 28  1  0
  5  8  4  0
  5 17  4  0
  6  7  4  0
  6 16  4  0
  7 18  4  0
  8 27  4  0
  9 13  4  0
  9 23  4  0
 10 11  1  0
 11 14  2  0
 11 27  1  0
 12 19  1  0
 12 24  4  0
 13 24  4  0
 15 18  1  0
 16 25  4  0
 16 26  4  0
 17 20  4  0
 17 28  1  0
 18 21  4  0
 21 26  4  0
 22 26  4  0
M  END
$$$$

 Created by Python create_sdf_string function

 28 30  0  0  0  0  0  0  0  0999 V2000
    5.7174   -8.4529   26.7190 C   0  0  0  0  0  0  0  0  0  0  0  0
    0.3974   -7.0711   27.5149 C   0  0  0  0  0  0  0  0  0  0  0  0
    2.5338   -7.6891   16.0102 C   0  0  0  0  0  0  0  0  0  0  0  0
    4.8690   -7.4380   26.4151 C   0  0  0  0  0  0  0  0  0  0  0  0
    2.3021   -5.6726   26.0378 C   0  0  0  0  0  0  0  0  0  0  0  0
    7.0880   -4.6163   27.0010 C   0  0  0  0  0  0  0  0  0  0  0  0
    8.3117   -4.3698   27.4436 C   0  0  0  0  0  0  0  0  0  0  0  0
    1.1339   -5.0515   26.3541 C   0  0  0  0  0  0  0  0  0  0  0  0
    4.8080   -8.0362   16.7101 C   0  0  0  0  0  0  0  0  0  0  0  0
   -1.2173   -3.9294   26.9717 O   0  0  0  0  0  0  0  0  0  0  0  0
   -1.0025   -5.0942   27.4586 C   0  0  0  0  0  0  0  0  0  0  0  0
    2.2474   -8.9123   16.6273 C   0  0  0  0  0  0  0  0  0  0  0  0
    4.4957   -9.2636   17.3041 C   0  0  0  0  0  0  0  0  0  0  0  0
   -1.8070   -5.6086   28.1920 O   0  0  0  0  0  0  0  0  0  0  0  0
   10.4296   -5.1799   28.3140 C   0  0  0  0  0  0  0  0  0  0  0  0
    6.6017   -5.9004   26.9187 C   0  0  0  0  0  0  0  0  0  0  0  0
    2.4761   -6.9940   26.4111 N   0  0  0  0  0  0  0  0  0  0  0  0
    9.1353   -5.4053   27.8239 C   0  0  0  0  0  0  0  0  0  0  0  0
    0.9922   -9.3232   16.5995 O   0  0  0  0  0  0  0  0  0  0  0  0
    1.5232   -7.6869   27.1182 C   0  0  0  0  0  0  0  0  0  0  0  0
    8.6878   -6.6715   27.7262 N   0  0  0  0  0  0  0  0  0  0  0  0
    6.9911   -8.2423   27.1808 C   0  0  0  0  0  0  0  0  0  0  0  0
    3.8436   -7.2758   16.0578 C   0  0  0  0  0  0  0  0  0  0  0  0
    3.1882   -9.7190   17.2566 C   0  0  0  0  0  0  0  0  0  0  0  0
    5.3488   -6.1737   26.5092 C   0  0  0  0  0  0  0  0  0  0  0  0
    7.4567   -6.9464   27.2858 C   0  0  0  0  0  0  0  0  0  0  0  0
    0.1921   -5.7592   27.1123 C   0  0  0  0  0  0  0  0  0  0  0  0
    3.5517   -7.7407   25.9711 C   0  0  0  0  0  0  0  0  0  0  0  0
  1  4  4  0
  1 22  4  0
  2 20  4  0
  2 27  4  0
  3 12  4  0
  3 23  4  0
  4 25  4  0
  4 28  1  0
  5  8  4  0
  5 17  4  0
  6  7  4  0
  6 16  4  0
  7 18  4  0
  8 27  4  0
  9 13  4  0
  9 23  4  0
 10 11  1  0
 11 14  2  0
 11 27  1  0
 12 19  1  0
 12 24  4  0
 13 24  4  0
 15 18  1  0
 16 25  4  0
 16 26  4  0
 17 20  4  0
 17 28  1  0
 18 21  4  0
 21 26  4  0
 22 26  4  0
M  END
$$$$

 Created by Python create_sdf_string function

 28 30  0  0  0  0  0  0  0  0999 V2000
    5.7174   -8.4529   26.7190 C   0  0  0  0  0  0  0  0  0  0  0  0
    0.3974   -7.0711   27.5149 C   0  0  0  0  0  0  0  0  0  0  0  0
    2.5338   -7.6891   16.0102 C   0  0  0  0  0  0  0  0  0  0  0  0
    4.8690   -7.4380   26.4151 C   0  0  0  0  0  0  0  0  0  0  0  0
    2.3021   -5.6726   26.0378 C   0  0  0  0  0  0  0  0  0  0  0  0
    7.0880   -4.6163   27.0010 C   0  0  0  0  0  0  0  0  0  0  0  0
    8.3117   -4.3698   27.4436 C   0  0  0  0  0  0  0  0  0  0  0  0
    1.1339   -5.0515   26.3541 C   0  0  0  0  0  0  0  0  0  0  0  0
    4.8080   -8.0362   16.7101 C   0  0  0  0  0  0  0  0  0  0  0  0
   -1.2173   -3.9294   26.9717 O   0  0  0  0  0  0  0  0  0  0  0  0
   -1.0025   -5.0942   27.4586 C   0  0  0  0  0  0  0  0  0  0  0  0
    2.2474   -8.9123   16.6273 C   0  0  0  0  0  0  0  0  0  0  0  0
    4.4957   -9.2636   17.3041 C   0  0  0  0  0  0  0  0  0  0  0  0
   -1.8070   -5.6086   28.1920 O   0  0  0  0  0  0  0  0  0  0  0  0
   10.4296   -5.1799   28.3140 C   0  0  0  0  0  0  0  0  0  0  0  0
    6.6017   -5.9004   26.9187 C   0  0  0  0  0  0  0  0  0  0  0  0
    2.4761   -6.9940   26.4111 N   0  0  0  0  0  0  0  0  0  0  0  0
    9.1353   -5.4053   27.8239 C   0  0  0  0  0  0  0  0  0  0  0  0
    0.9922   -9.3232   16.5995 O   0  0  0  0  0  0  0  0  0  0  0  0
    1.5232   -7.6869   27.1182 C   0  0  0  0  0  0  0  0  0  0  0  0
    8.6878   -6.6715   27.7262 N   0  0  0  0  0  0  0  0  0  0  0  0
    6.9911   -8.2423   27.1808 C   0  0  0  0  0  0  0  0  0  0  0  0
    3.8436   -7.2758   16.0578 C   0  0  0  0  0  0  0  0  0  0  0  0
    3.1882   -9.7190   17.2566 C   0  0  0  0  0  0  0  0  0  0  0  0
    5.3488   -6.1737   26.5092 C   0  0  0  0  0  0  0  0  0  0  0  0
    7.4567   -6.9464   27.2858 C   0  0  0  0  0  0  0  0  0  0  0  0
    0.1921   -5.7592   27.1123 C   0  0  0  0  0  0  0  0  0  0  0  0
    3.5517   -7.7407   25.9711 C   0  0  0  0  0  0  0  0  0  0  0  0
  1  4  4  0
  1 22  4  0
  2 20  4  0
  2 27  4  0
  3 12  4  0
  3 23  4  0
  4 25  4  0
  4 28  1  0
  5  8  4  0
  5 17  4  0
  6  7  4  0
  6 16  4  0
  7 18  4  0
  8 27  4  0
  9 13  4  0
  9 23  4  0
 10 11  1  0
 11 14  2  0
 11 27  1  0
 12 19  1  0
 12 24  4  0
 13 24  4  0
 15 18  1  0
 16 25  4  0
 16 26  4  0
 17 20  4  0
 17 28  1  0
 18 21  4  0
 21 26  4  0
 22 26  4  0
M  END
$$$$

 Created by Python create_sdf_string function

 28 30  0  0  0  0  0  0  0  0999 V2000
    5.7174   -8.4529   26.7190 C   0  0  0  0  0  0  0  0  0  0  0  0
    0.3974   -7.0711   27.5149 C   0  0  0  0  0  0  0  0  0  0  0  0
    2.5338   -7.6891   16.0102 C   0  0  0  0  0  0  0  0  0  0  0  0
    4.8690   -7.4380   26.4151 C   0  0  0  0  0  0  0  0  0  0  0  0
    2.3021   -5.6726   26.0378 C   0  0  0  0  0  0  0  0  0  0  0  0
    7.0880   -4.6163   27.0010 C   0  0  0  0  0  0  0  0  0  0  0  0
    8.3117   -4.3698   27.4436 C   0  0  0  0  0  0  0  0  0  0  0  0
    1.1339   -5.0515   26.3541 C   0  0  0  0  0  0  0  0  0  0  0  0
    4.8080   -8.0362   16.7101 C   0  0  0  0  0  0  0  0  0  0  0  0
   -1.2173   -3.9294   26.9717 O   0  0  0  0  0  0  0  0  0  0  0  0
   -1.0025   -5.0942   27.4586 C   0  0  0  0  0  0  0  0  0  0  0  0
    2.2474   -8.9123   16.6273 C   0  0  0  0  0  0  0  0  0  0  0  0
    4.4957   -9.2636   17.3041 C   0  0  0  0  0  0  0  0  0  0  0  0
   -1.8070   -5.6086   28.1920 O   0  0  0  0  0  0  0  0  0  0  0  0
   10.4296   -5.1799   28.3140 C   0  0  0  0  0  0  0  0  0  0  0  0
    6.6017   -5.9004   26.9187 C   0  0  0  0  0  0  0  0  0  0  0  0
    2.4761   -6.9940   26.4111 N   0  0  0  0  0  0  0  0  0  0  0  0
    9.1353   -5.4053   27.8239 C   0  0  0  0  0  0  0  0  0  0  0  0
    0.9922   -9.3232   16.5995 O   0  0  0  0  0  0  0  0  0  0  0  0
    1.5232   -7.6869   27.1182 C   0  0  0  0  0  0  0  0  0  0  0  0
    8.6878   -6.6715   27.7262 N   0  0  0  0  0  0  0  0  0  0  0  0
    6.9911   -8.2423   27.1808 C   0  0  0  0  0  0  0  0  0  0  0  0
    3.8436   -7.2758   16.0578 C   0  0  0  0  0  0  0  0  0  0  0  0
    3.1882   -9.7190   17.2566 C   0  0  0  0  0  0  0  0  0  0  0  0
    5.3488   -6.1737   26.5092 C   0  0  0  0  0  0  0  0  0  0  0  0
    7.4567   -6.9464   27.2858 C   0  0  0  0  0  0  0  0  0  0  0  0
    0.1921   -5.7592   27.1123 C   0  0  0  0  0  0  0  0  0  0  0  0
    3.5517   -7.7407   25.9711 C   0  0  0  0  0  0  0  0  0  0  0  0
  1  4  4  0
  1 22  4  0
  2 20  4  0
  2 27  4  0
  3 12  4  0
  3 23  4  0
  4 25  4  0
  4 28  1  0
  5  8  4  0
  5 17  4  0
  6  7  4  0
  6 16  4  0
  7 18  4  0
  8 27  4  0
  9 13  4  0
  9 23  4  0
 10 11  1  0
 11 14  2  0
 11 27  1  0
 12 19  1  0
 12 24  4  0
 13 24  4  0
 15 18  1  0
 16 25  4  0
 16 26  4  0
 17 20  4  0
 17 28  1  0
 18 21  4  0
 21 26  4  0
 22 26  4  0
M  END
$$$$

 Created by Python create_sdf_string function

 28 30  0  0  0  0  0  0  0  0999 V2000
    5.7174   -8.4529   26.7190 C   0  0  0  0  0  0  0  0  0  0  0  0
    0.3974   -7.0711   27.5149 C   0  0  0  0  0  0  0  0  0  0  0  0
    2.5338   -7.6891   16.0102 C   0  0  0  0  0  0  0  0  0  0  0  0
    4.8690   -7.4380   26.4151 C   0  0  0  0  0  0  0  0  0  0  0  0
    2.3021   -5.6726   26.0378 C   0  0  0  0  0  0  0  0  0  0  0  0
    7.0880   -4.6163   27.0010 C   0  0  0  0  0  0  0  0  0  0  0  0
    8.3117   -4.3698   27.4436 C   0  0  0  0  0  0  0  0  0  0  0  0
    1.1339   -5.0515   26.3541 C   0  0  0  0  0  0  0  0  0  0  0  0
    4.8080   -8.0362   16.7101 C   0  0  0  0  0  0  0  0  0  0  0  0
   -1.2173   -3.9294   26.9717 O   0  0  0  0  0  0  0  0  0  0  0  0
   -1.0025   -5.0942   27.4586 C   0  0  0  0  0  0  0  0  0  0  0  0
    2.2474   -8.9123   16.6273 C   0  0  0  0  0  0  0  0  0  0  0  0
    4.4957   -9.2636   17.3041 C   0  0  0  0  0  0  0  0  0  0  0  0
   -1.8070   -5.6086   28.1920 O   0  0  0  0  0  0  0  0  0  0  0  0
   10.4296   -5.1799   28.3140 C   0  0  0  0  0  0  0  0  0  0  0  0
    6.6017   -5.9004   26.9187 C   0  0  0  0  0  0  0  0  0  0  0  0
    2.4761   -6.9940   26.4111 N   0  0  0  0  0  0  0  0  0  0  0  0
    9.1353   -5.4053   27.8239 C   0  0  0  0  0  0  0  0  0  0  0  0
    0.9922   -9.3232   16.5995 O   0  0  0  0  0  0  0  0  0  0  0  0
    1.5232   -7.6869   27.1182 C   0  0  0  0  0  0  0  0  0  0  0  0
    8.6878   -6.6715   27.7262 N   0  0  0  0  0  0  0  0  0  0  0  0
    6.9911   -8.2423   27.1808 C   0  0  0  0  0  0  0  0  0  0  0  0
    3.8436   -7.2758   16.0578 C   0  0  0  0  0  0  0  0  0  0  0  0
    3.1882   -9.7190   17.2566 C   0  0  0  0  0  0  0  0  0  0  0  0
    5.3488   -6.1737   26.5092 C   0  0  0  0  0  0  0  0  0  0  0  0
    7.4567   -6.9464   27.2858 C   0  0  0  0  0  0  0  0  0  0  0  0
    0.1921   -5.7592   27.1123 C   0  0  0  0  0  0  0  0  0  0  0  0
    3.5517   -7.7407   25.9711 C   0  0  0  0  0  0  0  0  0  0  0  0
  1  4  4  0
  1 22  4  0
  2 20  4  0
  2 27  4  0
  3 12  4  0
  3 23  4  0
  4 25  4  0
  4 28  1  0
  5  8  4  0
  5 17  4  0
  6  7  4  0
  6 16  4  0
  7 18  4  0
  8 27  4  0
  9 13  4  0
  9 23  4  0
 10 11  1  0
 11 14  2  0
 11 27  1  0
 12 19  1  0
 12 24  4  0
 13 24  4  0
 15 18  1  0
 16 25  4  0
 16 26  4  0
 17 20  4  0
 17 28  1  0
 18 21  4  0
 21 26  4  0
 22 26  4  0
M  END
$$$$

 Created by Python create_sdf_string function

 28 30  0  0  0  0  0  0  0  0999 V2000
    5.7174   -8.4529   26.7190 C   0  0  0  0  0  0  0  0  0  0  0  0
    0.3974   -7.0711   27.5149 C   0  0  0  0  0  0  0  0  0  0  0  0
    2.5338   -7.6891   16.0102 C   0  0  0  0  0  0  0  0  0  0  0  0
    4.8690   -7.4380   26.4151 C   0  0  0  0  0  0  0  0  0  0  0  0
    2.3021   -5.6726   26.0378 C   0  0  0  0  0  0  0  0  0  0  0  0
    7.0880   -4.6163   27.0010 C   0  0  0  0  0  0  0  0  0  0  0  0
    8.3117   -4.3698   27.4436 C   0  0  0  0  0  0  0  0  0  0  0  0
    1.1339   -5.0515   26.3541 C   0  0  0  0  0  0  0  0  0  0  0  0
    4.8080   -8.0362   16.7101 C   0  0  0  0  0  0  0  0  0  0  0  0
   -1.2173   -3.9294   26.9717 O   0  0  0  0  0  0  0  0  0  0  0  0
   -1.0025   -5.0942   27.4586 C   0  0  0  0  0  0  0  0  0  0  0  0
    2.2474   -8.9123   16.6273 C   0  0  0  0  0  0  0  0  0  0  0  0
    4.4957   -9.2636   17.3041 C   0  0  0  0  0  0  0  0  0  0  0  0
   -1.8070   -5.6086   28.1920 O   0  0  0  0  0  0  0  0  0  0  0  0
   10.4296   -5.1799   28.3140 C   0  0  0  0  0  0  0  0  0  0  0  0
    6.6017   -5.9004   26.9187 C   0  0  0  0  0  0  0  0  0  0  0  0
    2.4761   -6.9940   26.4111 N   0  0  0  0  0  0  0  0  0  0  0  0
    9.1353   -5.4053   27.8239 C   0  0  0  0  0  0  0  0  0  0  0  0
    0.9922   -9.3232   16.5995 O   0  0  0  0  0  0  0  0  0  0  0  0
    1.5232   -7.6869   27.1182 C   0  0  0  0  0  0  0  0  0  0  0  0
    8.6878   -6.6715   27.7262 N   0  0  0  0  0  0  0  0  0  0  0  0
    6.9911   -8.2423   27.1808 C   0  0  0  0  0  0  0  0  0  0  0  0
    3.8436   -7.2758   16.0578 C   0  0  0  0  0  0  0  0  0  0  0  0
    3.1882   -9.7190   17.2566 C   0  0  0  0  0  0  0  0  0  0  0  0
    5.3488   -6.1737   26.5092 C   0  0  0  0  0  0  0  0  0  0  0  0
    7.4567   -6.9464   27.2858 C   0  0  0  0  0  0  0  0  0  0  0  0
    0.1921   -5.7592   27.1123 C   0  0  0  0  0  0  0  0  0  0  0  0
    3.5517   -7.7407   25.9711 C   0  0  0  0  0  0  0  0  0  0  0  0
  1  4  4  0
  1 22  4  0
  2 20  4  0
  2 27  4  0
  3 12  4  0
  3 23  4  0
  4 25  4  0
  4 28  1  0
  5  8  4  0
  5 17  4  0
  6  7  4  0
  6 16  4  0
  7 18  4  0
  8 27  4  0
  9 13  4  0
  9 23  4  0
 10 11  1  0
 11 14  2  0
 11 27  1  0
 12 19  1  0
 12 24  4  0
 13 24  4  0
 15 18  1  0
 16 25  4  0
 16 26  4  0
 17 20  4  0
 17 28  1  0
 18 21  4  0
 21 26  4  0
 22 26  4  0
M  END
$$$$

 Created by Python create_sdf_string function

 28 30  0  0  0  0  0  0  0  0999 V2000
    5.7174   -8.4529   26.7190 C   0  0  0  0  0  0  0  0  0  0  0  0
    0.3974   -7.0711   27.5149 C   0  0  0  0  0  0  0  0  0  0  0  0
    2.5338   -7.6891   16.0102 C   0  0  0  0  0  0  0  0  0  0  0  0
    4.8690   -7.4380   26.4151 C   0  0  0  0  0  0  0  0  0  0  0  0
    2.3021   -5.6726   26.0378 C   0  0  0  0  0  0  0  0  0  0  0  0
    7.0880   -4.6163   27.0010 C   0  0  0  0  0  0  0  0  0  0  0  0
    8.3117   -4.3698   27.4436 C   0  0  0  0  0  0  0  0  0  0  0  0
    1.1339   -5.0515   26.3541 C   0  0  0  0  0  0  0  0  0  0  0  0
    4.8080   -8.0362   16.7101 C   0  0  0  0  0  0  0  0  0  0  0  0
   -1.2173   -3.9294   26.9717 O   0  0  0  0  0  0  0  0  0  0  0  0
   -1.0025   -5.0942   27.4586 C   0  0  0  0  0  0  0  0  0  0  0  0
    2.2474   -8.9123   16.6273 C   0  0  0  0  0  0  0  0  0  0  0  0
    4.4957   -9.2636   17.3041 C   0  0  0  0  0  0  0  0  0  0  0  0
   -1.8070   -5.6086   28.1920 O   0  0  0  0  0  0  0  0  0  0  0  0
   10.4296   -5.1799   28.3140 C   0  0  0  0  0  0  0  0  0  0  0  0
    6.6017   -5.9004   26.9187 C   0  0  0  0  0  0  0  0  0  0  0  0
    2.4761   -6.9940   26.4111 N   0  0  0  0  0  0  0  0  0  0  0  0
    9.1353   -5.4053   27.8239 C   0  0  0  0  0  0  0  0  0  0  0  0
    0.9922   -9.3232   16.5995 O   0  0  0  0  0  0  0  0  0  0  0  0
    1.5232   -7.6869   27.1182 C   0  0  0  0  0  0  0  0  0  0  0  0
    8.6878   -6.6715   27.7262 N   0  0  0  0  0  0  0  0  0  0  0  0
    6.9911   -8.2423   27.1808 C   0  0  0  0  0  0  0  0  0  0  0  0
    3.8436   -7.2758   16.0578 C   0  0  0  0  0  0  0  0  0  0  0  0
    3.1882   -9.7190   17.2566 C   0  0  0  0  0  0  0  0  0  0  0  0
    5.3488   -6.1737   26.5092 C   0  0  0  0  0  0  0  0  0  0  0  0
    7.4567   -6.9464   27.2858 C   0  0  0  0  0  0  0  0  0  0  0  0
    0.1921   -5.7592   27.1123 C   0  0  0  0  0  0  0  0  0  0  0  0
    3.5517   -7.7407   25.9711 C   0  0  0  0  0  0  0  0  0  0  0  0
  1  4  4  0
  1 22  4  0
  2 20  4  0
  2 27  4  0
  3 12  4  0
  3 23  4  0
  4 25  4  0
  4 28  1  0
  5  8  4  0
  5 17  4  0
  6  7  4  0
  6 16  4  0
  7 18  4  0
  8 27  4  0
  9 13  4  0
  9 23  4  0
 10 11  1  0
 11 14  2  0
 11 27  1  0
 12 19  1  0
 12 24  4  0
 13 24  4  0
 15 18  1  0
 16 25  4  0
 16 26  4  0
 17 20  4  0
 17 28  1  0
 18 21  4  0
 21 26  4  0
 22 26  4  0
M  END
$$$$

 Created by Python create_sdf_string function

 28 30  0  0  0  0  0  0  0  0999 V2000
    5.7174   -8.4529   26.7190 C   0  0  0  0  0  0  0  0  0  0  0  0
    0.3974   -7.0711   27.5149 C   0  0  0  0  0  0  0  0  0  0  0  0
    2.5338   -7.6891   16.0102 C   0  0  0  0  0  0  0  0  0  0  0  0
    4.8690   -7.4380   26.4151 C   0  0  0  0  0  0  0  0  0  0  0  0
    2.3021   -5.6726   26.0378 C   0  0  0  0  0  0  0  0  0  0  0  0
    7.0880   -4.6163   27.0010 C   0  0  0  0  0  0  0  0  0  0  0  0
    8.3117   -4.3698   27.4436 C   0  0  0  0  0  0  0  0  0  0  0  0
    1.1339   -5.0515   26.3541 C   0  0  0  0  0  0  0  0  0  0  0  0
    4.8080   -8.0362   16.7101 C   0  0  0  0  0  0  0  0  0  0  0  0
   -1.2173   -3.9294   26.9717 O   0  0  0  0  0  0  0  0  0  0  0  0
   -1.0025   -5.0942   27.4586 C   0  0  0  0  0  0  0  0  0  0  0  0
    2.2474   -8.9123   16.6273 C   0  0  0  0  0  0  0  0  0  0  0  0
    4.4957   -9.2636   17.3041 C   0  0  0  0  0  0  0  0  0  0  0  0
   -1.8070   -5.6086   28.1920 O   0  0  0  0  0  0  0  0  0  0  0  0
   10.4296   -5.1799   28.3140 C   0  0  0  0  0  0  0  0  0  0  0  0
    6.6017   -5.9004   26.9187 C   0  0  0  0  0  0  0  0  0  0  0  0
    2.4761   -6.9940   26.4111 N   0  0  0  0  0  0  0  0  0  0  0  0
    9.1353   -5.4053   27.8239 C   0  0  0  0  0  0  0  0  0  0  0  0
    0.9922   -9.3232   16.5995 O   0  0  0  0  0  0  0  0  0  0  0  0
    1.5232   -7.6869   27.1182 C   0  0  0  0  0  0  0  0  0  0  0  0
    8.6878   -6.6715   27.7262 N   0  0  0  0  0  0  0  0  0  0  0  0
    6.9911   -8.2423   27.1808 C   0  0  0  0  0  0  0  0  0  0  0  0
    3.8436   -7.2758   16.0578 C   0  0  0  0  0  0  0  0  0  0  0  0
    3.1882   -9.7190   17.2566 C   0  0  0  0  0  0  0  0  0  0  0  0
    5.3488   -6.1737   26.5092 C   0  0  0  0  0  0  0  0  0  0  0  0
    7.4567   -6.9464   27.2858 C   0  0  0  0  0  0  0  0  0  0  0  0
    0.1921   -5.7592   27.1123 C   0  0  0  0  0  0  0  0  0  0  0  0
    3.5517   -7.7407   25.9711 C   0  0  0  0  0  0  0  0  0  0  0  0
  1  4  4  0
  1 22  4  0
  2 20  4  0
  2 27  4  0
  3 12  4  0
  3 23  4  0
  4 25  4  0
  4 28  1  0
  5  8  4  0
  5 17  4  0
  6  7  4  0
  6 16  4  0
  7 18  4  0
  8 27  4  0
  9 13  4  0
  9 23  4  0
 10 11  1  0
 11 14  2  0
 11 27  1  0
 12 19  1  0
 12 24  4  0
 13 24  4  0
 15 18  1  0
 16 25  4  0
 16 26  4  0
 17 20  4  0
 17 28  1  0
 18 21  4  0
 21 26  4  0
 22 26  4  0
M  END
$$$$

 Created by Python create_sdf_string function

 28 30  0  0  0  0  0  0  0  0999 V2000
    5.7174   -8.4529   26.7190 C   0  0  0  0  0  0  0  0  0  0  0  0
    0.3974   -7.0711   27.5149 C   0  0  0  0  0  0  0  0  0  0  0  0
    2.5338   -7.6891   16.0102 C   0  0  0  0  0  0  0  0  0  0  0  0
    4.8690   -7.4380   26.4151 C   0  0  0  0  0  0  0  0  0  0  0  0
    2.3021   -5.6726   26.0378 C   0  0  0  0  0  0  0  0  0  0  0  0
    7.0880   -4.6163   27.0010 C   0  0  0  0  0  0  0  0  0  0  0  0
    8.3117   -4.3698   27.4436 C   0  0  0  0  0  0  0  0  0  0  0  0
    1.1339   -5.0515   26.3541 C   0  0  0  0  0  0  0  0  0  0  0  0
    4.8080   -8.0362   16.7101 C   0  0  0  0  0  0  0  0  0  0  0  0
   -1.2173   -3.9294   26.9717 O   0  0  0  0  0  0  0  0  0  0  0  0
   -1.0025   -5.0942   27.4586 C   0  0  0  0  0  0  0  0  0  0  0  0
    2.2474   -8.9123   16.6273 C   0  0  0  0  0  0  0  0  0  0  0  0
    4.4957   -9.2636   17.3041 C   0  0  0  0  0  0  0  0  0  0  0  0
   -1.8070   -5.6086   28.1920 O   0  0  0  0  0  0  0  0  0  0  0  0
   10.4296   -5.1799   28.3140 C   0  0  0  0  0  0  0  0  0  0  0  0
    6.6017   -5.9004   26.9187 C   0  0  0  0  0  0  0  0  0  0  0  0
    2.4761   -6.9940   26.4111 N   0  0  0  0  0  0  0  0  0  0  0  0
    9.1353   -5.4053   27.8239 C   0  0  0  0  0  0  0  0  0  0  0  0
    0.9922   -9.3232   16.5995 O   0  0  0  0  0  0  0  0  0  0  0  0
    1.5232   -7.6869   27.1182 C   0  0  0  0  0  0  0  0  0  0  0  0
    8.6878   -6.6715   27.7262 N   0  0  0  0  0  0  0  0  0  0  0  0
    6.9911   -8.2423   27.1808 C   0  0  0  0  0  0  0  0  0  0  0  0
    3.8436   -7.2758   16.0578 C   0  0  0  0  0  0  0  0  0  0  0  0
    3.1882   -9.7190   17.2566 C   0  0  0  0  0  0  0  0  0  0  0  0
    5.3488   -6.1737   26.5092 C   0  0  0  0  0  0  0  0  0  0  0  0
    7.4567   -6.9464   27.2858 C   0  0  0  0  0  0  0  0  0  0  0  0
    0.1921   -5.7592   27.1123 C   0  0  0  0  0  0  0  0  0  0  0  0
    3.5517   -7.7407   25.9711 C   0  0  0  0  0  0  0  0  0  0  0  0
  1  4  4  0
  1 22  4  0
  2 20  4  0
  2 27  4  0
  3 12  4  0
  3 23  4  0
  4 25  4  0
  4 28  1  0
  5  8  4  0
  5 17  4  0
  6  7  4  0
  6 16  4  0
  7 18  4  0
  8 27  4  0
  9 13  4  0
  9 23  4  0
 10 11  1  0
 11 14  2  0
 11 27  1  0
 12 19  1  0
 12 24  4  0
 13 24  4  0
 15 18  1  0
 16 25  4  0
 16 26  4  0
 17 20  4  0
 17 28  1  0
 18 21  4  0
 21 26  4  0
 22 26  4  0
M  END
$$$$

 Created by Python create_sdf_string function

 28 30  0  0  0  0  0  0  0  0999 V2000
    5.7174   -8.4529   26.7190 C   0  0  0  0  0  0  0  0  0  0  0  0
    0.3974   -7.0711   27.5149 C   0  0  0  0  0  0  0  0  0  0  0  0
    2.5338   -7.6891   16.0102 C   0  0  0  0  0  0  0  0  0  0  0  0
    4.8690   -7.4380   26.4151 C   0  0  0  0  0  0  0  0  0  0  0  0
    2.3021   -5.6726   26.0378 C   0  0  0  0  0  0  0  0  0  0  0  0
    7.0880   -4.6163   27.0010 C   0  0  0  0  0  0  0  0  0  0  0  0
    8.3117   -4.3698   27.4436 C   0  0  0  0  0  0  0  0  0  0  0  0
    1.1339   -5.0515   26.3541 C   0  0  0  0  0  0  0  0  0  0  0  0
    4.8080   -8.0362   16.7101 C   0  0  0  0  0  0  0  0  0  0  0  0
   -1.2173   -3.9294   26.9717 O   0  0  0  0  0  0  0  0  0  0  0  0
   -1.0025   -5.0942   27.4586 C   0  0  0  0  0  0  0  0  0  0  0  0
    2.2474   -8.9123   16.6273 C   0  0  0  0  0  0  0  0  0  0  0  0
    4.4957   -9.2636   17.3041 C   0  0  0  0  0  0  0  0  0  0  0  0
   -1.8070   -5.6086   28.1920 O   0  0  0  0  0  0  0  0  0  0  0  0
   10.4296   -5.1799   28.3140 C   0  0  0  0  0  0  0  0  0  0  0  0
    6.6017   -5.9004   26.9187 C   0  0  0  0  0  0  0  0  0  0  0  0
    2.4761   -6.9940   26.4111 N   0  0  0  0  0  0  0  0  0  0  0  0
    9.1353   -5.4053   27.8239 C   0  0  0  0  0  0  0  0  0  0  0  0
    0.9922   -9.3232   16.5995 O   0  0  0  0  0  0  0  0  0  0  0  0
    1.5232   -7.6869   27.1182 C   0  0  0  0  0  0  0  0  0  0  0  0
    8.6878   -6.6715   27.7262 N   0  0  0  0  0  0  0  0  0  0  0  0
    6.9911   -8.2423   27.1808 C   0  0  0  0  0  0  0  0  0  0  0  0
    3.8436   -7.2758   16.0578 C   0  0  0  0  0  0  0  0  0  0  0  0
    3.1882   -9.7190   17.2566 C   0  0  0  0  0  0  0  0  0  0  0  0
    5.3488   -6.1737   26.5092 C   0  0  0  0  0  0  0  0  0  0  0  0
    7.4567   -6.9464   27.2858 C   0  0  0  0  0  0  0  0  0  0  0  0
    0.1921   -5.7592   27.1123 C   0  0  0  0  0  0  0  0  0  0  0  0
    3.5517   -7.7407   25.9711 C   0  0  0  0  0  0  0  0  0  0  0  0
  1  4  4  0
  1 22  4  0
  2 20  4  0
  2 27  4  0
  3 12  4  0
  3 23  4  0
  4 25  4  0
  4 28  1  0
  5  8  4  0
  5 17  4  0
  6  7  4  0
  6 16  4  0
  7 18  4  0
  8 27  4  0
  9 13  4  0
  9 23  4  0
 10 11  1  0
 11 14  2  0
 11 27  1  0
 12 19  1  0
 12 24  4  0
 13 24  4  0
 15 18  1  0
 16 25  4  0
 16 26  4  0
 17 20  4  0
 17 28  1  0
 18 21  4  0
 21 26  4  0
 22 26  4  0
M  END
$$$$

 Created by Python create_sdf_string function

 28 30  0  0  0  0  0  0  0  0999 V2000
    5.7174   -8.4529   26.7190 C   0  0  0  0  0  0  0  0  0  0  0  0
    0.3974   -7.0711   27.5149 C   0  0  0  0  0  0  0  0  0  0  0  0
    2.5338   -7.6891   16.0102 C   0  0  0  0  0  0  0  0  0  0  0  0
    4.8690   -7.4380   26.4151 C   0  0  0  0  0  0  0  0  0  0  0  0
    2.3021   -5.6726   26.0378 C   0  0  0  0  0  0  0  0  0  0  0  0
    7.0880   -4.6163   27.0010 C   0  0  0  0  0  0  0  0  0  0  0  0
    8.3117   -4.3698   27.4436 C   0  0  0  0  0  0  0  0  0  0  0  0
    1.1339   -5.0515   26.3541 C   0  0  0  0  0  0  0  0  0  0  0  0
    4.8080   -8.0362   16.7101 C   0  0  0  0  0  0  0  0  0  0  0  0
   -1.2173   -3.9294   26.9717 O   0  0  0  0  0  0  0  0  0  0  0  0
   -1.0025   -5.0942   27.4586 C   0  0  0  0  0  0  0  0  0  0  0  0
    2.2474   -8.9123   16.6273 C   0  0  0  0  0  0  0  0  0  0  0  0
    4.4957   -9.2636   17.3041 C   0  0  0  0  0  0  0  0  0  0  0  0
   -1.8070   -5.6086   28.1920 O   0  0  0  0  0  0  0  0  0  0  0  0
   10.4296   -5.1799   28.3140 C   0  0  0  0  0  0  0  0  0  0  0  0
    6.6017   -5.9004   26.9187 C   0  0  0  0  0  0  0  0  0  0  0  0
    2.4761   -6.9940   26.4111 N   0  0  0  0  0  0  0  0  0  0  0  0
    9.1353   -5.4053   27.8239 C   0  0  0  0  0  0  0  0  0  0  0  0
    0.9922   -9.3232   16.5995 O   0  0  0  0  0  0  0  0  0  0  0  0
    1.5232   -7.6869   27.1182 C   0  0  0  0  0  0  0  0  0  0  0  0
    8.6878   -6.6715   27.7262 N   0  0  0  0  0  0  0  0  0  0  0  0
    6.9911   -8.2423   27.1808 C   0  0  0  0  0  0  0  0  0  0  0  0
    3.8436   -7.2758   16.0578 C   0  0  0  0  0  0  0  0  0  0  0  0
    3.1882   -9.7190   17.2566 C   0  0  0  0  0  0  0  0  0  0  0  0
    5.3488   -6.1737   26.5092 C   0  0  0  0  0  0  0  0  0  0  0  0
    7.4567   -6.9464   27.2858 C   0  0  0  0  0  0  0  0  0  0  0  0
    0.1921   -5.7592   27.1123 C   0  0  0  0  0  0  0  0  0  0  0  0
    3.5517   -7.7407   25.9711 C   0  0  0  0  0  0  0  0  0  0  0  0
  1  4  4  0
  1 22  4  0
  2 20  4  0
  2 27  4  0
  3 12  4  0
  3 23  4  0
  4 25  4  0
  4 28  1  0
  5  8  4  0
  5 17  4  0
  6  7  4  0
  6 16  4  0
  7 18  4  0
  8 27  4  0
  9 13  4  0
  9 23  4  0
 10 11  1  0
 11 14  2  0
 11 27  1  0
 12 19  1  0
 12 24  4  0
 13 24  4  0
 15 18  1  0
 16 25  4  0
 16 26  4  0
 17 20  4  0
 17 28  1  0
 18 21  4  0
 21 26  4  0
 22 26  4  0
M  END
$$$$

 Created by Python create_sdf_string function

 28 30  0  0  0  0  0  0  0  0999 V2000
    5.7174   -8.4529   26.7190 C   0  0  0  0  0  0  0  0  0  0  0  0
    0.3974   -7.0711   27.5149 C   0  0  0  0  0  0  0  0  0  0  0  0
    2.5338   -7.6891   16.0102 C   0  0  0  0  0  0  0  0  0  0  0  0
    4.8690   -7.4380   26.4151 C   0  0  0  0  0  0  0  0  0  0  0  0
    2.3021   -5.6726   26.0378 C   0  0  0  0  0  0  0  0  0  0  0  0
    7.0880   -4.6163   27.0010 C   0  0  0  0  0  0  0  0  0  0  0  0
    8.3117   -4.3698   27.4436 C   0  0  0  0  0  0  0  0  0  0  0  0
    1.1339   -5.0515   26.3541 C   0  0  0  0  0  0  0  0  0  0  0  0
    4.8080   -8.0362   16.7101 C   0  0  0  0  0  0  0  0  0  0  0  0
   -1.2173   -3.9294   26.9717 O   0  0  0  0  0  0  0  0  0  0  0  0
   -1.0025   -5.0942   27.4586 C   0  0  0  0  0  0  0  0  0  0  0  0
    2.2474   -8.9123   16.6273 C   0  0  0  0  0  0  0  0  0  0  0  0
    4.4957   -9.2636   17.3041 C   0  0  0  0  0  0  0  0  0  0  0  0
   -1.8070   -5.6086   28.1920 O   0  0  0  0  0  0  0  0  0  0  0  0
   10.4296   -5.1799   28.3140 C   0  0  0  0  0  0  0  0  0  0  0  0
    6.6017   -5.9004   26.9187 C   0  0  0  0  0  0  0  0  0  0  0  0
    2.4761   -6.9940   26.4111 N   0  0  0  0  0  0  0  0  0  0  0  0
    9.1353   -5.4053   27.8239 C   0  0  0  0  0  0  0  0  0  0  0  0
    0.9922   -9.3232   16.5995 O   0  0  0  0  0  0  0  0  0  0  0  0
    1.5232   -7.6869   27.1182 C   0  0  0  0  0  0  0  0  0  0  0  0
    8.6878   -6.6715   27.7262 N   0  0  0  0  0  0  0  0  0  0  0  0
    6.9911   -8.2423   27.1808 C   0  0  0  0  0  0  0  0  0  0  0  0
    3.8436   -7.2758   16.0578 C   0  0  0  0  0  0  0  0  0  0  0  0
    3.1882   -9.7190   17.2566 C   0  0  0  0  0  0  0  0  0  0  0  0
    5.3488   -6.1737   26.5092 C   0  0  0  0  0  0  0  0  0  0  0  0
    7.4567   -6.9464   27.2858 C   0  0  0  0  0  0  0  0  0  0  0  0
    0.1921   -5.7592   27.1123 C   0  0  0  0  0  0  0  0  0  0  0  0
    3.5517   -7.7407   25.9711 C   0  0  0  0  0  0  0  0  0  0  0  0
  1  4  4  0
  1 22  4  0
  2 20  4  0
  2 27  4  0
  3 12  4  0
  3 23  4  0
  4 25  4  0
  4 28  1  0
  5  8  4  0
  5 17  4  0
  6  7  4  0
  6 16  4  0
  7 18  4  0
  8 27  4  0
  9 13  4  0
  9 23  4  0
 10 11  1  0
 11 14  2  0
 11 27  1  0
 12 19  1  0
 12 24  4  0
 13 24  4  0
 15 18  1  0
 16 25  4  0
 16 26  4  0
 17 20  4  0
 17 28  1  0
 18 21  4  0
 21 26  4  0
 22 26  4  0
M  END
$$$$

 Created by Python create_sdf_string function

 28 30  0  0  0  0  0  0  0  0999 V2000
    5.7174   -8.4529   26.7190 C   0  0  0  0  0  0  0  0  0  0  0  0
    0.3974   -7.0711   27.5149 C   0  0  0  0  0  0  0  0  0  0  0  0
    2.5338   -7.6891   16.0102 C   0  0  0  0  0  0  0  0  0  0  0  0
    4.8690   -7.4380   26.4151 C   0  0  0  0  0  0  0  0  0  0  0  0
    2.3021   -5.6726   26.0378 C   0  0  0  0  0  0  0  0  0  0  0  0
    7.0880   -4.6163   27.0010 C   0  0  0  0  0  0  0  0  0  0  0  0
    8.3117   -4.3698   27.4436 C   0  0  0  0  0  0  0  0  0  0  0  0
    1.1339   -5.0515   26.3541 C   0  0  0  0  0  0  0  0  0  0  0  0
    4.8080   -8.0362   16.7101 C   0  0  0  0  0  0  0  0  0  0  0  0
   -1.2173   -3.9294   26.9717 O   0  0  0  0  0  0  0  0  0  0  0  0
   -1.0025   -5.0942   27.4586 C   0  0  0  0  0  0  0  0  0  0  0  0
    2.2474   -8.9123   16.6273 C   0  0  0  0  0  0  0  0  0  0  0  0
    4.4957   -9.2636   17.3041 C   0  0  0  0  0  0  0  0  0  0  0  0
   -1.8070   -5.6086   28.1920 O   0  0  0  0  0  0  0  0  0  0  0  0
   10.4296   -5.1799   28.3140 C   0  0  0  0  0  0  0  0  0  0  0  0
    6.6017   -5.9004   26.9187 C   0  0  0  0  0  0  0  0  0  0  0  0
    2.4761   -6.9940   26.4111 N   0  0  0  0  0  0  0  0  0  0  0  0
    9.1353   -5.4053   27.8239 C   0  0  0  0  0  0  0  0  0  0  0  0
    0.9922   -9.3232   16.5995 O   0  0  0  0  0  0  0  0  0  0  0  0
    1.5232   -7.6869   27.1182 C   0  0  0  0  0  0  0  0  0  0  0  0
    8.6878   -6.6715   27.7262 N   0  0  0  0  0  0  0  0  0  0  0  0
    6.9911   -8.2423   27.1808 C   0  0  0  0  0  0  0  0  0  0  0  0
    3.8436   -7.2758   16.0578 C   0  0  0  0  0  0  0  0  0  0  0  0
    3.1882   -9.7190   17.2566 C   0  0  0  0  0  0  0  0  0  0  0  0
    5.3488   -6.1737   26.5092 C   0  0  0  0  0  0  0  0  0  0  0  0
    7.4567   -6.9464   27.2858 C   0  0  0  0  0  0  0  0  0  0  0  0
    0.1921   -5.7592   27.1123 C   0  0  0  0  0  0  0  0  0  0  0  0
    3.5517   -7.7407   25.9711 C   0  0  0  0  0  0  0  0  0  0  0  0
  1  4  4  0
  1 22  4  0
  2 20  4  0
  2 27  4  0
  3 12  4  0
  3 23  4  0
  4 25  4  0
  4 28  1  0
  5  8  4  0
  5 17  4  0
  6  7  4  0
  6 16  4  0
  7 18  4  0
  8 27  4  0
  9 13  4  0
  9 23  4  0
 10 11  1  0
 11 14  2  0
 11 27  1  0
 12 19  1  0
 12 24  4  0
 13 24  4  0
 15 18  1  0
 16 25  4  0
 16 26  4  0
 17 20  4  0
 17 28  1  0
 18 21  4  0
 21 26  4  0
 22 26  4  0
M  END
$$$$

 Created by Python create_sdf_string function

 28 30  0  0  0  0  0  0  0  0999 V2000
    5.7174   -8.4529   26.7190 C   0  0  0  0  0  0  0  0  0  0  0  0
    0.3974   -7.0711   27.5149 C   0  0  0  0  0  0  0  0  0  0  0  0
    2.5338   -7.6891   16.0102 C   0  0  0  0  0  0  0  0  0  0  0  0
    4.8690   -7.4380   26.4151 C   0  0  0  0  0  0  0  0  0  0  0  0
    2.3021   -5.6726   26.0378 C   0  0  0  0  0  0  0  0  0  0  0  0
    7.0880   -4.6163   27.0010 C   0  0  0  0  0  0  0  0  0  0  0  0
    8.3117   -4.3698   27.4436 C   0  0  0  0  0  0  0  0  0  0  0  0
    1.1339   -5.0515   26.3541 C   0  0  0  0  0  0  0  0  0  0  0  0
    4.8080   -8.0362   16.7101 C   0  0  0  0  0  0  0  0  0  0  0  0
   -1.2173   -3.9294   26.9717 O   0  0  0  0  0  0  0  0  0  0  0  0
   -1.0025   -5.0942   27.4586 C   0  0  0  0  0  0  0  0  0  0  0  0
    2.2474   -8.9123   16.6273 C   0  0  0  0  0  0  0  0  0  0  0  0
    4.4957   -9.2636   17.3041 C   0  0  0  0  0  0  0  0  0  0  0  0
   -1.8070   -5.6086   28.1920 O   0  0  0  0  0  0  0  0  0  0  0  0
   10.4296   -5.1799   28.3140 C   0  0  0  0  0  0  0  0  0  0  0  0
    6.6017   -5.9004   26.9187 C   0  0  0  0  0  0  0  0  0  0  0  0
    2.4761   -6.9940   26.4111 N   0  0  0  0  0  0  0  0  0  0  0  0
    9.1353   -5.4053   27.8239 C   0  0  0  0  0  0  0  0  0  0  0  0
    0.9922   -9.3232   16.5995 O   0  0  0  0  0  0  0  0  0  0  0  0
    1.5232   -7.6869   27.1182 C   0  0  0  0  0  0  0  0  0  0  0  0
    8.6878   -6.6715   27.7262 N   0  0  0  0  0  0  0  0  0  0  0  0
    6.9911   -8.2423   27.1808 C   0  0  0  0  0  0  0  0  0  0  0  0
    3.8436   -7.2758   16.0578 C   0  0  0  0  0  0  0  0  0  0  0  0
    3.1882   -9.7190   17.2566 C   0  0  0  0  0  0  0  0  0  0  0  0
    5.3488   -6.1737   26.5092 C   0  0  0  0  0  0  0  0  0  0  0  0
    7.4567   -6.9464   27.2858 C   0  0  0  0  0  0  0  0  0  0  0  0
    0.1921   -5.7592   27.1123 C   0  0  0  0  0  0  0  0  0  0  0  0
    3.5517   -7.7407   25.9711 C   0  0  0  0  0  0  0  0  0  0  0  0
  1  4  4  0
  1 22  4  0
  2 20  4  0
  2 27  4  0
  3 12  4  0
  3 23  4  0
  4 25  4  0
  4 28  1  0
  5  8  4  0
  5 17  4  0
  6  7  4  0
  6 16  4  0
  7 18  4  0
  8 27  4  0
  9 13  4  0
  9 23  4  0
 10 11  1  0
 11 14  2  0
 11 27  1  0
 12 19  1  0
 12 24  4  0
 13 24  4  0
 15 18  1  0
 16 25  4  0
 16 26  4  0
 17 20  4  0
 17 28  1  0
 18 21  4  0
 21 26  4  0
 22 26  4  0
M  END
$$$$

 Created by Python create_sdf_string function

 28 30  0  0  0  0  0  0  0  0999 V2000
    5.7174   -8.4529   26.7190 C   0  0  0  0  0  0  0  0  0  0  0  0
    0.3974   -7.0711   27.5149 C   0  0  0  0  0  0  0  0  0  0  0  0
    2.5338   -7.6891   16.0102 C   0  0  0  0  0  0  0  0  0  0  0  0
    4.8690   -7.4380   26.4151 C   0  0  0  0  0  0  0  0  0  0  0  0
    2.3021   -5.6726   26.0378 C   0  0  0  0  0  0  0  0  0  0  0  0
    7.0880   -4.6163   27.0010 C   0  0  0  0  0  0  0  0  0  0  0  0
    8.3117   -4.3698   27.4436 C   0  0  0  0  0  0  0  0  0  0  0  0
    1.1339   -5.0515   26.3541 C   0  0  0  0  0  0  0  0  0  0  0  0
    4.8080   -8.0362   16.7101 C   0  0  0  0  0  0  0  0  0  0  0  0
   -1.2173   -3.9294   26.9717 O   0  0  0  0  0  0  0  0  0  0  0  0
   -1.0025   -5.0942   27.4586 C   0  0  0  0  0  0  0  0  0  0  0  0
    2.2474   -8.9123   16.6273 C   0  0  0  0  0  0  0  0  0  0  0  0
    4.4957   -9.2636   17.3041 C   0  0  0  0  0  0  0  0  0  0  0  0
   -1.8070   -5.6086   28.1920 O   0  0  0  0  0  0  0  0  0  0  0  0
   10.4296   -5.1799   28.3140 C   0  0  0  0  0  0  0  0  0  0  0  0
    6.6017   -5.9004   26.9187 C   0  0  0  0  0  0  0  0  0  0  0  0
    2.4761   -6.9940   26.4111 N   0  0  0  0  0  0  0  0  0  0  0  0
    9.1353   -5.4053   27.8239 C   0  0  0  0  0  0  0  0  0  0  0  0
    0.9922   -9.3232   16.5995 O   0  0  0  0  0  0  0  0  0  0  0  0
    1.5232   -7.6869   27.1182 C   0  0  0  0  0  0  0  0  0  0  0  0
    8.6878   -6.6715   27.7262 N   0  0  0  0  0  0  0  0  0  0  0  0
    6.9911   -8.2423   27.1808 C   0  0  0  0  0  0  0  0  0  0  0  0
    3.8436   -7.2758   16.0578 C   0  0  0  0  0  0  0  0  0  0  0  0
    3.1882   -9.7190   17.2566 C   0  0  0  0  0  0  0  0  0  0  0  0
    5.3488   -6.1737   26.5092 C   0  0  0  0  0  0  0  0  0  0  0  0
    7.4567   -6.9464   27.2858 C   0  0  0  0  0  0  0  0  0  0  0  0
    0.1921   -5.7592   27.1123 C   0  0  0  0  0  0  0  0  0  0  0  0
    3.5517   -7.7407   25.9711 C   0  0  0  0  0  0  0  0  0  0  0  0
  1  4  4  0
  1 22  4  0
  2 20  4  0
  2 27  4  0
  3 12  4  0
  3 23  4  0
  4 25  4  0
  4 28  1  0
  5  8  4  0
  5 17  4  0
  6  7  4  0
  6 16  4  0
  7 18  4  0
  8 27  4  0
  9 13  4  0
  9 23  4  0
 10 11  1  0
 11 14  2  0
 11 27  1  0
 12 19  1  0
 12 24  4  0
 13 24  4  0
 15 18  1  0
 16 25  4  0
 16 26  4  0
 17 20  4  0
 17 28  1  0
 18 21  4  0
 21 26  4  0
 22 26  4  0
M  END
$$$$

 Created by Python create_sdf_string function

 28 30  0  0  0  0  0  0  0  0999 V2000
    5.7174   -8.4529   26.7190 C   0  0  0  0  0  0  0  0  0  0  0  0
    0.3974   -7.0711   27.5149 C   0  0  0  0  0  0  0  0  0  0  0  0
    2.5338   -7.6891   16.0102 C   0  0  0  0  0  0  0  0  0  0  0  0
    4.8690   -7.4380   26.4151 C   0  0  0  0  0  0  0  0  0  0  0  0
    2.3021   -5.6726   26.0378 C   0  0  0  0  0  0  0  0  0  0  0  0
    7.0880   -4.6163   27.0010 C   0  0  0  0  0  0  0  0  0  0  0  0
    8.3117   -4.3698   27.4436 C   0  0  0  0  0  0  0  0  0  0  0  0
    1.1339   -5.0515   26.3541 C   0  0  0  0  0  0  0  0  0  0  0  0
    4.8080   -8.0362   16.7101 C   0  0  0  0  0  0  0  0  0  0  0  0
   -1.2173   -3.9294   26.9717 O   0  0  0  0  0  0  0  0  0  0  0  0
   -1.0025   -5.0942   27.4586 C   0  0  0  0  0  0  0  0  0  0  0  0
    2.2474   -8.9123   16.6273 C   0  0  0  0  0  0  0  0  0  0  0  0
    4.4957   -9.2636   17.3041 C   0  0  0  0  0  0  0  0  0  0  0  0
   -1.8070   -5.6086   28.1920 O   0  0  0  0  0  0  0  0  0  0  0  0
   10.4296   -5.1799   28.3140 C   0  0  0  0  0  0  0  0  0  0  0  0
    6.6017   -5.9004   26.9187 C   0  0  0  0  0  0  0  0  0  0  0  0
    2.4761   -6.9940   26.4111 N   0  0  0  0  0  0  0  0  0  0  0  0
    9.1353   -5.4053   27.8239 C   0  0  0  0  0  0  0  0  0  0  0  0
    0.9922   -9.3232   16.5995 O   0  0  0  0  0  0  0  0  0  0  0  0
    1.5232   -7.6869   27.1182 C   0  0  0  0  0  0  0  0  0  0  0  0
    8.6878   -6.6715   27.7262 N   0  0  0  0  0  0  0  0  0  0  0  0
    6.9911   -8.2423   27.1808 C   0  0  0  0  0  0  0  0  0  0  0  0
    3.8436   -7.2758   16.0578 C   0  0  0  0  0  0  0  0  0  0  0  0
    3.1882   -9.7190   17.2566 C   0  0  0  0  0  0  0  0  0  0  0  0
    5.3488   -6.1737   26.5092 C   0  0  0  0  0  0  0  0  0  0  0  0
    7.4567   -6.9464   27.2858 C   0  0  0  0  0  0  0  0  0  0  0  0
    0.1921   -5.7592   27.1123 C   0  0  0  0  0  0  0  0  0  0  0  0
    3.5517   -7.7407   25.9711 C   0  0  0  0  0  0  0  0  0  0  0  0
  1  4  4  0
  1 22  4  0
  2 20  4  0
  2 27  4  0
  3 12  4  0
  3 23  4  0
  4 25  4  0
  4 28  1  0
  5  8  4  0
  5 17  4  0
  6  7  4  0
  6 16  4  0
  7 18  4  0
  8 27  4  0
  9 13  4  0
  9 23  4  0
 10 11  1  0
 11 14  2  0
 11 27  1  0
 12 19  1  0
 12 24  4  0
 13 24  4  0
 15 18  1  0
 16 25  4  0
 16 26  4  0
 17 20  4  0
 17 28  1  0
 18 21  4  0
 21 26  4  0
 22 26  4  0
M  END
$$$$

 Created by Python create_sdf_string function

 28 30  0  0  0  0  0  0  0  0999 V2000
    5.7174   -8.4529   26.7190 C   0  0  0  0  0  0  0  0  0  0  0  0
    0.3974   -7.0711   27.5149 C   0  0  0  0  0  0  0  0  0  0  0  0
    2.5338   -7.6891   16.0102 C   0  0  0  0  0  0  0  0  0  0  0  0
    4.8690   -7.4380   26.4151 C   0  0  0  0  0  0  0  0  0  0  0  0
    2.3021   -5.6726   26.0378 C   0  0  0  0  0  0  0  0  0  0  0  0
    7.0880   -4.6163   27.0010 C   0  0  0  0  0  0  0  0  0  0  0  0
    8.3117   -4.3698   27.4436 C   0  0  0  0  0  0  0  0  0  0  0  0
    1.1339   -5.0515   26.3541 C   0  0  0  0  0  0  0  0  0  0  0  0
    4.8080   -8.0362   16.7101 C   0  0  0  0  0  0  0  0  0  0  0  0
   -1.2173   -3.9294   26.9717 O   0  0  0  0  0  0  0  0  0  0  0  0
   -1.0025   -5.0942   27.4586 C   0  0  0  0  0  0  0  0  0  0  0  0
    2.2474   -8.9123   16.6273 C   0  0  0  0  0  0  0  0  0  0  0  0
    4.4957   -9.2636   17.3041 C   0  0  0  0  0  0  0  0  0  0  0  0
   -1.8070   -5.6086   28.1920 O   0  0  0  0  0  0  0  0  0  0  0  0
   10.4296   -5.1799   28.3140 C   0  0  0  0  0  0  0  0  0  0  0  0
    6.6017   -5.9004   26.9187 C   0  0  0  0  0  0  0  0  0  0  0  0
    2.4761   -6.9940   26.4111 N   0  0  0  0  0  0  0  0  0  0  0  0
    9.1353   -5.4053   27.8239 C   0  0  0  0  0  0  0  0  0  0  0  0
    0.9922   -9.3232   16.5995 O   0  0  0  0  0  0  0  0  0  0  0  0
    1.5232   -7.6869   27.1182 C   0  0  0  0  0  0  0  0  0  0  0  0
    8.6878   -6.6715   27.7262 N   0  0  0  0  0  0  0  0  0  0  0  0
    6.9911   -8.2423   27.1808 C   0  0  0  0  0  0  0  0  0  0  0  0
    3.8436   -7.2758   16.0578 C   0  0  0  0  0  0  0  0  0  0  0  0
    3.1882   -9.7190   17.2566 C   0  0  0  0  0  0  0  0  0  0  0  0
    5.3488   -6.1737   26.5092 C   0  0  0  0  0  0  0  0  0  0  0  0
    7.4567   -6.9464   27.2858 C   0  0  0  0  0  0  0  0  0  0  0  0
    0.1921   -5.7592   27.1123 C   0  0  0  0  0  0  0  0  0  0  0  0
    3.5517   -7.7407   25.9711 C   0  0  0  0  0  0  0  0  0  0  0  0
  1  4  4  0
  1 22  4  0
  2 20  4  0
  2 27  4  0
  3 12  4  0
  3 23  4  0
  4 25  4  0
  4 28  1  0
  5  8  4  0
  5 17  4  0
  6  7  4  0
  6 16  4  0
  7 18  4  0
  8 27  4  0
  9 13  4  0
  9 23  4  0
 10 11  1  0
 11 14  2  0
 11 27  1  0
 12 19  1  0
 12 24  4  0
 13 24  4  0
 15 18  1  0
 16 25  4  0
 16 26  4  0
 17 20  4  0
 17 28  1  0
 18 21  4  0
 21 26  4  0
 22 26  4  0
M  END
$$$$

 Created by Python create_sdf_string function

 28 30  0  0  0  0  0  0  0  0999 V2000
    5.7174   -8.4529   26.7190 C   0  0  0  0  0  0  0  0  0  0  0  0
    0.3974   -7.0711   27.5149 C   0  0  0  0  0  0  0  0  0  0  0  0
    2.5338   -7.6891   16.0102 C   0  0  0  0  0  0  0  0  0  0  0  0
    4.8690   -7.4380   26.4151 C   0  0  0  0  0  0  0  0  0  0  0  0
    2.3021   -5.6726   26.0378 C   0  0  0  0  0  0  0  0  0  0  0  0
    7.0880   -4.6163   27.0010 C   0  0  0  0  0  0  0  0  0  0  0  0
    8.3117   -4.3698   27.4436 C   0  0  0  0  0  0  0  0  0  0  0  0
    1.1339   -5.0515   26.3541 C   0  0  0  0  0  0  0  0  0  0  0  0
    4.8080   -8.0362   16.7101 C   0  0  0  0  0  0  0  0  0  0  0  0
   -1.2173   -3.9294   26.9717 O   0  0  0  0  0  0  0  0  0  0  0  0
   -1.0025   -5.0942   27.4586 C   0  0  0  0  0  0  0  0  0  0  0  0
    2.2474   -8.9123   16.6273 C   0  0  0  0  0  0  0  0  0  0  0  0
    4.4957   -9.2636   17.3041 C   0  0  0  0  0  0  0  0  0  0  0  0
   -1.8070   -5.6086   28.1920 O   0  0  0  0  0  0  0  0  0  0  0  0
   10.4296   -5.1799   28.3140 C   0  0  0  0  0  0  0  0  0  0  0  0
    6.6017   -5.9004   26.9187 C   0  0  0  0  0  0  0  0  0  0  0  0
    2.4761   -6.9940   26.4111 N   0  0  0  0  0  0  0  0  0  0  0  0
    9.1353   -5.4053   27.8239 C   0  0  0  0  0  0  0  0  0  0  0  0
    0.9922   -9.3232   16.5995 O   0  0  0  0  0  0  0  0  0  0  0  0
    1.5232   -7.6869   27.1182 C   0  0  0  0  0  0  0  0  0  0  0  0
    8.6878   -6.6715   27.7262 N   0  0  0  0  0  0  0  0  0  0  0  0
    6.9911   -8.2423   27.1808 C   0  0  0  0  0  0  0  0  0  0  0  0
    3.8436   -7.2758   16.0578 C   0  0  0  0  0  0  0  0  0  0  0  0
    3.1882   -9.7190   17.2566 C   0  0  0  0  0  0  0  0  0  0  0  0
    5.3488   -6.1737   26.5092 C   0  0  0  0  0  0  0  0  0  0  0  0
    7.4567   -6.9464   27.2858 C   0  0  0  0  0  0  0  0  0  0  0  0
    0.1921   -5.7592   27.1123 C   0  0  0  0  0  0  0  0  0  0  0  0
    3.5517   -7.7407   25.9711 C   0  0  0  0  0  0  0  0  0  0  0  0
  1  4  4  0
  1 22  4  0
  2 20  4  0
  2 27  4  0
  3 12  4  0
  3 23  4  0
  4 25  4  0
  4 28  1  0
  5  8  4  0
  5 17  4  0
  6  7  4  0
  6 16  4  0
  7 18  4  0
  8 27  4  0
  9 13  4  0
  9 23  4  0
 10 11  1  0
 11 14  2  0
 11 27  1  0
 12 19  1  0
 12 24  4  0
 13 24  4  0
 15 18  1  0
 16 25  4  0
 16 26  4  0
 17 20  4  0
 17 28  1  0
 18 21  4  0
 21 26  4  0
 22 26  4  0
M  END
$$$$

 Created by Python create_sdf_string function

 28 30  0  0  0  0  0  0  0  0999 V2000
    5.7174   -8.4529   26.7190 C   0  0  0  0  0  0  0  0  0  0  0  0
    0.3974   -7.0711   27.5149 C   0  0  0  0  0  0  0  0  0  0  0  0
    2.5338   -7.6891   16.0102 C   0  0  0  0  0  0  0  0  0  0  0  0
    4.8690   -7.4380   26.4151 C   0  0  0  0  0  0  0  0  0  0  0  0
    2.3021   -5.6726   26.0378 C   0  0  0  0  0  0  0  0  0  0  0  0
    7.0880   -4.6163   27.0010 C   0  0  0  0  0  0  0  0  0  0  0  0
    8.3117   -4.3698   27.4436 C   0  0  0  0  0  0  0  0  0  0  0  0
    1.1339   -5.0515   26.3541 C   0  0  0  0  0  0  0  0  0  0  0  0
    4.8080   -8.0362   16.7101 C   0  0  0  0  0  0  0  0  0  0  0  0
   -1.2173   -3.9294   26.9717 O   0  0  0  0  0  0  0  0  0  0  0  0
   -1.0025   -5.0942   27.4586 C   0  0  0  0  0  0  0  0  0  0  0  0
    2.2474   -8.9123   16.6273 C   0  0  0  0  0  0  0  0  0  0  0  0
    4.4957   -9.2636   17.3041 C   0  0  0  0  0  0  0  0  0  0  0  0
   -1.8070   -5.6086   28.1920 O   0  0  0  0  0  0  0  0  0  0  0  0
   10.4296   -5.1799   28.3140 C   0  0  0  0  0  0  0  0  0  0  0  0
    6.6017   -5.9004   26.9187 C   0  0  0  0  0  0  0  0  0  0  0  0
    2.4761   -6.9940   26.4111 N   0  0  0  0  0  0  0  0  0  0  0  0
    9.1353   -5.4053   27.8239 C   0  0  0  0  0  0  0  0  0  0  0  0
    0.9922   -9.3232   16.5995 O   0  0  0  0  0  0  0  0  0  0  0  0
    1.5232   -7.6869   27.1182 C   0  0  0  0  0  0  0  0  0  0  0  0
    8.6878   -6.6715   27.7262 N   0  0  0  0  0  0  0  0  0  0  0  0
    6.9911   -8.2423   27.1808 C   0  0  0  0  0  0  0  0  0  0  0  0
    3.8436   -7.2758   16.0578 C   0  0  0  0  0  0  0  0  0  0  0  0
    3.1882   -9.7190   17.2566 C   0  0  0  0  0  0  0  0  0  0  0  0
    5.3488   -6.1737   26.5092 C   0  0  0  0  0  0  0  0  0  0  0  0
    7.4567   -6.9464   27.2858 C   0  0  0  0  0  0  0  0  0  0  0  0
    0.1921   -5.7592   27.1123 C   0  0  0  0  0  0  0  0  0  0  0  0
    3.5517   -7.7407   25.9711 C   0  0  0  0  0  0  0  0  0  0  0  0
  1  4  4  0
  1 22  4  0
  2 20  4  0
  2 27  4  0
  3 12  4  0
  3 23  4  0
  4 25  4  0
  4 28  1  0
  5  8  4  0
  5 17  4  0
  6  7  4  0
  6 16  4  0
  7 18  4  0
  8 27  4  0
  9 13  4  0
  9 23  4  0
 10 11  1  0
 11 14  2  0
 11 27  1  0
 12 19  1  0
 12 24  4  0
 13 24  4  0
 15 18  1  0
 16 25  4  0
 16 26  4  0
 17 20  4  0
 17 28  1  0
 18 21  4  0
 21 26  4  0
 22 26  4  0
M  END
$$$$

 Created by Python create_sdf_string function

 28 30  0  0  0  0  0  0  0  0999 V2000
    5.7174   -8.4529   26.7190 C   0  0  0  0  0  0  0  0  0  0  0  0
    0.3974   -7.0711   27.5149 C   0  0  0  0  0  0  0  0  0  0  0  0
    2.5338   -7.6891   16.0102 C   0  0  0  0  0  0  0  0  0  0  0  0
    4.8690   -7.4380   26.4151 C   0  0  0  0  0  0  0  0  0  0  0  0
    2.3021   -5.6726   26.0378 C   0  0  0  0  0  0  0  0  0  0  0  0
    7.0880   -4.6163   27.0010 C   0  0  0  0  0  0  0  0  0  0  0  0
    8.3117   -4.3698   27.4436 C   0  0  0  0  0  0  0  0  0  0  0  0
    1.1339   -5.0515   26.3541 C   0  0  0  0  0  0  0  0  0  0  0  0
    4.8080   -8.0362   16.7101 C   0  0  0  0  0  0  0  0  0  0  0  0
   -1.2173   -3.9294   26.9717 O   0  0  0  0  0  0  0  0  0  0  0  0
   -1.0025   -5.0942   27.4586 C   0  0  0  0  0  0  0  0  0  0  0  0
    2.2474   -8.9123   16.6273 C   0  0  0  0  0  0  0  0  0  0  0  0
    4.4957   -9.2636   17.3041 C   0  0  0  0  0  0  0  0  0  0  0  0
   -1.8070   -5.6086   28.1920 O   0  0  0  0  0  0  0  0  0  0  0  0
   10.4296   -5.1799   28.3140 C   0  0  0  0  0  0  0  0  0  0  0  0
    6.6017   -5.9004   26.9187 C   0  0  0  0  0  0  0  0  0  0  0  0
    2.4761   -6.9940   26.4111 N   0  0  0  0  0  0  0  0  0  0  0  0
    9.1353   -5.4053   27.8239 C   0  0  0  0  0  0  0  0  0  0  0  0
    0.9922   -9.3232   16.5995 O   0  0  0  0  0  0  0  0  0  0  0  0
    1.5232   -7.6869   27.1182 C   0  0  0  0  0  0  0  0  0  0  0  0
    8.6878   -6.6715   27.7262 N   0  0  0  0  0  0  0  0  0  0  0  0
    6.9911   -8.2423   27.1808 C   0  0  0  0  0  0  0  0  0  0  0  0
    3.8436   -7.2758   16.0578 C   0  0  0  0  0  0  0  0  0  0  0  0
    3.1882   -9.7190   17.2566 C   0  0  0  0  0  0  0  0  0  0  0  0
    5.3488   -6.1737   26.5092 C   0  0  0  0  0  0  0  0  0  0  0  0
    7.4567   -6.9464   27.2858 C   0  0  0  0  0  0  0  0  0  0  0  0
    0.1921   -5.7592   27.1123 C   0  0  0  0  0  0  0  0  0  0  0  0
    3.5517   -7.7407   25.9711 C   0  0  0  0  0  0  0  0  0  0  0  0
  1  4  4  0
  1 22  4  0
  2 20  4  0
  2 27  4  0
  3 12  4  0
  3 23  4  0
  4 25  4  0
  4 28  1  0
  5  8  4  0
  5 17  4  0
  6  7  4  0
  6 16  4  0
  7 18  4  0
  8 27  4  0
  9 13  4  0
  9 23  4  0
 10 11  1  0
 11 14  2  0
 11 27  1  0
 12 19  1  0
 12 24  4  0
 13 24  4  0
 15 18  1  0
 16 25  4  0
 16 26  4  0
 17 20  4  0
 17 28  1  0
 18 21  4  0
 21 26  4  0
 22 26  4  0
M  END
$$$$

 Created by Python create_sdf_string function

 28 30  0  0  0  0  0  0  0  0999 V2000
    5.7174   -8.4529   26.7190 C   0  0  0  0  0  0  0  0  0  0  0  0
    0.3974   -7.0711   27.5149 C   0  0  0  0  0  0  0  0  0  0  0  0
    2.5338   -7.6891   16.0102 C   0  0  0  0  0  0  0  0  0  0  0  0
    4.8690   -7.4380   26.4151 C   0  0  0  0  0  0  0  0  0  0  0  0
    2.3021   -5.6726   26.0378 C   0  0  0  0  0  0  0  0  0  0  0  0
    7.0880   -4.6163   27.0010 C   0  0  0  0  0  0  0  0  0  0  0  0
    8.3117   -4.3698   27.4436 C   0  0  0  0  0  0  0  0  0  0  0  0
    1.1339   -5.0515   26.3541 C   0  0  0  0  0  0  0  0  0  0  0  0
    4.8080   -8.0362   16.7101 C   0  0  0  0  0  0  0  0  0  0  0  0
   -1.2173   -3.9294   26.9717 O   0  0  0  0  0  0  0  0  0  0  0  0
   -1.0025   -5.0942   27.4586 C   0  0  0  0  0  0  0  0  0  0  0  0
    2.2474   -8.9123   16.6273 C   0  0  0  0  0  0  0  0  0  0  0  0
    4.4957   -9.2636   17.3041 C   0  0  0  0  0  0  0  0  0  0  0  0
   -1.8070   -5.6086   28.1920 O   0  0  0  0  0  0  0  0  0  0  0  0
   10.4296   -5.1799   28.3140 C   0  0  0  0  0  0  0  0  0  0  0  0
    6.6017   -5.9004   26.9187 C   0  0  0  0  0  0  0  0  0  0  0  0
    2.4761   -6.9940   26.4111 N   0  0  0  0  0  0  0  0  0  0  0  0
    9.1353   -5.4053   27.8239 C   0  0  0  0  0  0  0  0  0  0  0  0
    0.9922   -9.3232   16.5995 O   0  0  0  0  0  0  0  0  0  0  0  0
    1.5232   -7.6869   27.1182 C   0  0  0  0  0  0  0  0  0  0  0  0
    8.6878   -6.6715   27.7262 N   0  0  0  0  0  0  0  0  0  0  0  0
    6.9911   -8.2423   27.1808 C   0  0  0  0  0  0  0  0  0  0  0  0
    3.8436   -7.2758   16.0578 C   0  0  0  0  0  0  0  0  0  0  0  0
    3.1882   -9.7190   17.2566 C   0  0  0  0  0  0  0  0  0  0  0  0
    5.3488   -6.1737   26.5092 C   0  0  0  0  0  0  0  0  0  0  0  0
    7.4567   -6.9464   27.2858 C   0  0  0  0  0  0  0  0  0  0  0  0
    0.1921   -5.7592   27.1123 C   0  0  0  0  0  0  0  0  0  0  0  0
    3.5517   -7.7407   25.9711 C   0  0  0  0  0  0  0  0  0  0  0  0
  1  4  4  0
  1 22  4  0
  2 20  4  0
  2 27  4  0
  3 12  4  0
  3 23  4  0
  4 25  4  0
  4 28  1  0
  5  8  4  0
  5 17  4  0
  6  7  4  0
  6 16  4  0
  7 18  4  0
  8 27  4  0
  9 13  4  0
  9 23  4  0
 10 11  1  0
 11 14  2  0
 11 27  1  0
 12 19  1  0
 12 24  4  0
 13 24  4  0
 15 18  1  0
 16 25  4  0
 16 26  4  0
 17 20  4  0
 17 28  1  0
 18 21  4  0
 21 26  4  0
 22 26  4  0
M  END
$$$$

 Created by Python create_sdf_string function

 28 30  0  0  0  0  0  0  0  0999 V2000
    5.7174   -8.4529   26.7190 C   0  0  0  0  0  0  0  0  0  0  0  0
    0.3974   -7.0711   27.5149 C   0  0  0  0  0  0  0  0  0  0  0  0
    2.5338   -7.6891   16.0102 C   0  0  0  0  0  0  0  0  0  0  0  0
    4.8690   -7.4380   26.4151 C   0  0  0  0  0  0  0  0  0  0  0  0
    2.3021   -5.6726   26.0378 C   0  0  0  0  0  0  0  0  0  0  0  0
    7.0880   -4.6163   27.0010 C   0  0  0  0  0  0  0  0  0  0  0  0
    8.3117   -4.3698   27.4436 C   0  0  0  0  0  0  0  0  0  0  0  0
    1.1339   -5.0515   26.3541 C   0  0  0  0  0  0  0  0  0  0  0  0
    4.8080   -8.0362   16.7101 C   0  0  0  0  0  0  0  0  0  0  0  0
   -1.2173   -3.9294   26.9717 O   0  0  0  0  0  0  0  0  0  0  0  0
   -1.0025   -5.0942   27.4586 C   0  0  0  0  0  0  0  0  0  0  0  0
    2.2474   -8.9123   16.6273 C   0  0  0  0  0  0  0  0  0  0  0  0
    4.4957   -9.2636   17.3041 C   0  0  0  0  0  0  0  0  0  0  0  0
   -1.8070   -5.6086   28.1920 O   0  0  0  0  0  0  0  0  0  0  0  0
   10.4296   -5.1799   28.3140 C   0  0  0  0  0  0  0  0  0  0  0  0
    6.6017   -5.9004   26.9187 C   0  0  0  0  0  0  0  0  0  0  0  0
    2.4761   -6.9940   26.4111 N   0  0  0  0  0  0  0  0  0  0  0  0
    9.1353   -5.4053   27.8239 C   0  0  0  0  0  0  0  0  0  0  0  0
    0.9922   -9.3232   16.5995 O   0  0  0  0  0  0  0  0  0  0  0  0
    1.5232   -7.6869   27.1182 C   0  0  0  0  0  0  0  0  0  0  0  0
    8.6878   -6.6715   27.7262 N   0  0  0  0  0  0  0  0  0  0  0  0
    6.9911   -8.2423   27.1808 C   0  0  0  0  0  0  0  0  0  0  0  0
    3.8436   -7.2758   16.0578 C   0  0  0  0  0  0  0  0  0  0  0  0
    3.1882   -9.7190   17.2566 C   0  0  0  0  0  0  0  0  0  0  0  0
    5.3488   -6.1737   26.5092 C   0  0  0  0  0  0  0  0  0  0  0  0
    7.4567   -6.9464   27.2858 C   0  0  0  0  0  0  0  0  0  0  0  0
    0.1921   -5.7592   27.1123 C   0  0  0  0  0  0  0  0  0  0  0  0
    3.5517   -7.7407   25.9711 C   0  0  0  0  0  0  0  0  0  0  0  0
  1  4  4  0
  1 22  4  0
  2 20  4  0
  2 27  4  0
  3 12  4  0
  3 23  4  0
  4 25  4  0
  4 28  1  0
  5  8  4  0
  5 17  4  0
  6  7  4  0
  6 16  4  0
  7 18  4  0
  8 27  4  0
  9 13  4  0
  9 23  4  0
 10 11  1  0
 11 14  2  0
 11 27  1  0
 12 19  1  0
 12 24  4  0
 13 24  4  0
 15 18  1  0
 16 25  4  0
 16 26  4  0
 17 20  4  0
 17 28  1  0
 18 21  4  0
 21 26  4  0
 22 26  4  0
M  END
$$$$

 Created by Python create_sdf_string function

 28 30  0  0  0  0  0  0  0  0999 V2000
    5.7174   -8.4529   26.7190 C   0  0  0  0  0  0  0  0  0  0  0  0
    0.3974   -7.0711   27.5149 C   0  0  0  0  0  0  0  0  0  0  0  0
    2.5338   -7.6891   16.0102 C   0  0  0  0  0  0  0  0  0  0  0  0
    4.8690   -7.4380   26.4151 C   0  0  0  0  0  0  0  0  0  0  0  0
    2.3021   -5.6726   26.0378 C   0  0  0  0  0  0  0  0  0  0  0  0
    7.0880   -4.6163   27.0010 C   0  0  0  0  0  0  0  0  0  0  0  0
    8.3117   -4.3698   27.4436 C   0  0  0  0  0  0  0  0  0  0  0  0
    1.1339   -5.0515   26.3541 C   0  0  0  0  0  0  0  0  0  0  0  0
    4.8080   -8.0362   16.7101 C   0  0  0  0  0  0  0  0  0  0  0  0
   -1.2173   -3.9294   26.9717 O   0  0  0  0  0  0  0  0  0  0  0  0
   -1.0025   -5.0942   27.4586 C   0  0  0  0  0  0  0  0  0  0  0  0
    2.2474   -8.9123   16.6273 C   0  0  0  0  0  0  0  0  0  0  0  0
    4.4957   -9.2636   17.3041 C   0  0  0  0  0  0  0  0  0  0  0  0
   -1.8070   -5.6086   28.1920 O   0  0  0  0  0  0  0  0  0  0  0  0
   10.4296   -5.1799   28.3140 C   0  0  0  0  0  0  0  0  0  0  0  0
    6.6017   -5.9004   26.9187 C   0  0  0  0  0  0  0  0  0  0  0  0
    2.4761   -6.9940   26.4111 N   0  0  0  0  0  0  0  0  0  0  0  0
    9.1353   -5.4053   27.8239 C   0  0  0  0  0  0  0  0  0  0  0  0
    0.9922   -9.3232   16.5995 O   0  0  0  0  0  0  0  0  0  0  0  0
    1.5232   -7.6869   27.1182 C   0  0  0  0  0  0  0  0  0  0  0  0
    8.6878   -6.6715   27.7262 N   0  0  0  0  0  0  0  0  0  0  0  0
    6.9911   -8.2423   27.1808 C   0  0  0  0  0  0  0  0  0  0  0  0
    3.8436   -7.2758   16.0578 C   0  0  0  0  0  0  0  0  0  0  0  0
    3.1882   -9.7190   17.2566 C   0  0  0  0  0  0  0  0  0  0  0  0
    5.3488   -6.1737   26.5092 C   0  0  0  0  0  0  0  0  0  0  0  0
    7.4567   -6.9464   27.2858 C   0  0  0  0  0  0  0  0  0  0  0  0
    0.1921   -5.7592   27.1123 C   0  0  0  0  0  0  0  0  0  0  0  0
    3.5517   -7.7407   25.9711 C   0  0  0  0  0  0  0  0  0  0  0  0
  1  4  4  0
  1 22  4  0
  2 20  4  0
  2 27  4  0
  3 12  4  0
  3 23  4  0
  4 25  4  0
  4 28  1  0
  5  8  4  0
  5 17  4  0
  6  7  4  0
  6 16  4  0
  7 18  4  0
  8 27  4  0
  9 13  4  0
  9 23  4  0
 10 11  1  0
 11 14  2  0
 11 27  1  0
 12 19  1  0
 12 24  4  0
 13 24  4  0
 15 18  1  0
 16 25  4  0
 16 26  4  0
 17 20  4  0
 17 28  1  0
 18 21  4  0
 21 26  4  0
 22 26  4  0
M  END
$$$$

 Created by Python create_sdf_string function

 28 30  0  0  0  0  0  0  0  0999 V2000
    5.7174   -8.4529   26.7190 C   0  0  0  0  0  0  0  0  0  0  0  0
    0.3974   -7.0711   27.5149 C   0  0  0  0  0  0  0  0  0  0  0  0
    2.5338   -7.6891   16.0102 C   0  0  0  0  0  0  0  0  0  0  0  0
    4.8690   -7.4380   26.4151 C   0  0  0  0  0  0  0  0  0  0  0  0
    2.3021   -5.6726   26.0378 C   0  0  0  0  0  0  0  0  0  0  0  0
    7.0880   -4.6163   27.0010 C   0  0  0  0  0  0  0  0  0  0  0  0
    8.3117   -4.3698   27.4436 C   0  0  0  0  0  0  0  0  0  0  0  0
    1.1339   -5.0515   26.3541 C   0  0  0  0  0  0  0  0  0  0  0  0
    4.8080   -8.0362   16.7101 C   0  0  0  0  0  0  0  0  0  0  0  0
   -1.2173   -3.9294   26.9717 O   0  0  0  0  0  0  0  0  0  0  0  0
   -1.0025   -5.0942   27.4586 C   0  0  0  0  0  0  0  0  0  0  0  0
    2.2474   -8.9123   16.6273 C   0  0  0  0  0  0  0  0  0  0  0  0
    4.4957   -9.2636   17.3041 C   0  0  0  0  0  0  0  0  0  0  0  0
   -1.8070   -5.6086   28.1920 O   0  0  0  0  0  0  0  0  0  0  0  0
   10.4296   -5.1799   28.3140 C   0  0  0  0  0  0  0  0  0  0  0  0
    6.6017   -5.9004   26.9187 C   0  0  0  0  0  0  0  0  0  0  0  0
    2.4761   -6.9940   26.4111 N   0  0  0  0  0  0  0  0  0  0  0  0
    9.1353   -5.4053   27.8239 C   0  0  0  0  0  0  0  0  0  0  0  0
    0.9922   -9.3232   16.5995 O   0  0  0  0  0  0  0  0  0  0  0  0
    1.5232   -7.6869   27.1182 C   0  0  0  0  0  0  0  0  0  0  0  0
    8.6878   -6.6715   27.7262 N   0  0  0  0  0  0  0  0  0  0  0  0
    6.9911   -8.2423   27.1808 C   0  0  0  0  0  0  0  0  0  0  0  0
    3.8436   -7.2758   16.0578 C   0  0  0  0  0  0  0  0  0  0  0  0
    3.1882   -9.7190   17.2566 C   0  0  0  0  0  0  0  0  0  0  0  0
    5.3488   -6.1737   26.5092 C   0  0  0  0  0  0  0  0  0  0  0  0
    7.4567   -6.9464   27.2858 C   0  0  0  0  0  0  0  0  0  0  0  0
    0.1921   -5.7592   27.1123 C   0  0  0  0  0  0  0  0  0  0  0  0
    3.5517   -7.7407   25.9711 C   0  0  0  0  0  0  0  0  0  0  0  0
  1  4  4  0
  1 22  4  0
  2 20  4  0
  2 27  4  0
  3 12  4  0
  3 23  4  0
  4 25  4  0
  4 28  1  0
  5  8  4  0
  5 17  4  0
  6  7  4  0
  6 16  4  0
  7 18  4  0
  8 27  4  0
  9 13  4  0
  9 23  4  0
 10 11  1  0
 11 14  2  0
 11 27  1  0
 12 19  1  0
 12 24  4  0
 13 24  4  0
 15 18  1  0
 16 25  4  0
 16 26  4  0
 17 20  4  0
 17 28  1  0
 18 21  4  0
 21 26  4  0
 22 26  4  0
M  END
$$$$

 Created by Python create_sdf_string function

 28 30  0  0  0  0  0  0  0  0999 V2000
    5.7174   -8.4529   26.7190 C   0  0  0  0  0  0  0  0  0  0  0  0
    0.3974   -7.0711   27.5149 C   0  0  0  0  0  0  0  0  0  0  0  0
    2.5338   -7.6891   16.0102 C   0  0  0  0  0  0  0  0  0  0  0  0
    4.8690   -7.4380   26.4151 C   0  0  0  0  0  0  0  0  0  0  0  0
    2.3021   -5.6726   26.0378 C   0  0  0  0  0  0  0  0  0  0  0  0
    7.0880   -4.6163   27.0010 C   0  0  0  0  0  0  0  0  0  0  0  0
    8.3117   -4.3698   27.4436 C   0  0  0  0  0  0  0  0  0  0  0  0
    1.1339   -5.0515   26.3541 C   0  0  0  0  0  0  0  0  0  0  0  0
    4.8080   -8.0362   16.7101 C   0  0  0  0  0  0  0  0  0  0  0  0
   -1.2173   -3.9294   26.9717 O   0  0  0  0  0  0  0  0  0  0  0  0
   -1.0025   -5.0942   27.4586 C   0  0  0  0  0  0  0  0  0  0  0  0
    2.2474   -8.9123   16.6273 C   0  0  0  0  0  0  0  0  0  0  0  0
    4.4957   -9.2636   17.3041 C   0  0  0  0  0  0  0  0  0  0  0  0
   -1.8070   -5.6086   28.1920 O   0  0  0  0  0  0  0  0  0  0  0  0
   10.4296   -5.1799   28.3140 C   0  0  0  0  0  0  0  0  0  0  0  0
    6.6017   -5.9004   26.9187 C   0  0  0  0  0  0  0  0  0  0  0  0
    2.4761   -6.9940   26.4111 N   0  0  0  0  0  0  0  0  0  0  0  0
    9.1353   -5.4053   27.8239 C   0  0  0  0  0  0  0  0  0  0  0  0
    0.9922   -9.3232   16.5995 O   0  0  0  0  0  0  0  0  0  0  0  0
    1.5232   -7.6869   27.1182 C   0  0  0  0  0  0  0  0  0  0  0  0
    8.6878   -6.6715   27.7262 N   0  0  0  0  0  0  0  0  0  0  0  0
    6.9911   -8.2423   27.1808 C   0  0  0  0  0  0  0  0  0  0  0  0
    3.8436   -7.2758   16.0578 C   0  0  0  0  0  0  0  0  0  0  0  0
    3.1882   -9.7190   17.2566 C   0  0  0  0  0  0  0  0  0  0  0  0
    5.3488   -6.1737   26.5092 C   0  0  0  0  0  0  0  0  0  0  0  0
    7.4567   -6.9464   27.2858 C   0  0  0  0  0  0  0  0  0  0  0  0
    0.1921   -5.7592   27.1123 C   0  0  0  0  0  0  0  0  0  0  0  0
    3.5517   -7.7407   25.9711 C   0  0  0  0  0  0  0  0  0  0  0  0
  1  4  4  0
  1 22  4  0
  2 20  4  0
  2 27  4  0
  3 12  4  0
  3 23  4  0
  4 25  4  0
  4 28  1  0
  5  8  4  0
  5 17  4  0
  6  7  4  0
  6 16  4  0
  7 18  4  0
  8 27  4  0
  9 13  4  0
  9 23  4  0
 10 11  1  0
 11 14  2  0
 11 27  1  0
 12 19  1  0
 12 24  4  0
 13 24  4  0
 15 18  1  0
 16 25  4  0
 16 26  4  0
 17 20  4  0
 17 28  1  0
 18 21  4  0
 21 26  4  0
 22 26  4  0
M  END
$$$$

 Created by Python create_sdf_string function

 28 30  0  0  0  0  0  0  0  0999 V2000
    5.7174   -8.4529   26.7190 C   0  0  0  0  0  0  0  0  0  0  0  0
    0.3974   -7.0711   27.5149 C   0  0  0  0  0  0  0  0  0  0  0  0
    2.5338   -7.6891   16.0102 C   0  0  0  0  0  0  0  0  0  0  0  0
    4.8690   -7.4380   26.4151 C   0  0  0  0  0  0  0  0  0  0  0  0
    2.3021   -5.6726   26.0378 C   0  0  0  0  0  0  0  0  0  0  0  0
    7.0880   -4.6163   27.0010 C   0  0  0  0  0  0  0  0  0  0  0  0
    8.3117   -4.3698   27.4436 C   0  0  0  0  0  0  0  0  0  0  0  0
    1.1339   -5.0515   26.3541 C   0  0  0  0  0  0  0  0  0  0  0  0
    4.8080   -8.0362   16.7101 C   0  0  0  0  0  0  0  0  0  0  0  0
   -1.2173   -3.9294   26.9717 O   0  0  0  0  0  0  0  0  0  0  0  0
   -1.0025   -5.0942   27.4586 C   0  0  0  0  0  0  0  0  0  0  0  0
    2.2474   -8.9123   16.6273 C   0  0  0  0  0  0  0  0  0  0  0  0
    4.4957   -9.2636   17.3041 C   0  0  0  0  0  0  0  0  0  0  0  0
   -1.8070   -5.6086   28.1920 O   0  0  0  0  0  0  0  0  0  0  0  0
   10.4296   -5.1799   28.3140 C   0  0  0  0  0  0  0  0  0  0  0  0
    6.6017   -5.9004   26.9187 C   0  0  0  0  0  0  0  0  0  0  0  0
    2.4761   -6.9940   26.4111 N   0  0  0  0  0  0  0  0  0  0  0  0
    9.1353   -5.4053   27.8239 C   0  0  0  0  0  0  0  0  0  0  0  0
    0.9922   -9.3232   16.5995 O   0  0  0  0  0  0  0  0  0  0  0  0
    1.5232   -7.6869   27.1182 C   0  0  0  0  0  0  0  0  0  0  0  0
    8.6878   -6.6715   27.7262 N   0  0  0  0  0  0  0  0  0  0  0  0
    6.9911   -8.2423   27.1808 C   0  0  0  0  0  0  0  0  0  0  0  0
    3.8436   -7.2758   16.0578 C   0  0  0  0  0  0  0  0  0  0  0  0
    3.1882   -9.7190   17.2566 C   0  0  0  0  0  0  0  0  0  0  0  0
    5.3488   -6.1737   26.5092 C   0  0  0  0  0  0  0  0  0  0  0  0
    7.4567   -6.9464   27.2858 C   0  0  0  0  0  0  0  0  0  0  0  0
    0.1921   -5.7592   27.1123 C   0  0  0  0  0  0  0  0  0  0  0  0
    3.5517   -7.7407   25.9711 C   0  0  0  0  0  0  0  0  0  0  0  0
  1  4  4  0
  1 22  4  0
  2 20  4  0
  2 27  4  0
  3 12  4  0
  3 23  4  0
  4 25  4  0
  4 28  1  0
  5  8  4  0
  5 17  4  0
  6  7  4  0
  6 16  4  0
  7 18  4  0
  8 27  4  0
  9 13  4  0
  9 23  4  0
 10 11  1  0
 11 14  2  0
 11 27  1  0
 12 19  1  0
 12 24  4  0
 13 24  4  0
 15 18  1  0
 16 25  4  0
 16 26  4  0
 17 20  4  0
 17 28  1  0
 18 21  4  0
 21 26  4  0
 22 26  4  0
M  END
$$$$

 Created by Python create_sdf_string function

 28 30  0  0  0  0  0  0  0  0999 V2000
    5.7174   -8.4529   26.7190 C   0  0  0  0  0  0  0  0  0  0  0  0
    0.3974   -7.0711   27.5149 C   0  0  0  0  0  0  0  0  0  0  0  0
    2.5338   -7.6891   16.0102 C   0  0  0  0  0  0  0  0  0  0  0  0
    4.8690   -7.4380   26.4151 C   0  0  0  0  0  0  0  0  0  0  0  0
    2.3021   -5.6726   26.0378 C   0  0  0  0  0  0  0  0  0  0  0  0
    7.0880   -4.6163   27.0010 C   0  0  0  0  0  0  0  0  0  0  0  0
    8.3117   -4.3698   27.4436 C   0  0  0  0  0  0  0  0  0  0  0  0
    1.1339   -5.0515   26.3541 C   0  0  0  0  0  0  0  0  0  0  0  0
    4.8080   -8.0362   16.7101 C   0  0  0  0  0  0  0  0  0  0  0  0
   -1.2173   -3.9294   26.9717 O   0  0  0  0  0  0  0  0  0  0  0  0
   -1.0025   -5.0942   27.4586 C   0  0  0  0  0  0  0  0  0  0  0  0
    2.2474   -8.9123   16.6273 C   0  0  0  0  0  0  0  0  0  0  0  0
    4.4957   -9.2636   17.3041 C   0  0  0  0  0  0  0  0  0  0  0  0
   -1.8070   -5.6086   28.1920 O   0  0  0  0  0  0  0  0  0  0  0  0
   10.4296   -5.1799   28.3140 C   0  0  0  0  0  0  0  0  0  0  0  0
    6.6017   -5.9004   26.9187 C   0  0  0  0  0  0  0  0  0  0  0  0
    2.4761   -6.9940   26.4111 N   0  0  0  0  0  0  0  0  0  0  0  0
    9.1353   -5.4053   27.8239 C   0  0  0  0  0  0  0  0  0  0  0  0
    0.9922   -9.3232   16.5995 O   0  0  0  0  0  0  0  0  0  0  0  0
    1.5232   -7.6869   27.1182 C   0  0  0  0  0  0  0  0  0  0  0  0
    8.6878   -6.6715   27.7262 N   0  0  0  0  0  0  0  0  0  0  0  0
    6.9911   -8.2423   27.1808 C   0  0  0  0  0  0  0  0  0  0  0  0
    3.8436   -7.2758   16.0578 C   0  0  0  0  0  0  0  0  0  0  0  0
    3.1882   -9.7190   17.2566 C   0  0  0  0  0  0  0  0  0  0  0  0
    5.3488   -6.1737   26.5092 C   0  0  0  0  0  0  0  0  0  0  0  0
    7.4567   -6.9464   27.2858 C   0  0  0  0  0  0  0  0  0  0  0  0
    0.1921   -5.7592   27.1123 C   0  0  0  0  0  0  0  0  0  0  0  0
    3.5517   -7.7407   25.9711 C   0  0  0  0  0  0  0  0  0  0  0  0
  1  4  4  0
  1 22  4  0
  2 20  4  0
  2 27  4  0
  3 12  4  0
  3 23  4  0
  4 25  4  0
  4 28  1  0
  5  8  4  0
  5 17  4  0
  6  7  4  0
  6 16  4  0
  7 18  4  0
  8 27  4  0
  9 13  4  0
  9 23  4  0
 10 11  1  0
 11 14  2  0
 11 27  1  0
 12 19  1  0
 12 24  4  0
 13 24  4  0
 15 18  1  0
 16 25  4  0
 16 26  4  0
 17 20  4  0
 17 28  1  0
 18 21  4  0
 21 26  4  0
 22 26  4  0
M  END
$$$$

 Created by Python create_sdf_string function

 28 30  0  0  0  0  0  0  0  0999 V2000
    5.7174   -8.4529   26.7190 C   0  0  0  0  0  0  0  0  0  0  0  0
    0.3974   -7.0711   27.5149 C   0  0  0  0  0  0  0  0  0  0  0  0
    2.5338   -7.6891   16.0102 C   0  0  0  0  0  0  0  0  0  0  0  0
    4.8690   -7.4380   26.4151 C   0  0  0  0  0  0  0  0  0  0  0  0
    2.3021   -5.6726   26.0378 C   0  0  0  0  0  0  0  0  0  0  0  0
    7.0880   -4.6163   27.0010 C   0  0  0  0  0  0  0  0  0  0  0  0
    8.3117   -4.3698   27.4436 C   0  0  0  0  0  0  0  0  0  0  0  0
    1.1339   -5.0515   26.3541 C   0  0  0  0  0  0  0  0  0  0  0  0
    4.8080   -8.0362   16.7101 C   0  0  0  0  0  0  0  0  0  0  0  0
   -1.2173   -3.9294   26.9717 O   0  0  0  0  0  0  0  0  0  0  0  0
   -1.0025   -5.0942   27.4586 C   0  0  0  0  0  0  0  0  0  0  0  0
    2.2474   -8.9123   16.6273 C   0  0  0  0  0  0  0  0  0  0  0  0
    4.4957   -9.2636   17.3041 C   0  0  0  0  0  0  0  0  0  0  0  0
   -1.8070   -5.6086   28.1920 O   0  0  0  0  0  0  0  0  0  0  0  0
   10.4296   -5.1799   28.3140 C   0  0  0  0  0  0  0  0  0  0  0  0
    6.6017   -5.9004   26.9187 C   0  0  0  0  0  0  0  0  0  0  0  0
    2.4761   -6.9940   26.4111 N   0  0  0  0  0  0  0  0  0  0  0  0
    9.1353   -5.4053   27.8239 C   0  0  0  0  0  0  0  0  0  0  0  0
    0.9922   -9.3232   16.5995 O   0  0  0  0  0  0  0  0  0  0  0  0
    1.5232   -7.6869   27.1182 C   0  0  0  0  0  0  0  0  0  0  0  0
    8.6878   -6.6715   27.7262 N   0  0  0  0  0  0  0  0  0  0  0  0
    6.9911   -8.2423   27.1808 C   0  0  0  0  0  0  0  0  0  0  0  0
    3.8436   -7.2758   16.0578 C   0  0  0  0  0  0  0  0  0  0  0  0
    3.1882   -9.7190   17.2566 C   0  0  0  0  0  0  0  0  0  0  0  0
    5.3488   -6.1737   26.5092 C   0  0  0  0  0  0  0  0  0  0  0  0
    7.4567   -6.9464   27.2858 C   0  0  0  0  0  0  0  0  0  0  0  0
    0.1921   -5.7592   27.1123 C   0  0  0  0  0  0  0  0  0  0  0  0
    3.5517   -7.7407   25.9711 C   0  0  0  0  0  0  0  0  0  0  0  0
  1  4  4  0
  1 22  4  0
  2 20  4  0
  2 27  4  0
  3 12  4  0
  3 23  4  0
  4 25  4  0
  4 28  1  0
  5  8  4  0
  5 17  4  0
  6  7  4  0
  6 16  4  0
  7 18  4  0
  8 27  4  0
  9 13  4  0
  9 23  4  0
 10 11  1  0
 11 14  2  0
 11 27  1  0
 12 19  1  0
 12 24  4  0
 13 24  4  0
 15 18  1  0
 16 25  4  0
 16 26  4  0
 17 20  4  0
 17 28  1  0
 18 21  4  0
 21 26  4  0
 22 26  4  0
M  END
$$$$

 Created by Python create_sdf_string function

 28 30  0  0  0  0  0  0  0  0999 V2000
    5.7174   -8.4529   26.7190 C   0  0  0  0  0  0  0  0  0  0  0  0
    0.3974   -7.0711   27.5149 C   0  0  0  0  0  0  0  0  0  0  0  0
    2.5338   -7.6891   16.0102 C   0  0  0  0  0  0  0  0  0  0  0  0
    4.8690   -7.4380   26.4151 C   0  0  0  0  0  0  0  0  0  0  0  0
    2.3021   -5.6726   26.0378 C   0  0  0  0  0  0  0  0  0  0  0  0
    7.0880   -4.6163   27.0010 C   0  0  0  0  0  0  0  0  0  0  0  0
    8.3117   -4.3698   27.4436 C   0  0  0  0  0  0  0  0  0  0  0  0
    1.1339   -5.0515   26.3541 C   0  0  0  0  0  0  0  0  0  0  0  0
    4.8080   -8.0362   16.7101 C   0  0  0  0  0  0  0  0  0  0  0  0
   -1.2173   -3.9294   26.9717 O   0  0  0  0  0  0  0  0  0  0  0  0
   -1.0025   -5.0942   27.4586 C   0  0  0  0  0  0  0  0  0  0  0  0
    2.2474   -8.9123   16.6273 C   0  0  0  0  0  0  0  0  0  0  0  0
    4.4957   -9.2636   17.3041 C   0  0  0  0  0  0  0  0  0  0  0  0
   -1.8070   -5.6086   28.1920 O   0  0  0  0  0  0  0  0  0  0  0  0
   10.4296   -5.1799   28.3140 C   0  0  0  0  0  0  0  0  0  0  0  0
    6.6017   -5.9004   26.9187 C   0  0  0  0  0  0  0  0  0  0  0  0
    2.4761   -6.9940   26.4111 N   0  0  0  0  0  0  0  0  0  0  0  0
    9.1353   -5.4053   27.8239 C   0  0  0  0  0  0  0  0  0  0  0  0
    0.9922   -9.3232   16.5995 O   0  0  0  0  0  0  0  0  0  0  0  0
    1.5232   -7.6869   27.1182 C   0  0  0  0  0  0  0  0  0  0  0  0
    8.6878   -6.6715   27.7262 N   0  0  0  0  0  0  0  0  0  0  0  0
    6.9911   -8.2423   27.1808 C   0  0  0  0  0  0  0  0  0  0  0  0
    3.8436   -7.2758   16.0578 C   0  0  0  0  0  0  0  0  0  0  0  0
    3.1882   -9.7190   17.2566 C   0  0  0  0  0  0  0  0  0  0  0  0
    5.3488   -6.1737   26.5092 C   0  0  0  0  0  0  0  0  0  0  0  0
    7.4567   -6.9464   27.2858 C   0  0  0  0  0  0  0  0  0  0  0  0
    0.1921   -5.7592   27.1123 C   0  0  0  0  0  0  0  0  0  0  0  0
    3.5517   -7.7407   25.9711 C   0  0  0  0  0  0  0  0  0  0  0  0
  1  4  4  0
  1 22  4  0
  2 20  4  0
  2 27  4  0
  3 12  4  0
  3 23  4  0
  4 25  4  0
  4 28  1  0
  5  8  4  0
  5 17  4  0
  6  7  4  0
  6 16  4  0
  7 18  4  0
  8 27  4  0
  9 13  4  0
  9 23  4  0
 10 11  1  0
 11 14  2  0
 11 27  1  0
 12 19  1  0
 12 24  4  0
 13 24  4  0
 15 18  1  0
 16 25  4  0
 16 26  4  0
 17 20  4  0
 17 28  1  0
 18 21  4  0
 21 26  4  0
 22 26  4  0
M  END
$$$$

 Created by Python create_sdf_string function

 28 30  0  0  0  0  0  0  0  0999 V2000
    5.7174   -8.4529   26.7190 C   0  0  0  0  0  0  0  0  0  0  0  0
    0.3974   -7.0711   27.5149 C   0  0  0  0  0  0  0  0  0  0  0  0
    2.5338   -7.6891   16.0102 C   0  0  0  0  0  0  0  0  0  0  0  0
    4.8690   -7.4380   26.4151 C   0  0  0  0  0  0  0  0  0  0  0  0
    2.3021   -5.6726   26.0378 C   0  0  0  0  0  0  0  0  0  0  0  0
    7.0880   -4.6163   27.0010 C   0  0  0  0  0  0  0  0  0  0  0  0
    8.3117   -4.3698   27.4436 C   0  0  0  0  0  0  0  0  0  0  0  0
    1.1339   -5.0515   26.3541 C   0  0  0  0  0  0  0  0  0  0  0  0
    4.8080   -8.0362   16.7101 C   0  0  0  0  0  0  0  0  0  0  0  0
   -1.2173   -3.9294   26.9717 O   0  0  0  0  0  0  0  0  0  0  0  0
   -1.0025   -5.0942   27.4586 C   0  0  0  0  0  0  0  0  0  0  0  0
    2.2474   -8.9123   16.6273 C   0  0  0  0  0  0  0  0  0  0  0  0
    4.4957   -9.2636   17.3041 C   0  0  0  0  0  0  0  0  0  0  0  0
   -1.8070   -5.6086   28.1920 O   0  0  0  0  0  0  0  0  0  0  0  0
   10.4296   -5.1799   28.3140 C   0  0  0  0  0  0  0  0  0  0  0  0
    6.6017   -5.9004   26.9187 C   0  0  0  0  0  0  0  0  0  0  0  0
    2.4761   -6.9940   26.4111 N   0  0  0  0  0  0  0  0  0  0  0  0
    9.1353   -5.4053   27.8239 C   0  0  0  0  0  0  0  0  0  0  0  0
    0.9922   -9.3232   16.5995 O   0  0  0  0  0  0  0  0  0  0  0  0
    1.5232   -7.6869   27.1182 C   0  0  0  0  0  0  0  0  0  0  0  0
    8.6878   -6.6715   27.7262 N   0  0  0  0  0  0  0  0  0  0  0  0
    6.9911   -8.2423   27.1808 C   0  0  0  0  0  0  0  0  0  0  0  0
    3.8436   -7.2758   16.0578 C   0  0  0  0  0  0  0  0  0  0  0  0
    3.1882   -9.7190   17.2566 C   0  0  0  0  0  0  0  0  0  0  0  0
    5.3488   -6.1737   26.5092 C   0  0  0  0  0  0  0  0  0  0  0  0
    7.4567   -6.9464   27.2858 C   0  0  0  0  0  0  0  0  0  0  0  0
    0.1921   -5.7592   27.1123 C   0  0  0  0  0  0  0  0  0  0  0  0
    3.5517   -7.7407   25.9711 C   0  0  0  0  0  0  0  0  0  0  0  0
  1  4  4  0
  1 22  4  0
  2 20  4  0
  2 27  4  0
  3 12  4  0
  3 23  4  0
  4 25  4  0
  4 28  1  0
  5  8  4  0
  5 17  4  0
  6  7  4  0
  6 16  4  0
  7 18  4  0
  8 27  4  0
  9 13  4  0
  9 23  4  0
 10 11  1  0
 11 14  2  0
 11 27  1  0
 12 19  1  0
 12 24  4  0
 13 24  4  0
 15 18  1  0
 16 25  4  0
 16 26  4  0
 17 20  4  0
 17 28  1  0
 18 21  4  0
 21 26  4  0
 22 26  4  0
M  END
$$$$

 Created by Python create_sdf_string function

 28 30  0  0  0  0  0  0  0  0999 V2000
    5.7174   -8.4529   26.7190 C   0  0  0  0  0  0  0  0  0  0  0  0
    0.3974   -7.0711   27.5149 C   0  0  0  0  0  0  0  0  0  0  0  0
    2.5338   -7.6891   16.0102 C   0  0  0  0  0  0  0  0  0  0  0  0
    4.8690   -7.4380   26.4151 C   0  0  0  0  0  0  0  0  0  0  0  0
    2.3021   -5.6726   26.0378 C   0  0  0  0  0  0  0  0  0  0  0  0
    7.0880   -4.6163   27.0010 C   0  0  0  0  0  0  0  0  0  0  0  0
    8.3117   -4.3698   27.4436 C   0  0  0  0  0  0  0  0  0  0  0  0
    1.1339   -5.0515   26.3541 C   0  0  0  0  0  0  0  0  0  0  0  0
    4.8080   -8.0362   16.7101 C   0  0  0  0  0  0  0  0  0  0  0  0
   -1.2173   -3.9294   26.9717 O   0  0  0  0  0  0  0  0  0  0  0  0
   -1.0025   -5.0942   27.4586 C   0  0  0  0  0  0  0  0  0  0  0  0
    2.2474   -8.9123   16.6273 C   0  0  0  0  0  0  0  0  0  0  0  0
    4.4957   -9.2636   17.3041 C   0  0  0  0  0  0  0  0  0  0  0  0
   -1.8070   -5.6086   28.1920 O   0  0  0  0  0  0  0  0  0  0  0  0
   10.4296   -5.1799   28.3140 C   0  0  0  0  0  0  0  0  0  0  0  0
    6.6017   -5.9004   26.9187 C   0  0  0  0  0  0  0  0  0  0  0  0
    2.4761   -6.9940   26.4111 N   0  0  0  0  0  0  0  0  0  0  0  0
    9.1353   -5.4053   27.8239 C   0  0  0  0  0  0  0  0  0  0  0  0
    0.9922   -9.3232   16.5995 O   0  0  0  0  0  0  0  0  0  0  0  0
    1.5232   -7.6869   27.1182 C   0  0  0  0  0  0  0  0  0  0  0  0
    8.6878   -6.6715   27.7262 N   0  0  0  0  0  0  0  0  0  0  0  0
    6.9911   -8.2423   27.1808 C   0  0  0  0  0  0  0  0  0  0  0  0
    3.8436   -7.2758   16.0578 C   0  0  0  0  0  0  0  0  0  0  0  0
    3.1882   -9.7190   17.2566 C   0  0  0  0  0  0  0  0  0  0  0  0
    5.3488   -6.1737   26.5092 C   0  0  0  0  0  0  0  0  0  0  0  0
    7.4567   -6.9464   27.2858 C   0  0  0  0  0  0  0  0  0  0  0  0
    0.1921   -5.7592   27.1123 C   0  0  0  0  0  0  0  0  0  0  0  0
    3.5517   -7.7407   25.9711 C   0  0  0  0  0  0  0  0  0  0  0  0
  1  4  4  0
  1 22  4  0
  2 20  4  0
  2 27  4  0
  3 12  4  0
  3 23  4  0
  4 25  4  0
  4 28  1  0
  5  8  4  0
  5 17  4  0
  6  7  4  0
  6 16  4  0
  7 18  4  0
  8 27  4  0
  9 13  4  0
  9 23  4  0
 10 11  1  0
 11 14  2  0
 11 27  1  0
 12 19  1  0
 12 24  4  0
 13 24  4  0
 15 18  1  0
 16 25  4  0
 16 26  4  0
 17 20  4  0
 17 28  1  0
 18 21  4  0
 21 26  4  0
 22 26  4  0
M  END
$$$$

 Created by Python create_sdf_string function

 28 30  0  0  0  0  0  0  0  0999 V2000
    5.7174   -8.4529   26.7190 C   0  0  0  0  0  0  0  0  0  0  0  0
    0.3974   -7.0711   27.5149 C   0  0  0  0  0  0  0  0  0  0  0  0
    2.5338   -7.6891   16.0102 C   0  0  0  0  0  0  0  0  0  0  0  0
    4.8690   -7.4380   26.4151 C   0  0  0  0  0  0  0  0  0  0  0  0
    2.3021   -5.6726   26.0378 C   0  0  0  0  0  0  0  0  0  0  0  0
    7.0880   -4.6163   27.0010 C   0  0  0  0  0  0  0  0  0  0  0  0
    8.3117   -4.3698   27.4436 C   0  0  0  0  0  0  0  0  0  0  0  0
    1.1339   -5.0515   26.3541 C   0  0  0  0  0  0  0  0  0  0  0  0
    4.8080   -8.0362   16.7101 C   0  0  0  0  0  0  0  0  0  0  0  0
   -1.2173   -3.9294   26.9717 O   0  0  0  0  0  0  0  0  0  0  0  0
   -1.0025   -5.0942   27.4586 C   0  0  0  0  0  0  0  0  0  0  0  0
    2.2474   -8.9123   16.6273 C   0  0  0  0  0  0  0  0  0  0  0  0
    4.4957   -9.2636   17.3041 C   0  0  0  0  0  0  0  0  0  0  0  0
   -1.8070   -5.6086   28.1920 O   0  0  0  0  0  0  0  0  0  0  0  0
   10.4296   -5.1799   28.3140 C   0  0  0  0  0  0  0  0  0  0  0  0
    6.6017   -5.9004   26.9187 C   0  0  0  0  0  0  0  0  0  0  0  0
    2.4761   -6.9940   26.4111 N   0  0  0  0  0  0  0  0  0  0  0  0
    9.1353   -5.4053   27.8239 C   0  0  0  0  0  0  0  0  0  0  0  0
    0.9922   -9.3232   16.5995 O   0  0  0  0  0  0  0  0  0  0  0  0
    1.5232   -7.6869   27.1182 C   0  0  0  0  0  0  0  0  0  0  0  0
    8.6878   -6.6715   27.7262 N   0  0  0  0  0  0  0  0  0  0  0  0
    6.9911   -8.2423   27.1808 C   0  0  0  0  0  0  0  0  0  0  0  0
    3.8436   -7.2758   16.0578 C   0  0  0  0  0  0  0  0  0  0  0  0
    3.1882   -9.7190   17.2566 C   0  0  0  0  0  0  0  0  0  0  0  0
    5.3488   -6.1737   26.5092 C   0  0  0  0  0  0  0  0  0  0  0  0
    7.4567   -6.9464   27.2858 C   0  0  0  0  0  0  0  0  0  0  0  0
    0.1921   -5.7592   27.1123 C   0  0  0  0  0  0  0  0  0  0  0  0
    3.5517   -7.7407   25.9711 C   0  0  0  0  0  0  0  0  0  0  0  0
  1  4  4  0
  1 22  4  0
  2 20  4  0
  2 27  4  0
  3 12  4  0
  3 23  4  0
  4 25  4  0
  4 28  1  0
  5  8  4  0
  5 17  4  0
  6  7  4  0
  6 16  4  0
  7 18  4  0
  8 27  4  0
  9 13  4  0
  9 23  4  0
 10 11  1  0
 11 14  2  0
 11 27  1  0
 12 19  1  0
 12 24  4  0
 13 24  4  0
 15 18  1  0
 16 25  4  0
 16 26  4  0
 17 20  4  0
 17 28  1  0
 18 21  4  0
 21 26  4  0
 22 26  4  0
M  END
$$$$

 Created by Python create_sdf_string function

 28 30  0  0  0  0  0  0  0  0999 V2000
    5.7174   -8.4529   26.7190 C   0  0  0  0  0  0  0  0  0  0  0  0
    0.3974   -7.0711   27.5149 C   0  0  0  0  0  0  0  0  0  0  0  0
    2.5338   -7.6891   16.0102 C   0  0  0  0  0  0  0  0  0  0  0  0
    4.8690   -7.4380   26.4151 C   0  0  0  0  0  0  0  0  0  0  0  0
    2.3021   -5.6726   26.0378 C   0  0  0  0  0  0  0  0  0  0  0  0
    7.0880   -4.6163   27.0010 C   0  0  0  0  0  0  0  0  0  0  0  0
    8.3117   -4.3698   27.4436 C   0  0  0  0  0  0  0  0  0  0  0  0
    1.1339   -5.0515   26.3541 C   0  0  0  0  0  0  0  0  0  0  0  0
    4.8080   -8.0362   16.7101 C   0  0  0  0  0  0  0  0  0  0  0  0
   -1.2173   -3.9294   26.9717 O   0  0  0  0  0  0  0  0  0  0  0  0
   -1.0025   -5.0942   27.4586 C   0  0  0  0  0  0  0  0  0  0  0  0
    2.2474   -8.9123   16.6273 C   0  0  0  0  0  0  0  0  0  0  0  0
    4.4957   -9.2636   17.3041 C   0  0  0  0  0  0  0  0  0  0  0  0
   -1.8070   -5.6086   28.1920 O   0  0  0  0  0  0  0  0  0  0  0  0
   10.4296   -5.1799   28.3140 C   0  0  0  0  0  0  0  0  0  0  0  0
    6.6017   -5.9004   26.9187 C   0  0  0  0  0  0  0  0  0  0  0  0
    2.4761   -6.9940   26.4111 N   0  0  0  0  0  0  0  0  0  0  0  0
    9.1353   -5.4053   27.8239 C   0  0  0  0  0  0  0  0  0  0  0  0
    0.9922   -9.3232   16.5995 O   0  0  0  0  0  0  0  0  0  0  0  0
    1.5232   -7.6869   27.1182 C   0  0  0  0  0  0  0  0  0  0  0  0
    8.6878   -6.6715   27.7262 N   0  0  0  0  0  0  0  0  0  0  0  0
    6.9911   -8.2423   27.1808 C   0  0  0  0  0  0  0  0  0  0  0  0
    3.8436   -7.2758   16.0578 C   0  0  0  0  0  0  0  0  0  0  0  0
    3.1882   -9.7190   17.2566 C   0  0  0  0  0  0  0  0  0  0  0  0
    5.3488   -6.1737   26.5092 C   0  0  0  0  0  0  0  0  0  0  0  0
    7.4567   -6.9464   27.2858 C   0  0  0  0  0  0  0  0  0  0  0  0
    0.1921   -5.7592   27.1123 C   0  0  0  0  0  0  0  0  0  0  0  0
    3.5517   -7.7407   25.9711 C   0  0  0  0  0  0  0  0  0  0  0  0
  1  4  4  0
  1 22  4  0
  2 20  4  0
  2 27  4  0
  3 12  4  0
  3 23  4  0
  4 25  4  0
  4 28  1  0
  5  8  4  0
  5 17  4  0
  6  7  4  0
  6 16  4  0
  7 18  4  0
  8 27  4  0
  9 13  4  0
  9 23  4  0
 10 11  1  0
 11 14  2  0
 11 27  1  0
 12 19  1  0
 12 24  4  0
 13 24  4  0
 15 18  1  0
 16 25  4  0
 16 26  4  0
 17 20  4  0
 17 28  1  0
 18 21  4  0
 21 26  4  0
 22 26  4  0
M  END
$$$$

 Created by Python create_sdf_string function

 28 30  0  0  0  0  0  0  0  0999 V2000
    5.7174   -8.4529   26.7190 C   0  0  0  0  0  0  0  0  0  0  0  0
    0.3974   -7.0711   27.5149 C   0  0  0  0  0  0  0  0  0  0  0  0
    2.5338   -7.6891   16.0102 C   0  0  0  0  0  0  0  0  0  0  0  0
    4.8690   -7.4380   26.4151 C   0  0  0  0  0  0  0  0  0  0  0  0
    2.3021   -5.6726   26.0378 C   0  0  0  0  0  0  0  0  0  0  0  0
    7.0880   -4.6163   27.0010 C   0  0  0  0  0  0  0  0  0  0  0  0
    8.3117   -4.3698   27.4436 C   0  0  0  0  0  0  0  0  0  0  0  0
    1.1339   -5.0515   26.3541 C   0  0  0  0  0  0  0  0  0  0  0  0
    4.8080   -8.0362   16.7101 C   0  0  0  0  0  0  0  0  0  0  0  0
   -1.2173   -3.9294   26.9717 O   0  0  0  0  0  0  0  0  0  0  0  0
   -1.0025   -5.0942   27.4586 C   0  0  0  0  0  0  0  0  0  0  0  0
    2.2474   -8.9123   16.6273 C   0  0  0  0  0  0  0  0  0  0  0  0
    4.4957   -9.2636   17.3041 C   0  0  0  0  0  0  0  0  0  0  0  0
   -1.8070   -5.6086   28.1920 O   0  0  0  0  0  0  0  0  0  0  0  0
   10.4296   -5.1799   28.3140 C   0  0  0  0  0  0  0  0  0  0  0  0
    6.6017   -5.9004   26.9187 C   0  0  0  0  0  0  0  0  0  0  0  0
    2.4761   -6.9940   26.4111 N   0  0  0  0  0  0  0  0  0  0  0  0
    9.1353   -5.4053   27.8239 C   0  0  0  0  0  0  0  0  0  0  0  0
    0.9922   -9.3232   16.5995 O   0  0  0  0  0  0  0  0  0  0  0  0
    1.5232   -7.6869   27.1182 C   0  0  0  0  0  0  0  0  0  0  0  0
    8.6878   -6.6715   27.7262 N   0  0  0  0  0  0  0  0  0  0  0  0
    6.9911   -8.2423   27.1808 C   0  0  0  0  0  0  0  0  0  0  0  0
    3.8436   -7.2758   16.0578 C   0  0  0  0  0  0  0  0  0  0  0  0
    3.1882   -9.7190   17.2566 C   0  0  0  0  0  0  0  0  0  0  0  0
    5.3488   -6.1737   26.5092 C   0  0  0  0  0  0  0  0  0  0  0  0
    7.4567   -6.9464   27.2858 C   0  0  0  0  0  0  0  0  0  0  0  0
    0.1921   -5.7592   27.1123 C   0  0  0  0  0  0  0  0  0  0  0  0
    3.5517   -7.7407   25.9711 C   0  0  0  0  0  0  0  0  0  0  0  0
  1  4  4  0
  1 22  4  0
  2 20  4  0
  2 27  4  0
  3 12  4  0
  3 23  4  0
  4 25  4  0
  4 28  1  0
  5  8  4  0
  5 17  4  0
  6  7  4  0
  6 16  4  0
  7 18  4  0
  8 27  4  0
  9 13  4  0
  9 23  4  0
 10 11  1  0
 11 14  2  0
 11 27  1  0
 12 19  1  0
 12 24  4  0
 13 24  4  0
 15 18  1  0
 16 25  4  0
 16 26  4  0
 17 20  4  0
 17 28  1  0
 18 21  4  0
 21 26  4  0
 22 26  4  0
M  END
$$$$

 Created by Python create_sdf_string function

 28 30  0  0  0  0  0  0  0  0999 V2000
    5.7174   -8.4529   26.7190 C   0  0  0  0  0  0  0  0  0  0  0  0
    0.3974   -7.0711   27.5149 C   0  0  0  0  0  0  0  0  0  0  0  0
    2.5338   -7.6891   16.0102 C   0  0  0  0  0  0  0  0  0  0  0  0
    4.8690   -7.4380   26.4151 C   0  0  0  0  0  0  0  0  0  0  0  0
    2.3021   -5.6726   26.0378 C   0  0  0  0  0  0  0  0  0  0  0  0
    7.0880   -4.6163   27.0010 C   0  0  0  0  0  0  0  0  0  0  0  0
    8.3117   -4.3698   27.4436 C   0  0  0  0  0  0  0  0  0  0  0  0
    1.1339   -5.0515   26.3541 C   0  0  0  0  0  0  0  0  0  0  0  0
    4.8080   -8.0362   16.7101 C   0  0  0  0  0  0  0  0  0  0  0  0
   -1.2173   -3.9294   26.9717 O   0  0  0  0  0  0  0  0  0  0  0  0
   -1.0025   -5.0942   27.4586 C   0  0  0  0  0  0  0  0  0  0  0  0
    2.2474   -8.9123   16.6273 C   0  0  0  0  0  0  0  0  0  0  0  0
    4.4957   -9.2636   17.3041 C   0  0  0  0  0  0  0  0  0  0  0  0
   -1.8070   -5.6086   28.1920 O   0  0  0  0  0  0  0  0  0  0  0  0
   10.4296   -5.1799   28.3140 C   0  0  0  0  0  0  0  0  0  0  0  0
    6.6017   -5.9004   26.9187 C   0  0  0  0  0  0  0  0  0  0  0  0
    2.4761   -6.9940   26.4111 N   0  0  0  0  0  0  0  0  0  0  0  0
    9.1353   -5.4053   27.8239 C   0  0  0  0  0  0  0  0  0  0  0  0
    0.9922   -9.3232   16.5995 O   0  0  0  0  0  0  0  0  0  0  0  0
    1.5232   -7.6869   27.1182 C   0  0  0  0  0  0  0  0  0  0  0  0
    8.6878   -6.6715   27.7262 N   0  0  0  0  0  0  0  0  0  0  0  0
    6.9911   -8.2423   27.1808 C   0  0  0  0  0  0  0  0  0  0  0  0
    3.8436   -7.2758   16.0578 C   0  0  0  0  0  0  0  0  0  0  0  0
    3.1882   -9.7190   17.2566 C   0  0  0  0  0  0  0  0  0  0  0  0
    5.3488   -6.1737   26.5092 C   0  0  0  0  0  0  0  0  0  0  0  0
    7.4567   -6.9464   27.2858 C   0  0  0  0  0  0  0  0  0  0  0  0
    0.1921   -5.7592   27.1123 C   0  0  0  0  0  0  0  0  0  0  0  0
    3.5517   -7.7407   25.9711 C   0  0  0  0  0  0  0  0  0  0  0  0
  1  4  4  0
  1 22  4  0
  2 20  4  0
  2 27  4  0
  3 12  4  0
  3 23  4  0
  4 25  4  0
  4 28  1  0
  5  8  4  0
  5 17  4  0
  6  7  4  0
  6 16  4  0
  7 18  4  0
  8 27  4  0
  9 13  4  0
  9 23  4  0
 10 11  1  0
 11 14  2  0
 11 27  1  0
 12 19  1  0
 12 24  4  0
 13 24  4  0
 15 18  1  0
 16 25  4  0
 16 26  4  0
 17 20  4  0
 17 28  1  0
 18 21  4  0
 21 26  4  0
 22 26  4  0
M  END
$$$$

 Created by Python create_sdf_string function

 28 30  0  0  0  0  0  0  0  0999 V2000
    5.7174   -8.4529   26.7190 C   0  0  0  0  0  0  0  0  0  0  0  0
    0.3974   -7.0711   27.5149 C   0  0  0  0  0  0  0  0  0  0  0  0
    2.5338   -7.6891   16.0102 C   0  0  0  0  0  0  0  0  0  0  0  0
    4.8690   -7.4380   26.4151 C   0  0  0  0  0  0  0  0  0  0  0  0
    2.3021   -5.6726   26.0378 C   0  0  0  0  0  0  0  0  0  0  0  0
    7.0880   -4.6163   27.0010 C   0  0  0  0  0  0  0  0  0  0  0  0
    8.3117   -4.3698   27.4436 C   0  0  0  0  0  0  0  0  0  0  0  0
    1.1339   -5.0515   26.3541 C   0  0  0  0  0  0  0  0  0  0  0  0
    4.8080   -8.0362   16.7101 C   0  0  0  0  0  0  0  0  0  0  0  0
   -1.2173   -3.9294   26.9717 O   0  0  0  0  0  0  0  0  0  0  0  0
   -1.0025   -5.0942   27.4586 C   0  0  0  0  0  0  0  0  0  0  0  0
    2.2474   -8.9123   16.6273 C   0  0  0  0  0  0  0  0  0  0  0  0
    4.4957   -9.2636   17.3041 C   0  0  0  0  0  0  0  0  0  0  0  0
   -1.8070   -5.6086   28.1920 O   0  0  0  0  0  0  0  0  0  0  0  0
   10.4296   -5.1799   28.3140 C   0  0  0  0  0  0  0  0  0  0  0  0
    6.6017   -5.9004   26.9187 C   0  0  0  0  0  0  0  0  0  0  0  0
    2.4761   -6.9940   26.4111 N   0  0  0  0  0  0  0  0  0  0  0  0
    9.1353   -5.4053   27.8239 C   0  0  0  0  0  0  0  0  0  0  0  0
    0.9922   -9.3232   16.5995 O   0  0  0  0  0  0  0  0  0  0  0  0
    1.5232   -7.6869   27.1182 C   0  0  0  0  0  0  0  0  0  0  0  0
    8.6878   -6.6715   27.7262 N   0  0  0  0  0  0  0  0  0  0  0  0
    6.9911   -8.2423   27.1808 C   0  0  0  0  0  0  0  0  0  0  0  0
    3.8436   -7.2758   16.0578 C   0  0  0  0  0  0  0  0  0  0  0  0
    3.1882   -9.7190   17.2566 C   0  0  0  0  0  0  0  0  0  0  0  0
    5.3488   -6.1737   26.5092 C   0  0  0  0  0  0  0  0  0  0  0  0
    7.4567   -6.9464   27.2858 C   0  0  0  0  0  0  0  0  0  0  0  0
    0.1921   -5.7592   27.1123 C   0  0  0  0  0  0  0  0  0  0  0  0
    3.5517   -7.7407   25.9711 C   0  0  0  0  0  0  0  0  0  0  0  0
  1  4  4  0
  1 22  4  0
  2 20  4  0
  2 27  4  0
  3 12  4  0
  3 23  4  0
  4 25  4  0
  4 28  1  0
  5  8  4  0
  5 17  4  0
  6  7  4  0
  6 16  4  0
  7 18  4  0
  8 27  4  0
  9 13  4  0
  9 23  4  0
 10 11  1  0
 11 14  2  0
 11 27  1  0
 12 19  1  0
 12 24  4  0
 13 24  4  0
 15 18  1  0
 16 25  4  0
 16 26  4  0
 17 20  4  0
 17 28  1  0
 18 21  4  0
 21 26  4  0
 22 26  4  0
M  END
$$$$

 Created by Python create_sdf_string function

 28 30  0  0  0  0  0  0  0  0999 V2000
    5.7174   -8.4529   26.7190 C   0  0  0  0  0  0  0  0  0  0  0  0
    0.3974   -7.0711   27.5149 C   0  0  0  0  0  0  0  0  0  0  0  0
    2.5338   -7.6891   16.0102 C   0  0  0  0  0  0  0  0  0  0  0  0
    4.8690   -7.4380   26.4151 C   0  0  0  0  0  0  0  0  0  0  0  0
    2.3021   -5.6726   26.0378 C   0  0  0  0  0  0  0  0  0  0  0  0
    7.0880   -4.6163   27.0010 C   0  0  0  0  0  0  0  0  0  0  0  0
    8.3117   -4.3698   27.4436 C   0  0  0  0  0  0  0  0  0  0  0  0
    1.1339   -5.0515   26.3541 C   0  0  0  0  0  0  0  0  0  0  0  0
    4.8080   -8.0362   16.7101 C   0  0  0  0  0  0  0  0  0  0  0  0
   -1.2173   -3.9294   26.9717 O   0  0  0  0  0  0  0  0  0  0  0  0
   -1.0025   -5.0942   27.4586 C   0  0  0  0  0  0  0  0  0  0  0  0
    2.2474   -8.9123   16.6273 C   0  0  0  0  0  0  0  0  0  0  0  0
    4.4957   -9.2636   17.3041 C   0  0  0  0  0  0  0  0  0  0  0  0
   -1.8070   -5.6086   28.1920 O   0  0  0  0  0  0  0  0  0  0  0  0
   10.4296   -5.1799   28.3140 C   0  0  0  0  0  0  0  0  0  0  0  0
    6.6017   -5.9004   26.9187 C   0  0  0  0  0  0  0  0  0  0  0  0
    2.4761   -6.9940   26.4111 N   0  0  0  0  0  0  0  0  0  0  0  0
    9.1353   -5.4053   27.8239 C   0  0  0  0  0  0  0  0  0  0  0  0
    0.9922   -9.3232   16.5995 O   0  0  0  0  0  0  0  0  0  0  0  0
    1.5232   -7.6869   27.1182 C   0  0  0  0  0  0  0  0  0  0  0  0
    8.6878   -6.6715   27.7262 N   0  0  0  0  0  0  0  0  0  0  0  0
    6.9911   -8.2423   27.1808 C   0  0  0  0  0  0  0  0  0  0  0  0
    3.8436   -7.2758   16.0578 C   0  0  0  0  0  0  0  0  0  0  0  0
    3.1882   -9.7190   17.2566 C   0  0  0  0  0  0  0  0  0  0  0  0
    5.3488   -6.1737   26.5092 C   0  0  0  0  0  0  0  0  0  0  0  0
    7.4567   -6.9464   27.2858 C   0  0  0  0  0  0  0  0  0  0  0  0
    0.1921   -5.7592   27.1123 C   0  0  0  0  0  0  0  0  0  0  0  0
    3.5517   -7.7407   25.9711 C   0  0  0  0  0  0  0  0  0  0  0  0
  1  4  4  0
  1 22  4  0
  2 20  4  0
  2 27  4  0
  3 12  4  0
  3 23  4  0
  4 25  4  0
  4 28  1  0
  5  8  4  0
  5 17  4  0
  6  7  4  0
  6 16  4  0
  7 18  4  0
  8 27  4  0
  9 13  4  0
  9 23  4  0
 10 11  1  0
 11 14  2  0
 11 27  1  0
 12 19  1  0
 12 24  4  0
 13 24  4  0
 15 18  1  0
 16 25  4  0
 16 26  4  0
 17 20  4  0
 17 28  1  0
 18 21  4  0
 21 26  4  0
 22 26  4  0
M  END
$$$$

 Created by Python create_sdf_string function

 28 30  0  0  0  0  0  0  0  0999 V2000
    5.7174   -8.4529   26.7190 C   0  0  0  0  0  0  0  0  0  0  0  0
    0.3974   -7.0711   27.5149 C   0  0  0  0  0  0  0  0  0  0  0  0
    2.5338   -7.6891   16.0102 C   0  0  0  0  0  0  0  0  0  0  0  0
    4.8690   -7.4380   26.4151 C   0  0  0  0  0  0  0  0  0  0  0  0
    2.3021   -5.6726   26.0378 C   0  0  0  0  0  0  0  0  0  0  0  0
    7.0880   -4.6163   27.0010 C   0  0  0  0  0  0  0  0  0  0  0  0
    8.3117   -4.3698   27.4436 C   0  0  0  0  0  0  0  0  0  0  0  0
    1.1339   -5.0515   26.3541 C   0  0  0  0  0  0  0  0  0  0  0  0
    4.8080   -8.0362   16.7101 C   0  0  0  0  0  0  0  0  0  0  0  0
   -1.2173   -3.9294   26.9717 O   0  0  0  0  0  0  0  0  0  0  0  0
   -1.0025   -5.0942   27.4586 C   0  0  0  0  0  0  0  0  0  0  0  0
    2.2474   -8.9123   16.6273 C   0  0  0  0  0  0  0  0  0  0  0  0
    4.4957   -9.2636   17.3041 C   0  0  0  0  0  0  0  0  0  0  0  0
   -1.8070   -5.6086   28.1920 O   0  0  0  0  0  0  0  0  0  0  0  0
   10.4296   -5.1799   28.3140 C   0  0  0  0  0  0  0  0  0  0  0  0
    6.6017   -5.9004   26.9187 C   0  0  0  0  0  0  0  0  0  0  0  0
    2.4761   -6.9940   26.4111 N   0  0  0  0  0  0  0  0  0  0  0  0
    9.1353   -5.4053   27.8239 C   0  0  0  0  0  0  0  0  0  0  0  0
    0.9922   -9.3232   16.5995 O   0  0  0  0  0  0  0  0  0  0  0  0
    1.5232   -7.6869   27.1182 C   0  0  0  0  0  0  0  0  0  0  0  0
    8.6878   -6.6715   27.7262 N   0  0  0  0  0  0  0  0  0  0  0  0
    6.9911   -8.2423   27.1808 C   0  0  0  0  0  0  0  0  0  0  0  0
    3.8436   -7.2758   16.0578 C   0  0  0  0  0  0  0  0  0  0  0  0
    3.1882   -9.7190   17.2566 C   0  0  0  0  0  0  0  0  0  0  0  0
    5.3488   -6.1737   26.5092 C   0  0  0  0  0  0  0  0  0  0  0  0
    7.4567   -6.9464   27.2858 C   0  0  0  0  0  0  0  0  0  0  0  0
    0.1921   -5.7592   27.1123 C   0  0  0  0  0  0  0  0  0  0  0  0
    3.5517   -7.7407   25.9711 C   0  0  0  0  0  0  0  0  0  0  0  0
  1  4  4  0
  1 22  4  0
  2 20  4  0
  2 27  4  0
  3 12  4  0
  3 23  4  0
  4 25  4  0
  4 28  1  0
  5  8  4  0
  5 17  4  0
  6  7  4  0
  6 16  4  0
  7 18  4  0
  8 27  4  0
  9 13  4  0
  9 23  4  0
 10 11  1  0
 11 14  2  0
 11 27  1  0
 12 19  1  0
 12 24  4  0
 13 24  4  0
 15 18  1  0
 16 25  4  0
 16 26  4  0
 17 20  4  0
 17 28  1  0
 18 21  4  0
 21 26  4  0
 22 26  4  0
M  END
$$$$

 Created by Python create_sdf_string function

 28 30  0  0  0  0  0  0  0  0999 V2000
    5.7174   -8.4529   26.7190 C   0  0  0  0  0  0  0  0  0  0  0  0
    0.3974   -7.0711   27.5149 C   0  0  0  0  0  0  0  0  0  0  0  0
    2.5338   -7.6891   16.0102 C   0  0  0  0  0  0  0  0  0  0  0  0
    4.8690   -7.4380   26.4151 C   0  0  0  0  0  0  0  0  0  0  0  0
    2.3021   -5.6726   26.0378 C   0  0  0  0  0  0  0  0  0  0  0  0
    7.0880   -4.6163   27.0010 C   0  0  0  0  0  0  0  0  0  0  0  0
    8.3117   -4.3698   27.4436 C   0  0  0  0  0  0  0  0  0  0  0  0
    1.1339   -5.0515   26.3541 C   0  0  0  0  0  0  0  0  0  0  0  0
    4.8080   -8.0362   16.7101 C   0  0  0  0  0  0  0  0  0  0  0  0
   -1.2173   -3.9294   26.9717 O   0  0  0  0  0  0  0  0  0  0  0  0
   -1.0025   -5.0942   27.4586 C   0  0  0  0  0  0  0  0  0  0  0  0
    2.2474   -8.9123   16.6273 C   0  0  0  0  0  0  0  0  0  0  0  0
    4.4957   -9.2636   17.3041 C   0  0  0  0  0  0  0  0  0  0  0  0
   -1.8070   -5.6086   28.1920 O   0  0  0  0  0  0  0  0  0  0  0  0
   10.4296   -5.1799   28.3140 C   0  0  0  0  0  0  0  0  0  0  0  0
    6.6017   -5.9004   26.9187 C   0  0  0  0  0  0  0  0  0  0  0  0
    2.4761   -6.9940   26.4111 N   0  0  0  0  0  0  0  0  0  0  0  0
    9.1353   -5.4053   27.8239 C   0  0  0  0  0  0  0  0  0  0  0  0
    0.9922   -9.3232   16.5995 O   0  0  0  0  0  0  0  0  0  0  0  0
    1.5232   -7.6869   27.1182 C   0  0  0  0  0  0  0  0  0  0  0  0
    8.6878   -6.6715   27.7262 N   0  0  0  0  0  0  0  0  0  0  0  0
    6.9911   -8.2423   27.1808 C   0  0  0  0  0  0  0  0  0  0  0  0
    3.8436   -7.2758   16.0578 C   0  0  0  0  0  0  0  0  0  0  0  0
    3.1882   -9.7190   17.2566 C   0  0  0  0  0  0  0  0  0  0  0  0
    5.3488   -6.1737   26.5092 C   0  0  0  0  0  0  0  0  0  0  0  0
    7.4567   -6.9464   27.2858 C   0  0  0  0  0  0  0  0  0  0  0  0
    0.1921   -5.7592   27.1123 C   0  0  0  0  0  0  0  0  0  0  0  0
    3.5517   -7.7407   25.9711 C   0  0  0  0  0  0  0  0  0  0  0  0
  1  4  4  0
  1 22  4  0
  2 20  4  0
  2 27  4  0
  3 12  4  0
  3 23  4  0
  4 25  4  0
  4 28  1  0
  5  8  4  0
  5 17  4  0
  6  7  4  0
  6 16  4  0
  7 18  4  0
  8 27  4  0
  9 13  4  0
  9 23  4  0
 10 11  1  0
 11 14  2  0
 11 27  1  0
 12 19  1  0
 12 24  4  0
 13 24  4  0
 15 18  1  0
 16 25  4  0
 16 26  4  0
 17 20  4  0
 17 28  1  0
 18 21  4  0
 21 26  4  0
 22 26  4  0
M  END
$$$$

 Created by Python create_sdf_string function

 28 30  0  0  0  0  0  0  0  0999 V2000
    5.7174   -8.4529   26.7190 C   0  0  0  0  0  0  0  0  0  0  0  0
    0.3974   -7.0711   27.5149 C   0  0  0  0  0  0  0  0  0  0  0  0
    2.5338   -7.6891   16.0102 C   0  0  0  0  0  0  0  0  0  0  0  0
    4.8690   -7.4380   26.4151 C   0  0  0  0  0  0  0  0  0  0  0  0
    2.3021   -5.6726   26.0378 C   0  0  0  0  0  0  0  0  0  0  0  0
    7.0880   -4.6163   27.0010 C   0  0  0  0  0  0  0  0  0  0  0  0
    8.3117   -4.3698   27.4436 C   0  0  0  0  0  0  0  0  0  0  0  0
    1.1339   -5.0515   26.3541 C   0  0  0  0  0  0  0  0  0  0  0  0
    4.8080   -8.0362   16.7101 C   0  0  0  0  0  0  0  0  0  0  0  0
   -1.2173   -3.9294   26.9717 O   0  0  0  0  0  0  0  0  0  0  0  0
   -1.0025   -5.0942   27.4586 C   0  0  0  0  0  0  0  0  0  0  0  0
    2.2474   -8.9123   16.6273 C   0  0  0  0  0  0  0  0  0  0  0  0
    4.4957   -9.2636   17.3041 C   0  0  0  0  0  0  0  0  0  0  0  0
   -1.8070   -5.6086   28.1920 O   0  0  0  0  0  0  0  0  0  0  0  0
   10.4296   -5.1799   28.3140 C   0  0  0  0  0  0  0  0  0  0  0  0
    6.6017   -5.9004   26.9187 C   0  0  0  0  0  0  0  0  0  0  0  0
    2.4761   -6.9940   26.4111 N   0  0  0  0  0  0  0  0  0  0  0  0
    9.1353   -5.4053   27.8239 C   0  0  0  0  0  0  0  0  0  0  0  0
    0.9922   -9.3232   16.5995 O   0  0  0  0  0  0  0  0  0  0  0  0
    1.5232   -7.6869   27.1182 C   0  0  0  0  0  0  0  0  0  0  0  0
    8.6878   -6.6715   27.7262 N   0  0  0  0  0  0  0  0  0  0  0  0
    6.9911   -8.2423   27.1808 C   0  0  0  0  0  0  0  0  0  0  0  0
    3.8436   -7.2758   16.0578 C   0  0  0  0  0  0  0  0  0  0  0  0
    3.1882   -9.7190   17.2566 C   0  0  0  0  0  0  0  0  0  0  0  0
    5.3488   -6.1737   26.5092 C   0  0  0  0  0  0  0  0  0  0  0  0
    7.4567   -6.9464   27.2858 C   0  0  0  0  0  0  0  0  0  0  0  0
    0.1921   -5.7592   27.1123 C   0  0  0  0  0  0  0  0  0  0  0  0
    3.5517   -7.7407   25.9711 C   0  0  0  0  0  0  0  0  0  0  0  0
  1  4  4  0
  1 22  4  0
  2 20  4  0
  2 27  4  0
  3 12  4  0
  3 23  4  0
  4 25  4  0
  4 28  1  0
  5  8  4  0
  5 17  4  0
  6  7  4  0
  6 16  4  0
  7 18  4  0
  8 27  4  0
  9 13  4  0
  9 23  4  0
 10 11  1  0
 11 14  2  0
 11 27  1  0
 12 19  1  0
 12 24  4  0
 13 24  4  0
 15 18  1  0
 16 25  4  0
 16 26  4  0
 17 20  4  0
 17 28  1  0
 18 21  4  0
 21 26  4  0
 22 26  4  0
M  END
$$$$

 Created by Python create_sdf_string function

 28 30  0  0  0  0  0  0  0  0999 V2000
    5.7174   -8.4529   26.7190 C   0  0  0  0  0  0  0  0  0  0  0  0
    0.3974   -7.0711   27.5149 C   0  0  0  0  0  0  0  0  0  0  0  0
    2.5338   -7.6891   16.0102 C   0  0  0  0  0  0  0  0  0  0  0  0
    4.8690   -7.4380   26.4151 C   0  0  0  0  0  0  0  0  0  0  0  0
    2.3021   -5.6726   26.0378 C   0  0  0  0  0  0  0  0  0  0  0  0
    7.0880   -4.6163   27.0010 C   0  0  0  0  0  0  0  0  0  0  0  0
    8.3117   -4.3698   27.4436 C   0  0  0  0  0  0  0  0  0  0  0  0
    1.1339   -5.0515   26.3541 C   0  0  0  0  0  0  0  0  0  0  0  0
    4.8080   -8.0362   16.7101 C   0  0  0  0  0  0  0  0  0  0  0  0
   -1.2173   -3.9294   26.9717 O   0  0  0  0  0  0  0  0  0  0  0  0
   -1.0025   -5.0942   27.4586 C   0  0  0  0  0  0  0  0  0  0  0  0
    2.2474   -8.9123   16.6273 C   0  0  0  0  0  0  0  0  0  0  0  0
    4.4957   -9.2636   17.3041 C   0  0  0  0  0  0  0  0  0  0  0  0
   -1.8070   -5.6086   28.1920 O   0  0  0  0  0  0  0  0  0  0  0  0
   10.4296   -5.1799   28.3140 C   0  0  0  0  0  0  0  0  0  0  0  0
    6.6017   -5.9004   26.9187 C   0  0  0  0  0  0  0  0  0  0  0  0
    2.4761   -6.9940   26.4111 N   0  0  0  0  0  0  0  0  0  0  0  0
    9.1353   -5.4053   27.8239 C   0  0  0  0  0  0  0  0  0  0  0  0
    0.9922   -9.3232   16.5995 O   0  0  0  0  0  0  0  0  0  0  0  0
    1.5232   -7.6869   27.1182 C   0  0  0  0  0  0  0  0  0  0  0  0
    8.6878   -6.6715   27.7262 N   0  0  0  0  0  0  0  0  0  0  0  0
    6.9911   -8.2423   27.1808 C   0  0  0  0  0  0  0  0  0  0  0  0
    3.8436   -7.2758   16.0578 C   0  0  0  0  0  0  0  0  0  0  0  0
    3.1882   -9.7190   17.2566 C   0  0  0  0  0  0  0  0  0  0  0  0
    5.3488   -6.1737   26.5092 C   0  0  0  0  0  0  0  0  0  0  0  0
    7.4567   -6.9464   27.2858 C   0  0  0  0  0  0  0  0  0  0  0  0
    0.1921   -5.7592   27.1123 C   0  0  0  0  0  0  0  0  0  0  0  0
    3.5517   -7.7407   25.9711 C   0  0  0  0  0  0  0  0  0  0  0  0
  1  4  4  0
  1 22  4  0
  2 20  4  0
  2 27  4  0
  3 12  4  0
  3 23  4  0
  4 25  4  0
  4 28  1  0
  5  8  4  0
  5 17  4  0
  6  7  4  0
  6 16  4  0
  7 18  4  0
  8 27  4  0
  9 13  4  0
  9 23  4  0
 10 11  1  0
 11 14  2  0
 11 27  1  0
 12 19  1  0
 12 24  4  0
 13 24  4  0
 15 18  1  0
 16 25  4  0
 16 26  4  0
 17 20  4  0
 17 28  1  0
 18 21  4  0
 21 26  4  0
 22 26  4  0
M  END
$$$$

 Created by Python create_sdf_string function

 28 30  0  0  0  0  0  0  0  0999 V2000
    5.7174   -8.4529   26.7190 C   0  0  0  0  0  0  0  0  0  0  0  0
    0.3974   -7.0711   27.5149 C   0  0  0  0  0  0  0  0  0  0  0  0
    2.5338   -7.6891   16.0102 C   0  0  0  0  0  0  0  0  0  0  0  0
    4.8690   -7.4380   26.4151 C   0  0  0  0  0  0  0  0  0  0  0  0
    2.3021   -5.6726   26.0378 C   0  0  0  0  0  0  0  0  0  0  0  0
    7.0880   -4.6163   27.0010 C   0  0  0  0  0  0  0  0  0  0  0  0
    8.3117   -4.3698   27.4436 C   0  0  0  0  0  0  0  0  0  0  0  0
    1.1339   -5.0515   26.3541 C   0  0  0  0  0  0  0  0  0  0  0  0
    4.8080   -8.0362   16.7101 C   0  0  0  0  0  0  0  0  0  0  0  0
   -1.2173   -3.9294   26.9717 O   0  0  0  0  0  0  0  0  0  0  0  0
   -1.0025   -5.0942   27.4586 C   0  0  0  0  0  0  0  0  0  0  0  0
    2.2474   -8.9123   16.6273 C   0  0  0  0  0  0  0  0  0  0  0  0
    4.4957   -9.2636   17.3041 C   0  0  0  0  0  0  0  0  0  0  0  0
   -1.8070   -5.6086   28.1920 O   0  0  0  0  0  0  0  0  0  0  0  0
   10.4296   -5.1799   28.3140 C   0  0  0  0  0  0  0  0  0  0  0  0
    6.6017   -5.9004   26.9187 C   0  0  0  0  0  0  0  0  0  0  0  0
    2.4761   -6.9940   26.4111 N   0  0  0  0  0  0  0  0  0  0  0  0
    9.1353   -5.4053   27.8239 C   0  0  0  0  0  0  0  0  0  0  0  0
    0.9922   -9.3232   16.5995 O   0  0  0  0  0  0  0  0  0  0  0  0
    1.5232   -7.6869   27.1182 C   0  0  0  0  0  0  0  0  0  0  0  0
    8.6878   -6.6715   27.7262 N   0  0  0  0  0  0  0  0  0  0  0  0
    6.9911   -8.2423   27.1808 C   0  0  0  0  0  0  0  0  0  0  0  0
    3.8436   -7.2758   16.0578 C   0  0  0  0  0  0  0  0  0  0  0  0
    3.1882   -9.7190   17.2566 C   0  0  0  0  0  0  0  0  0  0  0  0
    5.3488   -6.1737   26.5092 C   0  0  0  0  0  0  0  0  0  0  0  0
    7.4567   -6.9464   27.2858 C   0  0  0  0  0  0  0  0  0  0  0  0
    0.1921   -5.7592   27.1123 C   0  0  0  0  0  0  0  0  0  0  0  0
    3.5517   -7.7407   25.9711 C   0  0  0  0  0  0  0  0  0  0  0  0
  1  4  4  0
  1 22  4  0
  2 20  4  0
  2 27  4  0
  3 12  4  0
  3 23  4  0
  4 25  4  0
  4 28  1  0
  5  8  4  0
  5 17  4  0
  6  7  4  0
  6 16  4  0
  7 18  4  0
  8 27  4  0
  9 13  4  0
  9 23  4  0
 10 11  1  0
 11 14  2  0
 11 27  1  0
 12 19  1  0
 12 24  4  0
 13 24  4  0
 15 18  1  0
 16 25  4  0
 16 26  4  0
 17 20  4  0
 17 28  1  0
 18 21  4  0
 21 26  4  0
 22 26  4  0
M  END
$$$$

 Created by Python create_sdf_string function

 28 30  0  0  0  0  0  0  0  0999 V2000
    5.7174   -8.4529   26.7190 C   0  0  0  0  0  0  0  0  0  0  0  0
    0.3974   -7.0711   27.5149 C   0  0  0  0  0  0  0  0  0  0  0  0
    2.5338   -7.6891   16.0102 C   0  0  0  0  0  0  0  0  0  0  0  0
    4.8690   -7.4380   26.4151 C   0  0  0  0  0  0  0  0  0  0  0  0
    2.3021   -5.6726   26.0378 C   0  0  0  0  0  0  0  0  0  0  0  0
    7.0880   -4.6163   27.0010 C   0  0  0  0  0  0  0  0  0  0  0  0
    8.3117   -4.3698   27.4436 C   0  0  0  0  0  0  0  0  0  0  0  0
    1.1339   -5.0515   26.3541 C   0  0  0  0  0  0  0  0  0  0  0  0
    4.8080   -8.0362   16.7101 C   0  0  0  0  0  0  0  0  0  0  0  0
   -1.2173   -3.9294   26.9717 O   0  0  0  0  0  0  0  0  0  0  0  0
   -1.0025   -5.0942   27.4586 C   0  0  0  0  0  0  0  0  0  0  0  0
    2.2474   -8.9123   16.6273 C   0  0  0  0  0  0  0  0  0  0  0  0
    4.4957   -9.2636   17.3041 C   0  0  0  0  0  0  0  0  0  0  0  0
   -1.8070   -5.6086   28.1920 O   0  0  0  0  0  0  0  0  0  0  0  0
   10.4296   -5.1799   28.3140 C   0  0  0  0  0  0  0  0  0  0  0  0
    6.6017   -5.9004   26.9187 C   0  0  0  0  0  0  0  0  0  0  0  0
    2.4761   -6.9940   26.4111 N   0  0  0  0  0  0  0  0  0  0  0  0
    9.1353   -5.4053   27.8239 C   0  0  0  0  0  0  0  0  0  0  0  0
    0.9922   -9.3232   16.5995 O   0  0  0  0  0  0  0  0  0  0  0  0
    1.5232   -7.6869   27.1182 C   0  0  0  0  0  0  0  0  0  0  0  0
    8.6878   -6.6715   27.7262 N   0  0  0  0  0  0  0  0  0  0  0  0
    6.9911   -8.2423   27.1808 C   0  0  0  0  0  0  0  0  0  0  0  0
    3.8436   -7.2758   16.0578 C   0  0  0  0  0  0  0  0  0  0  0  0
    3.1882   -9.7190   17.2566 C   0  0  0  0  0  0  0  0  0  0  0  0
    5.3488   -6.1737   26.5092 C   0  0  0  0  0  0  0  0  0  0  0  0
    7.4567   -6.9464   27.2858 C   0  0  0  0  0  0  0  0  0  0  0  0
    0.1921   -5.7592   27.1123 C   0  0  0  0  0  0  0  0  0  0  0  0
    3.5517   -7.7407   25.9711 C   0  0  0  0  0  0  0  0  0  0  0  0
  1  4  4  0
  1 22  4  0
  2 20  4  0
  2 27  4  0
  3 12  4  0
  3 23  4  0
  4 25  4  0
  4 28  1  0
  5  8  4  0
  5 17  4  0
  6  7  4  0
  6 16  4  0
  7 18  4  0
  8 27  4  0
  9 13  4  0
  9 23  4  0
 10 11  1  0
 11 14  2  0
 11 27  1  0
 12 19  1  0
 12 24  4  0
 13 24  4  0
 15 18  1  0
 16 25  4  0
 16 26  4  0
 17 20  4  0
 17 28  1  0
 18 21  4  0
 21 26  4  0
 22 26  4  0
M  END
$$$$

 Created by Python create_sdf_string function

 28 30  0  0  0  0  0  0  0  0999 V2000
    5.7174   -8.4529   26.7190 C   0  0  0  0  0  0  0  0  0  0  0  0
    0.3974   -7.0711   27.5149 C   0  0  0  0  0  0  0  0  0  0  0  0
    2.5338   -7.6891   16.0102 C   0  0  0  0  0  0  0  0  0  0  0  0
    4.8690   -7.4380   26.4151 C   0  0  0  0  0  0  0  0  0  0  0  0
    2.3021   -5.6726   26.0378 C   0  0  0  0  0  0  0  0  0  0  0  0
    7.0880   -4.6163   27.0010 C   0  0  0  0  0  0  0  0  0  0  0  0
    8.3117   -4.3698   27.4436 C   0  0  0  0  0  0  0  0  0  0  0  0
    1.1339   -5.0515   26.3541 C   0  0  0  0  0  0  0  0  0  0  0  0
    4.8080   -8.0362   16.7101 C   0  0  0  0  0  0  0  0  0  0  0  0
   -1.2173   -3.9294   26.9717 O   0  0  0  0  0  0  0  0  0  0  0  0
   -1.0025   -5.0942   27.4586 C   0  0  0  0  0  0  0  0  0  0  0  0
    2.2474   -8.9123   16.6273 C   0  0  0  0  0  0  0  0  0  0  0  0
    4.4957   -9.2636   17.3041 C   0  0  0  0  0  0  0  0  0  0  0  0
   -1.8070   -5.6086   28.1920 O   0  0  0  0  0  0  0  0  0  0  0  0
   10.4296   -5.1799   28.3140 C   0  0  0  0  0  0  0  0  0  0  0  0
    6.6017   -5.9004   26.9187 C   0  0  0  0  0  0  0  0  0  0  0  0
    2.4761   -6.9940   26.4111 N   0  0  0  0  0  0  0  0  0  0  0  0
    9.1353   -5.4053   27.8239 C   0  0  0  0  0  0  0  0  0  0  0  0
    0.9922   -9.3232   16.5995 O   0  0  0  0  0  0  0  0  0  0  0  0
    1.5232   -7.6869   27.1182 C   0  0  0  0  0  0  0  0  0  0  0  0
    8.6878   -6.6715   27.7262 N   0  0  0  0  0  0  0  0  0  0  0  0
    6.9911   -8.2423   27.1808 C   0  0  0  0  0  0  0  0  0  0  0  0
    3.8436   -7.2758   16.0578 C   0  0  0  0  0  0  0  0  0  0  0  0
    3.1882   -9.7190   17.2566 C   0  0  0  0  0  0  0  0  0  0  0  0
    5.3488   -6.1737   26.5092 C   0  0  0  0  0  0  0  0  0  0  0  0
    7.4567   -6.9464   27.2858 C   0  0  0  0  0  0  0  0  0  0  0  0
    0.1921   -5.7592   27.1123 C   0  0  0  0  0  0  0  0  0  0  0  0
    3.5517   -7.7407   25.9711 C   0  0  0  0  0  0  0  0  0  0  0  0
  1  4  4  0
  1 22  4  0
  2 20  4  0
  2 27  4  0
  3 12  4  0
  3 23  4  0
  4 25  4  0
  4 28  1  0
  5  8  4  0
  5 17  4  0
  6  7  4  0
  6 16  4  0
  7 18  4  0
  8 27  4  0
  9 13  4  0
  9 23  4  0
 10 11  1  0
 11 14  2  0
 11 27  1  0
 12 19  1  0
 12 24  4  0
 13 24  4  0
 15 18  1  0
 16 25  4  0
 16 26  4  0
 17 20  4  0
 17 28  1  0
 18 21  4  0
 21 26  4  0
 22 26  4  0
M  END
$$$$

 Created by Python create_sdf_string function

 28 30  0  0  0  0  0  0  0  0999 V2000
    5.7174   -8.4529   26.7190 C   0  0  0  0  0  0  0  0  0  0  0  0
    0.3974   -7.0711   27.5149 C   0  0  0  0  0  0  0  0  0  0  0  0
    2.5338   -7.6891   16.0102 C   0  0  0  0  0  0  0  0  0  0  0  0
    4.8690   -7.4380   26.4151 C   0  0  0  0  0  0  0  0  0  0  0  0
    2.3021   -5.6726   26.0378 C   0  0  0  0  0  0  0  0  0  0  0  0
    7.0880   -4.6163   27.0010 C   0  0  0  0  0  0  0  0  0  0  0  0
    8.3117   -4.3698   27.4436 C   0  0  0  0  0  0  0  0  0  0  0  0
    1.1339   -5.0515   26.3541 C   0  0  0  0  0  0  0  0  0  0  0  0
    4.8080   -8.0362   16.7101 C   0  0  0  0  0  0  0  0  0  0  0  0
   -1.2173   -3.9294   26.9717 O   0  0  0  0  0  0  0  0  0  0  0  0
   -1.0025   -5.0942   27.4586 C   0  0  0  0  0  0  0  0  0  0  0  0
    2.2474   -8.9123   16.6273 C   0  0  0  0  0  0  0  0  0  0  0  0
    4.4957   -9.2636   17.3041 C   0  0  0  0  0  0  0  0  0  0  0  0
   -1.8070   -5.6086   28.1920 O   0  0  0  0  0  0  0  0  0  0  0  0
   10.4296   -5.1799   28.3140 C   0  0  0  0  0  0  0  0  0  0  0  0
    6.6017   -5.9004   26.9187 C   0  0  0  0  0  0  0  0  0  0  0  0
    2.4761   -6.9940   26.4111 N   0  0  0  0  0  0  0  0  0  0  0  0
    9.1353   -5.4053   27.8239 C   0  0  0  0  0  0  0  0  0  0  0  0
    0.9922   -9.3232   16.5995 O   0  0  0  0  0  0  0  0  0  0  0  0
    1.5232   -7.6869   27.1182 C   0  0  0  0  0  0  0  0  0  0  0  0
    8.6878   -6.6715   27.7262 N   0  0  0  0  0  0  0  0  0  0  0  0
    6.9911   -8.2423   27.1808 C   0  0  0  0  0  0  0  0  0  0  0  0
    3.8436   -7.2758   16.0578 C   0  0  0  0  0  0  0  0  0  0  0  0
    3.1882   -9.7190   17.2566 C   0  0  0  0  0  0  0  0  0  0  0  0
    5.3488   -6.1737   26.5092 C   0  0  0  0  0  0  0  0  0  0  0  0
    7.4567   -6.9464   27.2858 C   0  0  0  0  0  0  0  0  0  0  0  0
    0.1921   -5.7592   27.1123 C   0  0  0  0  0  0  0  0  0  0  0  0
    3.5517   -7.7407   25.9711 C   0  0  0  0  0  0  0  0  0  0  0  0
  1  4  4  0
  1 22  4  0
  2 20  4  0
  2 27  4  0
  3 12  4  0
  3 23  4  0
  4 25  4  0
  4 28  1  0
  5  8  4  0
  5 17  4  0
  6  7  4  0
  6 16  4  0
  7 18  4  0
  8 27  4  0
  9 13  4  0
  9 23  4  0
 10 11  1  0
 11 14  2  0
 11 27  1  0
 12 19  1  0
 12 24  4  0
 13 24  4  0
 15 18  1  0
 16 25  4  0
 16 26  4  0
 17 20  4  0
 17 28  1  0
 18 21  4  0
 21 26  4  0
 22 26  4  0
M  END
$$$$

 Created by Python create_sdf_string function

 28 30  0  0  0  0  0  0  0  0999 V2000
    5.7174   -8.4529   26.7190 C   0  0  0  0  0  0  0  0  0  0  0  0
    0.3974   -7.0711   27.5149 C   0  0  0  0  0  0  0  0  0  0  0  0
    2.5338   -7.6891   16.0102 C   0  0  0  0  0  0  0  0  0  0  0  0
    4.8690   -7.4380   26.4151 C   0  0  0  0  0  0  0  0  0  0  0  0
    2.3021   -5.6726   26.0378 C   0  0  0  0  0  0  0  0  0  0  0  0
    7.0880   -4.6163   27.0010 C   0  0  0  0  0  0  0  0  0  0  0  0
    8.3117   -4.3698   27.4436 C   0  0  0  0  0  0  0  0  0  0  0  0
    1.1339   -5.0515   26.3541 C   0  0  0  0  0  0  0  0  0  0  0  0
    4.8080   -8.0362   16.7101 C   0  0  0  0  0  0  0  0  0  0  0  0
   -1.2173   -3.9294   26.9717 O   0  0  0  0  0  0  0  0  0  0  0  0
   -1.0025   -5.0942   27.4586 C   0  0  0  0  0  0  0  0  0  0  0  0
    2.2474   -8.9123   16.6273 C   0  0  0  0  0  0  0  0  0  0  0  0
    4.4957   -9.2636   17.3041 C   0  0  0  0  0  0  0  0  0  0  0  0
   -1.8070   -5.6086   28.1920 O   0  0  0  0  0  0  0  0  0  0  0  0
   10.4296   -5.1799   28.3140 C   0  0  0  0  0  0  0  0  0  0  0  0
    6.6017   -5.9004   26.9187 C   0  0  0  0  0  0  0  0  0  0  0  0
    2.4761   -6.9940   26.4111 N   0  0  0  0  0  0  0  0  0  0  0  0
    9.1353   -5.4053   27.8239 C   0  0  0  0  0  0  0  0  0  0  0  0
    0.9922   -9.3232   16.5995 O   0  0  0  0  0  0  0  0  0  0  0  0
    1.5232   -7.6869   27.1182 C   0  0  0  0  0  0  0  0  0  0  0  0
    8.6878   -6.6715   27.7262 N   0  0  0  0  0  0  0  0  0  0  0  0
    6.9911   -8.2423   27.1808 C   0  0  0  0  0  0  0  0  0  0  0  0
    3.8436   -7.2758   16.0578 C   0  0  0  0  0  0  0  0  0  0  0  0
    3.1882   -9.7190   17.2566 C   0  0  0  0  0  0  0  0  0  0  0  0
    5.3488   -6.1737   26.5092 C   0  0  0  0  0  0  0  0  0  0  0  0
    7.4567   -6.9464   27.2858 C   0  0  0  0  0  0  0  0  0  0  0  0
    0.1921   -5.7592   27.1123 C   0  0  0  0  0  0  0  0  0  0  0  0
    3.5517   -7.7407   25.9711 C   0  0  0  0  0  0  0  0  0  0  0  0
  1  4  4  0
  1 22  4  0
  2 20  4  0
  2 27  4  0
  3 12  4  0
  3 23  4  0
  4 25  4  0
  4 28  1  0
  5  8  4  0
  5 17  4  0
  6  7  4  0
  6 16  4  0
  7 18  4  0
  8 27  4  0
  9 13  4  0
  9 23  4  0
 10 11  1  0
 11 14  2  0
 11 27  1  0
 12 19  1  0
 12 24  4  0
 13 24  4  0
 15 18  1  0
 16 25  4  0
 16 26  4  0
 17 20  4  0
 17 28  1  0
 18 21  4  0
 21 26  4  0
 22 26  4  0
M  END
$$$$

 Created by Python create_sdf_string function

 28 30  0  0  0  0  0  0  0  0999 V2000
    5.7174   -8.4529   26.7190 C   0  0  0  0  0  0  0  0  0  0  0  0
    0.3974   -7.0711   27.5149 C   0  0  0  0  0  0  0  0  0  0  0  0
    2.5338   -7.6891   16.0102 C   0  0  0  0  0  0  0  0  0  0  0  0
    4.8690   -7.4380   26.4151 C   0  0  0  0  0  0  0  0  0  0  0  0
    2.3021   -5.6726   26.0378 C   0  0  0  0  0  0  0  0  0  0  0  0
    7.0880   -4.6163   27.0010 C   0  0  0  0  0  0  0  0  0  0  0  0
    8.3117   -4.3698   27.4436 C   0  0  0  0  0  0  0  0  0  0  0  0
    1.1339   -5.0515   26.3541 C   0  0  0  0  0  0  0  0  0  0  0  0
    4.8080   -8.0362   16.7101 C   0  0  0  0  0  0  0  0  0  0  0  0
   -1.2173   -3.9294   26.9717 O   0  0  0  0  0  0  0  0  0  0  0  0
   -1.0025   -5.0942   27.4586 C   0  0  0  0  0  0  0  0  0  0  0  0
    2.2474   -8.9123   16.6273 C   0  0  0  0  0  0  0  0  0  0  0  0
    4.4957   -9.2636   17.3041 C   0  0  0  0  0  0  0  0  0  0  0  0
   -1.8070   -5.6086   28.1920 O   0  0  0  0  0  0  0  0  0  0  0  0
   10.4296   -5.1799   28.3140 C   0  0  0  0  0  0  0  0  0  0  0  0
    6.6017   -5.9004   26.9187 C   0  0  0  0  0  0  0  0  0  0  0  0
    2.4761   -6.9940   26.4111 N   0  0  0  0  0  0  0  0  0  0  0  0
    9.1353   -5.4053   27.8239 C   0  0  0  0  0  0  0  0  0  0  0  0
    0.9922   -9.3232   16.5995 O   0  0  0  0  0  0  0  0  0  0  0  0
    1.5232   -7.6869   27.1182 C   0  0  0  0  0  0  0  0  0  0  0  0
    8.6878   -6.6715   27.7262 N   0  0  0  0  0  0  0  0  0  0  0  0
    6.9911   -8.2423   27.1808 C   0  0  0  0  0  0  0  0  0  0  0  0
    3.8436   -7.2758   16.0578 C   0  0  0  0  0  0  0  0  0  0  0  0
    3.1882   -9.7190   17.2566 C   0  0  0  0  0  0  0  0  0  0  0  0
    5.3488   -6.1737   26.5092 C   0  0  0  0  0  0  0  0  0  0  0  0
    7.4567   -6.9464   27.2858 C   0  0  0  0  0  0  0  0  0  0  0  0
    0.1921   -5.7592   27.1123 C   0  0  0  0  0  0  0  0  0  0  0  0
    3.5517   -7.7407   25.9711 C   0  0  0  0  0  0  0  0  0  0  0  0
  1  4  4  0
  1 22  4  0
  2 20  4  0
  2 27  4  0
  3 12  4  0
  3 23  4  0
  4 25  4  0
  4 28  1  0
  5  8  4  0
  5 17  4  0
  6  7  4  0
  6 16  4  0
  7 18  4  0
  8 27  4  0
  9 13  4  0
  9 23  4  0
 10 11  1  0
 11 14  2  0
 11 27  1  0
 12 19  1  0
 12 24  4  0
 13 24  4  0
 15 18  1  0
 16 25  4  0
 16 26  4  0
 17 20  4  0
 17 28  1  0
 18 21  4  0
 21 26  4  0
 22 26  4  0
M  END
$$$$

 Created by Python create_sdf_string function

 28 30  0  0  0  0  0  0  0  0999 V2000
    5.7174   -8.4529   26.7190 C   0  0  0  0  0  0  0  0  0  0  0  0
    0.3974   -7.0711   27.5149 C   0  0  0  0  0  0  0  0  0  0  0  0
    2.5338   -7.6891   16.0102 C   0  0  0  0  0  0  0  0  0  0  0  0
    4.8690   -7.4380   26.4151 C   0  0  0  0  0  0  0  0  0  0  0  0
    2.3021   -5.6726   26.0378 C   0  0  0  0  0  0  0  0  0  0  0  0
    7.0880   -4.6163   27.0010 C   0  0  0  0  0  0  0  0  0  0  0  0
    8.3117   -4.3698   27.4436 C   0  0  0  0  0  0  0  0  0  0  0  0
    1.1339   -5.0515   26.3541 C   0  0  0  0  0  0  0  0  0  0  0  0
    4.8080   -8.0362   16.7101 C   0  0  0  0  0  0  0  0  0  0  0  0
   -1.2173   -3.9294   26.9717 O   0  0  0  0  0  0  0  0  0  0  0  0
   -1.0025   -5.0942   27.4586 C   0  0  0  0  0  0  0  0  0  0  0  0
    2.2474   -8.9123   16.6273 C   0  0  0  0  0  0  0  0  0  0  0  0
    4.4957   -9.2636   17.3041 C   0  0  0  0  0  0  0  0  0  0  0  0
   -1.8070   -5.6086   28.1920 O   0  0  0  0  0  0  0  0  0  0  0  0
   10.4296   -5.1799   28.3140 C   0  0  0  0  0  0  0  0  0  0  0  0
    6.6017   -5.9004   26.9187 C   0  0  0  0  0  0  0  0  0  0  0  0
    2.4761   -6.9940   26.4111 N   0  0  0  0  0  0  0  0  0  0  0  0
    9.1353   -5.4053   27.8239 C   0  0  0  0  0  0  0  0  0  0  0  0
    0.9922   -9.3232   16.5995 O   0  0  0  0  0  0  0  0  0  0  0  0
    1.5232   -7.6869   27.1182 C   0  0  0  0  0  0  0  0  0  0  0  0
    8.6878   -6.6715   27.7262 N   0  0  0  0  0  0  0  0  0  0  0  0
    6.9911   -8.2423   27.1808 C   0  0  0  0  0  0  0  0  0  0  0  0
    3.8436   -7.2758   16.0578 C   0  0  0  0  0  0  0  0  0  0  0  0
    3.1882   -9.7190   17.2566 C   0  0  0  0  0  0  0  0  0  0  0  0
    5.3488   -6.1737   26.5092 C   0  0  0  0  0  0  0  0  0  0  0  0
    7.4567   -6.9464   27.2858 C   0  0  0  0  0  0  0  0  0  0  0  0
    0.1921   -5.7592   27.1123 C   0  0  0  0  0  0  0  0  0  0  0  0
    3.5517   -7.7407   25.9711 C   0  0  0  0  0  0  0  0  0  0  0  0
  1  4  4  0
  1 22  4  0
  2 20  4  0
  2 27  4  0
  3 12  4  0
  3 23  4  0
  4 25  4  0
  4 28  1  0
  5  8  4  0
  5 17  4  0
  6  7  4  0
  6 16  4  0
  7 18  4  0
  8 27  4  0
  9 13  4  0
  9 23  4  0
 10 11  1  0
 11 14  2  0
 11 27  1  0
 12 19  1  0
 12 24  4  0
 13 24  4  0
 15 18  1  0
 16 25  4  0
 16 26  4  0
 17 20  4  0
 17 28  1  0
 18 21  4  0
 21 26  4  0
 22 26  4  0
M  END
$$$$

 Created by Python create_sdf_string function

 28 30  0  0  0  0  0  0  0  0999 V2000
    5.7174   -8.4529   26.7190 C   0  0  0  0  0  0  0  0  0  0  0  0
    0.3974   -7.0711   27.5149 C   0  0  0  0  0  0  0  0  0  0  0  0
    2.5338   -7.6891   16.0102 C   0  0  0  0  0  0  0  0  0  0  0  0
    4.8690   -7.4380   26.4151 C   0  0  0  0  0  0  0  0  0  0  0  0
    2.3021   -5.6726   26.0378 C   0  0  0  0  0  0  0  0  0  0  0  0
    7.0880   -4.6163   27.0010 C   0  0  0  0  0  0  0  0  0  0  0  0
    8.3117   -4.3698   27.4436 C   0  0  0  0  0  0  0  0  0  0  0  0
    1.1339   -5.0515   26.3541 C   0  0  0  0  0  0  0  0  0  0  0  0
    4.8080   -8.0362   16.7101 C   0  0  0  0  0  0  0  0  0  0  0  0
   -1.2173   -3.9294   26.9717 O   0  0  0  0  0  0  0  0  0  0  0  0
   -1.0025   -5.0942   27.4586 C   0  0  0  0  0  0  0  0  0  0  0  0
    2.2474   -8.9123   16.6273 C   0  0  0  0  0  0  0  0  0  0  0  0
    4.4957   -9.2636   17.3041 C   0  0  0  0  0  0  0  0  0  0  0  0
   -1.8070   -5.6086   28.1920 O   0  0  0  0  0  0  0  0  0  0  0  0
   10.4296   -5.1799   28.3140 C   0  0  0  0  0  0  0  0  0  0  0  0
    6.6017   -5.9004   26.9187 C   0  0  0  0  0  0  0  0  0  0  0  0
    2.4761   -6.9940   26.4111 N   0  0  0  0  0  0  0  0  0  0  0  0
    9.1353   -5.4053   27.8239 C   0  0  0  0  0  0  0  0  0  0  0  0
    0.9922   -9.3232   16.5995 O   0  0  0  0  0  0  0  0  0  0  0  0
    1.5232   -7.6869   27.1182 C   0  0  0  0  0  0  0  0  0  0  0  0
    8.6878   -6.6715   27.7262 N   0  0  0  0  0  0  0  0  0  0  0  0
    6.9911   -8.2423   27.1808 C   0  0  0  0  0  0  0  0  0  0  0  0
    3.8436   -7.2758   16.0578 C   0  0  0  0  0  0  0  0  0  0  0  0
    3.1882   -9.7190   17.2566 C   0  0  0  0  0  0  0  0  0  0  0  0
    5.3488   -6.1737   26.5092 C   0  0  0  0  0  0  0  0  0  0  0  0
    7.4567   -6.9464   27.2858 C   0  0  0  0  0  0  0  0  0  0  0  0
    0.1921   -5.7592   27.1123 C   0  0  0  0  0  0  0  0  0  0  0  0
    3.5517   -7.7407   25.9711 C   0  0  0  0  0  0  0  0  0  0  0  0
  1  4  4  0
  1 22  4  0
  2 20  4  0
  2 27  4  0
  3 12  4  0
  3 23  4  0
  4 25  4  0
  4 28  1  0
  5  8  4  0
  5 17  4  0
  6  7  4  0
  6 16  4  0
  7 18  4  0
  8 27  4  0
  9 13  4  0
  9 23  4  0
 10 11  1  0
 11 14  2  0
 11 27  1  0
 12 19  1  0
 12 24  4  0
 13 24  4  0
 15 18  1  0
 16 25  4  0
 16 26  4  0
 17 20  4  0
 17 28  1  0
 18 21  4  0
 21 26  4  0
 22 26  4  0
M  END
$$$$

 Created by Python create_sdf_string function

 28 30  0  0  0  0  0  0  0  0999 V2000
    5.7174   -8.4529   26.7190 C   0  0  0  0  0  0  0  0  0  0  0  0
    0.3974   -7.0711   27.5149 C   0  0  0  0  0  0  0  0  0  0  0  0
    2.5338   -7.6891   16.0102 C   0  0  0  0  0  0  0  0  0  0  0  0
    4.8690   -7.4380   26.4151 C   0  0  0  0  0  0  0  0  0  0  0  0
    2.3021   -5.6726   26.0378 C   0  0  0  0  0  0  0  0  0  0  0  0
    7.0880   -4.6163   27.0010 C   0  0  0  0  0  0  0  0  0  0  0  0
    8.3117   -4.3698   27.4436 C   0  0  0  0  0  0  0  0  0  0  0  0
    1.1339   -5.0515   26.3541 C   0  0  0  0  0  0  0  0  0  0  0  0
    4.8080   -8.0362   16.7101 C   0  0  0  0  0  0  0  0  0  0  0  0
   -1.2173   -3.9294   26.9717 O   0  0  0  0  0  0  0  0  0  0  0  0
   -1.0025   -5.0942   27.4586 C   0  0  0  0  0  0  0  0  0  0  0  0
    2.2474   -8.9123   16.6273 C   0  0  0  0  0  0  0  0  0  0  0  0
    4.4957   -9.2636   17.3041 C   0  0  0  0  0  0  0  0  0  0  0  0
   -1.8070   -5.6086   28.1920 O   0  0  0  0  0  0  0  0  0  0  0  0
   10.4296   -5.1799   28.3140 C   0  0  0  0  0  0  0  0  0  0  0  0
    6.6017   -5.9004   26.9187 C   0  0  0  0  0  0  0  0  0  0  0  0
    2.4761   -6.9940   26.4111 N   0  0  0  0  0  0  0  0  0  0  0  0
    9.1353   -5.4053   27.8239 C   0  0  0  0  0  0  0  0  0  0  0  0
    0.9922   -9.3232   16.5995 O   0  0  0  0  0  0  0  0  0  0  0  0
    1.5232   -7.6869   27.1182 C   0  0  0  0  0  0  0  0  0  0  0  0
    8.6878   -6.6715   27.7262 N   0  0  0  0  0  0  0  0  0  0  0  0
    6.9911   -8.2423   27.1808 C   0  0  0  0  0  0  0  0  0  0  0  0
    3.8436   -7.2758   16.0578 C   0  0  0  0  0  0  0  0  0  0  0  0
    3.1882   -9.7190   17.2566 C   0  0  0  0  0  0  0  0  0  0  0  0
    5.3488   -6.1737   26.5092 C   0  0  0  0  0  0  0  0  0  0  0  0
    7.4567   -6.9464   27.2858 C   0  0  0  0  0  0  0  0  0  0  0  0
    0.1921   -5.7592   27.1123 C   0  0  0  0  0  0  0  0  0  0  0  0
    3.5517   -7.7407   25.9711 C   0  0  0  0  0  0  0  0  0  0  0  0
  1  4  4  0
  1 22  4  0
  2 20  4  0
  2 27  4  0
  3 12  4  0
  3 23  4  0
  4 25  4  0
  4 28  1  0
  5  8  4  0
  5 17  4  0
  6  7  4  0
  6 16  4  0
  7 18  4  0
  8 27  4  0
  9 13  4  0
  9 23  4  0
 10 11  1  0
 11 14  2  0
 11 27  1  0
 12 19  1  0
 12 24  4  0
 13 24  4  0
 15 18  1  0
 16 25  4  0
 16 26  4  0
 17 20  4  0
 17 28  1  0
 18 21  4  0
 21 26  4  0
 22 26  4  0
M  END
$$$$

 Created by Python create_sdf_string function

 28 30  0  0  0  0  0  0  0  0999 V2000
    5.7174   -8.4529   26.7190 C   0  0  0  0  0  0  0  0  0  0  0  0
    0.3974   -7.0711   27.5149 C   0  0  0  0  0  0  0  0  0  0  0  0
    2.5338   -7.6891   16.0102 C   0  0  0  0  0  0  0  0  0  0  0  0
    4.8690   -7.4380   26.4151 C   0  0  0  0  0  0  0  0  0  0  0  0
    2.3021   -5.6726   26.0378 C   0  0  0  0  0  0  0  0  0  0  0  0
    7.0880   -4.6163   27.0010 C   0  0  0  0  0  0  0  0  0  0  0  0
    8.3117   -4.3698   27.4436 C   0  0  0  0  0  0  0  0  0  0  0  0
    1.1339   -5.0515   26.3541 C   0  0  0  0  0  0  0  0  0  0  0  0
    4.8080   -8.0362   16.7101 C   0  0  0  0  0  0  0  0  0  0  0  0
   -1.2173   -3.9294   26.9717 O   0  0  0  0  0  0  0  0  0  0  0  0
   -1.0025   -5.0942   27.4586 C   0  0  0  0  0  0  0  0  0  0  0  0
    2.2474   -8.9123   16.6273 C   0  0  0  0  0  0  0  0  0  0  0  0
    4.4957   -9.2636   17.3041 C   0  0  0  0  0  0  0  0  0  0  0  0
   -1.8070   -5.6086   28.1920 O   0  0  0  0  0  0  0  0  0  0  0  0
   10.4296   -5.1799   28.3140 C   0  0  0  0  0  0  0  0  0  0  0  0
    6.6017   -5.9004   26.9187 C   0  0  0  0  0  0  0  0  0  0  0  0
    2.4761   -6.9940   26.4111 N   0  0  0  0  0  0  0  0  0  0  0  0
    9.1353   -5.4053   27.8239 C   0  0  0  0  0  0  0  0  0  0  0  0
    0.9922   -9.3232   16.5995 O   0  0  0  0  0  0  0  0  0  0  0  0
    1.5232   -7.6869   27.1182 C   0  0  0  0  0  0  0  0  0  0  0  0
    8.6878   -6.6715   27.7262 N   0  0  0  0  0  0  0  0  0  0  0  0
    6.9911   -8.2423   27.1808 C   0  0  0  0  0  0  0  0  0  0  0  0
    3.8436   -7.2758   16.0578 C   0  0  0  0  0  0  0  0  0  0  0  0
    3.1882   -9.7190   17.2566 C   0  0  0  0  0  0  0  0  0  0  0  0
    5.3488   -6.1737   26.5092 C   0  0  0  0  0  0  0  0  0  0  0  0
    7.4567   -6.9464   27.2858 C   0  0  0  0  0  0  0  0  0  0  0  0
    0.1921   -5.7592   27.1123 C   0  0  0  0  0  0  0  0  0  0  0  0
    3.5517   -7.7407   25.9711 C   0  0  0  0  0  0  0  0  0  0  0  0
  1  4  4  0
  1 22  4  0
  2 20  4  0
  2 27  4  0
  3 12  4  0
  3 23  4  0
  4 25  4  0
  4 28  1  0
  5  8  4  0
  5 17  4  0
  6  7  4  0
  6 16  4  0
  7 18  4  0
  8 27  4  0
  9 13  4  0
  9 23  4  0
 10 11  1  0
 11 14  2  0
 11 27  1  0
 12 19  1  0
 12 24  4  0
 13 24  4  0
 15 18  1  0
 16 25  4  0
 16 26  4  0
 17 20  4  0
 17 28  1  0
 18 21  4  0
 21 26  4  0
 22 26  4  0
M  END
$$$$

 Created by Python create_sdf_string function

 28 30  0  0  0  0  0  0  0  0999 V2000
    5.7174   -8.4529   26.7190 C   0  0  0  0  0  0  0  0  0  0  0  0
    0.3974   -7.0711   27.5149 C   0  0  0  0  0  0  0  0  0  0  0  0
    2.5338   -7.6891   16.0102 C   0  0  0  0  0  0  0  0  0  0  0  0
    4.8690   -7.4380   26.4151 C   0  0  0  0  0  0  0  0  0  0  0  0
    2.3021   -5.6726   26.0378 C   0  0  0  0  0  0  0  0  0  0  0  0
    7.0880   -4.6163   27.0010 C   0  0  0  0  0  0  0  0  0  0  0  0
    8.3117   -4.3698   27.4436 C   0  0  0  0  0  0  0  0  0  0  0  0
    1.1339   -5.0515   26.3541 C   0  0  0  0  0  0  0  0  0  0  0  0
    4.8080   -8.0362   16.7101 C   0  0  0  0  0  0  0  0  0  0  0  0
   -1.2173   -3.9294   26.9717 O   0  0  0  0  0  0  0  0  0  0  0  0
   -1.0025   -5.0942   27.4586 C   0  0  0  0  0  0  0  0  0  0  0  0
    2.2474   -8.9123   16.6273 C   0  0  0  0  0  0  0  0  0  0  0  0
    4.4957   -9.2636   17.3041 C   0  0  0  0  0  0  0  0  0  0  0  0
   -1.8070   -5.6086   28.1920 O   0  0  0  0  0  0  0  0  0  0  0  0
   10.4296   -5.1799   28.3140 C   0  0  0  0  0  0  0  0  0  0  0  0
    6.6017   -5.9004   26.9187 C   0  0  0  0  0  0  0  0  0  0  0  0
    2.4761   -6.9940   26.4111 N   0  0  0  0  0  0  0  0  0  0  0  0
    9.1353   -5.4053   27.8239 C   0  0  0  0  0  0  0  0  0  0  0  0
    0.9922   -9.3232   16.5995 O   0  0  0  0  0  0  0  0  0  0  0  0
    1.5232   -7.6869   27.1182 C   0  0  0  0  0  0  0  0  0  0  0  0
    8.6878   -6.6715   27.7262 N   0  0  0  0  0  0  0  0  0  0  0  0
    6.9911   -8.2423   27.1808 C   0  0  0  0  0  0  0  0  0  0  0  0
    3.8436   -7.2758   16.0578 C   0  0  0  0  0  0  0  0  0  0  0  0
    3.1882   -9.7190   17.2566 C   0  0  0  0  0  0  0  0  0  0  0  0
    5.3488   -6.1737   26.5092 C   0  0  0  0  0  0  0  0  0  0  0  0
    7.4567   -6.9464   27.2858 C   0  0  0  0  0  0  0  0  0  0  0  0
    0.1921   -5.7592   27.1123 C   0  0  0  0  0  0  0  0  0  0  0  0
    3.5517   -7.7407   25.9711 C   0  0  0  0  0  0  0  0  0  0  0  0
  1  4  4  0
  1 22  4  0
  2 20  4  0
  2 27  4  0
  3 12  4  0
  3 23  4  0
  4 25  4  0
  4 28  1  0
  5  8  4  0
  5 17  4  0
  6  7  4  0
  6 16  4  0
  7 18  4  0
  8 27  4  0
  9 13  4  0
  9 23  4  0
 10 11  1  0
 11 14  2  0
 11 27  1  0
 12 19  1  0
 12 24  4  0
 13 24  4  0
 15 18  1  0
 16 25  4  0
 16 26  4  0
 17 20  4  0
 17 28  1  0
 18 21  4  0
 21 26  4  0
 22 26  4  0
M  END
$$$$

 Created by Python create_sdf_string function

 28 30  0  0  0  0  0  0  0  0999 V2000
    5.7174   -8.4529   26.7190 C   0  0  0  0  0  0  0  0  0  0  0  0
    0.3974   -7.0711   27.5149 C   0  0  0  0  0  0  0  0  0  0  0  0
    2.5338   -7.6891   16.0102 C   0  0  0  0  0  0  0  0  0  0  0  0
    4.8690   -7.4380   26.4151 C   0  0  0  0  0  0  0  0  0  0  0  0
    2.3021   -5.6726   26.0378 C   0  0  0  0  0  0  0  0  0  0  0  0
    7.0880   -4.6163   27.0010 C   0  0  0  0  0  0  0  0  0  0  0  0
    8.3117   -4.3698   27.4436 C   0  0  0  0  0  0  0  0  0  0  0  0
    1.1339   -5.0515   26.3541 C   0  0  0  0  0  0  0  0  0  0  0  0
    4.8080   -8.0362   16.7101 C   0  0  0  0  0  0  0  0  0  0  0  0
   -1.2173   -3.9294   26.9717 O   0  0  0  0  0  0  0  0  0  0  0  0
   -1.0025   -5.0942   27.4586 C   0  0  0  0  0  0  0  0  0  0  0  0
    2.2474   -8.9123   16.6273 C   0  0  0  0  0  0  0  0  0  0  0  0
    4.4957   -9.2636   17.3041 C   0  0  0  0  0  0  0  0  0  0  0  0
   -1.8070   -5.6086   28.1920 O   0  0  0  0  0  0  0  0  0  0  0  0
   10.4296   -5.1799   28.3140 C   0  0  0  0  0  0  0  0  0  0  0  0
    6.6017   -5.9004   26.9187 C   0  0  0  0  0  0  0  0  0  0  0  0
    2.4761   -6.9940   26.4111 N   0  0  0  0  0  0  0  0  0  0  0  0
    9.1353   -5.4053   27.8239 C   0  0  0  0  0  0  0  0  0  0  0  0
    0.9922   -9.3232   16.5995 O   0  0  0  0  0  0  0  0  0  0  0  0
    1.5232   -7.6869   27.1182 C   0  0  0  0  0  0  0  0  0  0  0  0
    8.6878   -6.6715   27.7262 N   0  0  0  0  0  0  0  0  0  0  0  0
    6.9911   -8.2423   27.1808 C   0  0  0  0  0  0  0  0  0  0  0  0
    3.8436   -7.2758   16.0578 C   0  0  0  0  0  0  0  0  0  0  0  0
    3.1882   -9.7190   17.2566 C   0  0  0  0  0  0  0  0  0  0  0  0
    5.3488   -6.1737   26.5092 C   0  0  0  0  0  0  0  0  0  0  0  0
    7.4567   -6.9464   27.2858 C   0  0  0  0  0  0  0  0  0  0  0  0
    0.1921   -5.7592   27.1123 C   0  0  0  0  0  0  0  0  0  0  0  0
    3.5517   -7.7407   25.9711 C   0  0  0  0  0  0  0  0  0  0  0  0
  1  4  4  0
  1 22  4  0
  2 20  4  0
  2 27  4  0
  3 12  4  0
  3 23  4  0
  4 25  4  0
  4 28  1  0
  5  8  4  0
  5 17  4  0
  6  7  4  0
  6 16  4  0
  7 18  4  0
  8 27  4  0
  9 13  4  0
  9 23  4  0
 10 11  1  0
 11 14  2  0
 11 27  1  0
 12 19  1  0
 12 24  4  0
 13 24  4  0
 15 18  1  0
 16 25  4  0
 16 26  4  0
 17 20  4  0
 17 28  1  0
 18 21  4  0
 21 26  4  0
 22 26  4  0
M  END
$$$$

 Created by Python create_sdf_string function

 28 30  0  0  0  0  0  0  0  0999 V2000
    5.7174   -8.4529   26.7190 C   0  0  0  0  0  0  0  0  0  0  0  0
    0.3974   -7.0711   27.5149 C   0  0  0  0  0  0  0  0  0  0  0  0
    2.5338   -7.6891   16.0102 C   0  0  0  0  0  0  0  0  0  0  0  0
    4.8690   -7.4380   26.4151 C   0  0  0  0  0  0  0  0  0  0  0  0
    2.3021   -5.6726   26.0378 C   0  0  0  0  0  0  0  0  0  0  0  0
    7.0880   -4.6163   27.0010 C   0  0  0  0  0  0  0  0  0  0  0  0
    8.3117   -4.3698   27.4436 C   0  0  0  0  0  0  0  0  0  0  0  0
    1.1339   -5.0515   26.3541 C   0  0  0  0  0  0  0  0  0  0  0  0
    4.8080   -8.0362   16.7101 C   0  0  0  0  0  0  0  0  0  0  0  0
   -1.2173   -3.9294   26.9717 O   0  0  0  0  0  0  0  0  0  0  0  0
   -1.0025   -5.0942   27.4586 C   0  0  0  0  0  0  0  0  0  0  0  0
    2.2474   -8.9123   16.6273 C   0  0  0  0  0  0  0  0  0  0  0  0
    4.4957   -9.2636   17.3041 C   0  0  0  0  0  0  0  0  0  0  0  0
   -1.8070   -5.6086   28.1920 O   0  0  0  0  0  0  0  0  0  0  0  0
   10.4296   -5.1799   28.3140 C   0  0  0  0  0  0  0  0  0  0  0  0
    6.6017   -5.9004   26.9187 C   0  0  0  0  0  0  0  0  0  0  0  0
    2.4761   -6.9940   26.4111 N   0  0  0  0  0  0  0  0  0  0  0  0
    9.1353   -5.4053   27.8239 C   0  0  0  0  0  0  0  0  0  0  0  0
    0.9922   -9.3232   16.5995 O   0  0  0  0  0  0  0  0  0  0  0  0
    1.5232   -7.6869   27.1182 C   0  0  0  0  0  0  0  0  0  0  0  0
    8.6878   -6.6715   27.7262 N   0  0  0  0  0  0  0  0  0  0  0  0
    6.9911   -8.2423   27.1808 C   0  0  0  0  0  0  0  0  0  0  0  0
    3.8436   -7.2758   16.0578 C   0  0  0  0  0  0  0  0  0  0  0  0
    3.1882   -9.7190   17.2566 C   0  0  0  0  0  0  0  0  0  0  0  0
    5.3488   -6.1737   26.5092 C   0  0  0  0  0  0  0  0  0  0  0  0
    7.4567   -6.9464   27.2858 C   0  0  0  0  0  0  0  0  0  0  0  0
    0.1921   -5.7592   27.1123 C   0  0  0  0  0  0  0  0  0  0  0  0
    3.5517   -7.7407   25.9711 C   0  0  0  0  0  0  0  0  0  0  0  0
  1  4  4  0
  1 22  4  0
  2 20  4  0
  2 27  4  0
  3 12  4  0
  3 23  4  0
  4 25  4  0
  4 28  1  0
  5  8  4  0
  5 17  4  0
  6  7  4  0
  6 16  4  0
  7 18  4  0
  8 27  4  0
  9 13  4  0
  9 23  4  0
 10 11  1  0
 11 14  2  0
 11 27  1  0
 12 19  1  0
 12 24  4  0
 13 24  4  0
 15 18  1  0
 16 25  4  0
 16 26  4  0
 17 20  4  0
 17 28  1  0
 18 21  4  0
 21 26  4  0
 22 26  4  0
M  END
$$$$

 Created by Python create_sdf_string function

 28 30  0  0  0  0  0  0  0  0999 V2000
    5.7174   -8.4529   26.7190 C   0  0  0  0  0  0  0  0  0  0  0  0
    0.3974   -7.0711   27.5149 C   0  0  0  0  0  0  0  0  0  0  0  0
    2.5338   -7.6891   16.0102 C   0  0  0  0  0  0  0  0  0  0  0  0
    4.8690   -7.4380   26.4151 C   0  0  0  0  0  0  0  0  0  0  0  0
    2.3021   -5.6726   26.0378 C   0  0  0  0  0  0  0  0  0  0  0  0
    7.0880   -4.6163   27.0010 C   0  0  0  0  0  0  0  0  0  0  0  0
    8.3117   -4.3698   27.4436 C   0  0  0  0  0  0  0  0  0  0  0  0
    1.1339   -5.0515   26.3541 C   0  0  0  0  0  0  0  0  0  0  0  0
    4.8080   -8.0362   16.7101 C   0  0  0  0  0  0  0  0  0  0  0  0
   -1.2173   -3.9294   26.9717 O   0  0  0  0  0  0  0  0  0  0  0  0
   -1.0025   -5.0942   27.4586 C   0  0  0  0  0  0  0  0  0  0  0  0
    2.2474   -8.9123   16.6273 C   0  0  0  0  0  0  0  0  0  0  0  0
    4.4957   -9.2636   17.3041 C   0  0  0  0  0  0  0  0  0  0  0  0
   -1.8070   -5.6086   28.1920 O   0  0  0  0  0  0  0  0  0  0  0  0
   10.4296   -5.1799   28.3140 C   0  0  0  0  0  0  0  0  0  0  0  0
    6.6017   -5.9004   26.9187 C   0  0  0  0  0  0  0  0  0  0  0  0
    2.4761   -6.9940   26.4111 N   0  0  0  0  0  0  0  0  0  0  0  0
    9.1353   -5.4053   27.8239 C   0  0  0  0  0  0  0  0  0  0  0  0
    0.9922   -9.3232   16.5995 O   0  0  0  0  0  0  0  0  0  0  0  0
    1.5232   -7.6869   27.1182 C   0  0  0  0  0  0  0  0  0  0  0  0
    8.6878   -6.6715   27.7262 N   0  0  0  0  0  0  0  0  0  0  0  0
    6.9911   -8.2423   27.1808 C   0  0  0  0  0  0  0  0  0  0  0  0
    3.8436   -7.2758   16.0578 C   0  0  0  0  0  0  0  0  0  0  0  0
    3.1882   -9.7190   17.2566 C   0  0  0  0  0  0  0  0  0  0  0  0
    5.3488   -6.1737   26.5092 C   0  0  0  0  0  0  0  0  0  0  0  0
    7.4567   -6.9464   27.2858 C   0  0  0  0  0  0  0  0  0  0  0  0
    0.1921   -5.7592   27.1123 C   0  0  0  0  0  0  0  0  0  0  0  0
    3.5517   -7.7407   25.9711 C   0  0  0  0  0  0  0  0  0  0  0  0
  1  4  4  0
  1 22  4  0
  2 20  4  0
  2 27  4  0
  3 12  4  0
  3 23  4  0
  4 25  4  0
  4 28  1  0
  5  8  4  0
  5 17  4  0
  6  7  4  0
  6 16  4  0
  7 18  4  0
  8 27  4  0
  9 13  4  0
  9 23  4  0
 10 11  1  0
 11 14  2  0
 11 27  1  0
 12 19  1  0
 12 24  4  0
 13 24  4  0
 15 18  1  0
 16 25  4  0
 16 26  4  0
 17 20  4  0
 17 28  1  0
 18 21  4  0
 21 26  4  0
 22 26  4  0
M  END
$$$$

 Created by Python create_sdf_string function

 28 30  0  0  0  0  0  0  0  0999 V2000
    5.7174   -8.4529   26.7190 C   0  0  0  0  0  0  0  0  0  0  0  0
    0.3974   -7.0711   27.5149 C   0  0  0  0  0  0  0  0  0  0  0  0
    2.5338   -7.6891   16.0102 C   0  0  0  0  0  0  0  0  0  0  0  0
    4.8690   -7.4380   26.4151 C   0  0  0  0  0  0  0  0  0  0  0  0
    2.3021   -5.6726   26.0378 C   0  0  0  0  0  0  0  0  0  0  0  0
    7.0880   -4.6163   27.0010 C   0  0  0  0  0  0  0  0  0  0  0  0
    8.3117   -4.3698   27.4436 C   0  0  0  0  0  0  0  0  0  0  0  0
    1.1339   -5.0515   26.3541 C   0  0  0  0  0  0  0  0  0  0  0  0
    4.8080   -8.0362   16.7101 C   0  0  0  0  0  0  0  0  0  0  0  0
   -1.2173   -3.9294   26.9717 O   0  0  0  0  0  0  0  0  0  0  0  0
   -1.0025   -5.0942   27.4586 C   0  0  0  0  0  0  0  0  0  0  0  0
    2.2474   -8.9123   16.6273 C   0  0  0  0  0  0  0  0  0  0  0  0
    4.4957   -9.2636   17.3041 C   0  0  0  0  0  0  0  0  0  0  0  0
   -1.8070   -5.6086   28.1920 O   0  0  0  0  0  0  0  0  0  0  0  0
   10.4296   -5.1799   28.3140 C   0  0  0  0  0  0  0  0  0  0  0  0
    6.6017   -5.9004   26.9187 C   0  0  0  0  0  0  0  0  0  0  0  0
    2.4761   -6.9940   26.4111 N   0  0  0  0  0  0  0  0  0  0  0  0
    9.1353   -5.4053   27.8239 C   0  0  0  0  0  0  0  0  0  0  0  0
    0.9922   -9.3232   16.5995 O   0  0  0  0  0  0  0  0  0  0  0  0
    1.5232   -7.6869   27.1182 C   0  0  0  0  0  0  0  0  0  0  0  0
    8.6878   -6.6715   27.7262 N   0  0  0  0  0  0  0  0  0  0  0  0
    6.9911   -8.2423   27.1808 C   0  0  0  0  0  0  0  0  0  0  0  0
    3.8436   -7.2758   16.0578 C   0  0  0  0  0  0  0  0  0  0  0  0
    3.1882   -9.7190   17.2566 C   0  0  0  0  0  0  0  0  0  0  0  0
    5.3488   -6.1737   26.5092 C   0  0  0  0  0  0  0  0  0  0  0  0
    7.4567   -6.9464   27.2858 C   0  0  0  0  0  0  0  0  0  0  0  0
    0.1921   -5.7592   27.1123 C   0  0  0  0  0  0  0  0  0  0  0  0
    3.5517   -7.7407   25.9711 C   0  0  0  0  0  0  0  0  0  0  0  0
  1  4  4  0
  1 22  4  0
  2 20  4  0
  2 27  4  0
  3 12  4  0
  3 23  4  0
  4 25  4  0
  4 28  1  0
  5  8  4  0
  5 17  4  0
  6  7  4  0
  6 16  4  0
  7 18  4  0
  8 27  4  0
  9 13  4  0
  9 23  4  0
 10 11  1  0
 11 14  2  0
 11 27  1  0
 12 19  1  0
 12 24  4  0
 13 24  4  0
 15 18  1  0
 16 25  4  0
 16 26  4  0
 17 20  4  0
 17 28  1  0
 18 21  4  0
 21 26  4  0
 22 26  4  0
M  END
$$$$

 Created by Python create_sdf_string function

 28 30  0  0  0  0  0  0  0  0999 V2000
    5.7174   -8.4529   26.7190 C   0  0  0  0  0  0  0  0  0  0  0  0
    0.3974   -7.0711   27.5149 C   0  0  0  0  0  0  0  0  0  0  0  0
    2.5338   -7.6891   16.0102 C   0  0  0  0  0  0  0  0  0  0  0  0
    4.8690   -7.4380   26.4151 C   0  0  0  0  0  0  0  0  0  0  0  0
    2.3021   -5.6726   26.0378 C   0  0  0  0  0  0  0  0  0  0  0  0
    7.0880   -4.6163   27.0010 C   0  0  0  0  0  0  0  0  0  0  0  0
    8.3117   -4.3698   27.4436 C   0  0  0  0  0  0  0  0  0  0  0  0
    1.1339   -5.0515   26.3541 C   0  0  0  0  0  0  0  0  0  0  0  0
    4.8080   -8.0362   16.7101 C   0  0  0  0  0  0  0  0  0  0  0  0
   -1.2173   -3.9294   26.9717 O   0  0  0  0  0  0  0  0  0  0  0  0
   -1.0025   -5.0942   27.4586 C   0  0  0  0  0  0  0  0  0  0  0  0
    2.2474   -8.9123   16.6273 C   0  0  0  0  0  0  0  0  0  0  0  0
    4.4957   -9.2636   17.3041 C   0  0  0  0  0  0  0  0  0  0  0  0
   -1.8070   -5.6086   28.1920 O   0  0  0  0  0  0  0  0  0  0  0  0
   10.4296   -5.1799   28.3140 C   0  0  0  0  0  0  0  0  0  0  0  0
    6.6017   -5.9004   26.9187 C   0  0  0  0  0  0  0  0  0  0  0  0
    2.4761   -6.9940   26.4111 N   0  0  0  0  0  0  0  0  0  0  0  0
    9.1353   -5.4053   27.8239 C   0  0  0  0  0  0  0  0  0  0  0  0
    0.9922   -9.3232   16.5995 O   0  0  0  0  0  0  0  0  0  0  0  0
    1.5232   -7.6869   27.1182 C   0  0  0  0  0  0  0  0  0  0  0  0
    8.6878   -6.6715   27.7262 N   0  0  0  0  0  0  0  0  0  0  0  0
    6.9911   -8.2423   27.1808 C   0  0  0  0  0  0  0  0  0  0  0  0
    3.8436   -7.2758   16.0578 C   0  0  0  0  0  0  0  0  0  0  0  0
    3.1882   -9.7190   17.2566 C   0  0  0  0  0  0  0  0  0  0  0  0
    5.3488   -6.1737   26.5092 C   0  0  0  0  0  0  0  0  0  0  0  0
    7.4567   -6.9464   27.2858 C   0  0  0  0  0  0  0  0  0  0  0  0
    0.1921   -5.7592   27.1123 C   0  0  0  0  0  0  0  0  0  0  0  0
    3.5517   -7.7407   25.9711 C   0  0  0  0  0  0  0  0  0  0  0  0
  1  4  4  0
  1 22  4  0
  2 20  4  0
  2 27  4  0
  3 12  4  0
  3 23  4  0
  4 25  4  0
  4 28  1  0
  5  8  4  0
  5 17  4  0
  6  7  4  0
  6 16  4  0
  7 18  4  0
  8 27  4  0
  9 13  4  0
  9 23  4  0
 10 11  1  0
 11 14  2  0
 11 27  1  0
 12 19  1  0
 12 24  4  0
 13 24  4  0
 15 18  1  0
 16 25  4  0
 16 26  4  0
 17 20  4  0
 17 28  1  0
 18 21  4  0
 21 26  4  0
 22 26  4  0
M  END
$$$$

 Created by Python create_sdf_string function

 28 30  0  0  0  0  0  0  0  0999 V2000
    5.7174   -8.4529   26.7190 C   0  0  0  0  0  0  0  0  0  0  0  0
    0.3974   -7.0711   27.5149 C   0  0  0  0  0  0  0  0  0  0  0  0
    2.5338   -7.6891   16.0102 C   0  0  0  0  0  0  0  0  0  0  0  0
    4.8690   -7.4380   26.4151 C   0  0  0  0  0  0  0  0  0  0  0  0
    2.3021   -5.6726   26.0378 C   0  0  0  0  0  0  0  0  0  0  0  0
    7.0880   -4.6163   27.0010 C   0  0  0  0  0  0  0  0  0  0  0  0
    8.3117   -4.3698   27.4436 C   0  0  0  0  0  0  0  0  0  0  0  0
    1.1339   -5.0515   26.3541 C   0  0  0  0  0  0  0  0  0  0  0  0
    4.8080   -8.0362   16.7101 C   0  0  0  0  0  0  0  0  0  0  0  0
   -1.2173   -3.9294   26.9717 O   0  0  0  0  0  0  0  0  0  0  0  0
   -1.0025   -5.0942   27.4586 C   0  0  0  0  0  0  0  0  0  0  0  0
    2.2474   -8.9123   16.6273 C   0  0  0  0  0  0  0  0  0  0  0  0
    4.4957   -9.2636   17.3041 C   0  0  0  0  0  0  0  0  0  0  0  0
   -1.8070   -5.6086   28.1920 O   0  0  0  0  0  0  0  0  0  0  0  0
   10.4296   -5.1799   28.3140 C   0  0  0  0  0  0  0  0  0  0  0  0
    6.6017   -5.9004   26.9187 C   0  0  0  0  0  0  0  0  0  0  0  0
    2.4761   -6.9940   26.4111 N   0  0  0  0  0  0  0  0  0  0  0  0
    9.1353   -5.4053   27.8239 C   0  0  0  0  0  0  0  0  0  0  0  0
    0.9922   -9.3232   16.5995 O   0  0  0  0  0  0  0  0  0  0  0  0
    1.5232   -7.6869   27.1182 C   0  0  0  0  0  0  0  0  0  0  0  0
    8.6878   -6.6715   27.7262 N   0  0  0  0  0  0  0  0  0  0  0  0
    6.9911   -8.2423   27.1808 C   0  0  0  0  0  0  0  0  0  0  0  0
    3.8436   -7.2758   16.0578 C   0  0  0  0  0  0  0  0  0  0  0  0
    3.1882   -9.7190   17.2566 C   0  0  0  0  0  0  0  0  0  0  0  0
    5.3488   -6.1737   26.5092 C   0  0  0  0  0  0  0  0  0  0  0  0
    7.4567   -6.9464   27.2858 C   0  0  0  0  0  0  0  0  0  0  0  0
    0.1921   -5.7592   27.1123 C   0  0  0  0  0  0  0  0  0  0  0  0
    3.5517   -7.7407   25.9711 C   0  0  0  0  0  0  0  0  0  0  0  0
  1  4  4  0
  1 22  4  0
  2 20  4  0
  2 27  4  0
  3 12  4  0
  3 23  4  0
  4 25  4  0
  4 28  1  0
  5  8  4  0
  5 17  4  0
  6  7  4  0
  6 16  4  0
  7 18  4  0
  8 27  4  0
  9 13  4  0
  9 23  4  0
 10 11  1  0
 11 14  2  0
 11 27  1  0
 12 19  1  0
 12 24  4  0
 13 24  4  0
 15 18  1  0
 16 25  4  0
 16 26  4  0
 17 20  4  0
 17 28  1  0
 18 21  4  0
 21 26  4  0
 22 26  4  0
M  END
$$$$

 Created by Python create_sdf_string function

 28 30  0  0  0  0  0  0  0  0999 V2000
    5.7174   -8.4529   26.7190 C   0  0  0  0  0  0  0  0  0  0  0  0
    0.3974   -7.0711   27.5149 C   0  0  0  0  0  0  0  0  0  0  0  0
    2.5338   -7.6891   16.0102 C   0  0  0  0  0  0  0  0  0  0  0  0
    4.8690   -7.4380   26.4151 C   0  0  0  0  0  0  0  0  0  0  0  0
    2.3021   -5.6726   26.0378 C   0  0  0  0  0  0  0  0  0  0  0  0
    7.0880   -4.6163   27.0010 C   0  0  0  0  0  0  0  0  0  0  0  0
    8.3117   -4.3698   27.4436 C   0  0  0  0  0  0  0  0  0  0  0  0
    1.1339   -5.0515   26.3541 C   0  0  0  0  0  0  0  0  0  0  0  0
    4.8080   -8.0362   16.7101 C   0  0  0  0  0  0  0  0  0  0  0  0
   -1.2173   -3.9294   26.9717 O   0  0  0  0  0  0  0  0  0  0  0  0
   -1.0025   -5.0942   27.4586 C   0  0  0  0  0  0  0  0  0  0  0  0
    2.2474   -8.9123   16.6273 C   0  0  0  0  0  0  0  0  0  0  0  0
    4.4957   -9.2636   17.3041 C   0  0  0  0  0  0  0  0  0  0  0  0
   -1.8070   -5.6086   28.1920 O   0  0  0  0  0  0  0  0  0  0  0  0
   10.4296   -5.1799   28.3140 C   0  0  0  0  0  0  0  0  0  0  0  0
    6.6017   -5.9004   26.9187 C   0  0  0  0  0  0  0  0  0  0  0  0
    2.4761   -6.9940   26.4111 N   0  0  0  0  0  0  0  0  0  0  0  0
    9.1353   -5.4053   27.8239 C   0  0  0  0  0  0  0  0  0  0  0  0
    0.9922   -9.3232   16.5995 O   0  0  0  0  0  0  0  0  0  0  0  0
    1.5232   -7.6869   27.1182 C   0  0  0  0  0  0  0  0  0  0  0  0
    8.6878   -6.6715   27.7262 N   0  0  0  0  0  0  0  0  0  0  0  0
    6.9911   -8.2423   27.1808 C   0  0  0  0  0  0  0  0  0  0  0  0
    3.8436   -7.2758   16.0578 C   0  0  0  0  0  0  0  0  0  0  0  0
    3.1882   -9.7190   17.2566 C   0  0  0  0  0  0  0  0  0  0  0  0
    5.3488   -6.1737   26.5092 C   0  0  0  0  0  0  0  0  0  0  0  0
    7.4567   -6.9464   27.2858 C   0  0  0  0  0  0  0  0  0  0  0  0
    0.1921   -5.7592   27.1123 C   0  0  0  0  0  0  0  0  0  0  0  0
    3.5517   -7.7407   25.9711 C   0  0  0  0  0  0  0  0  0  0  0  0
  1  4  4  0
  1 22  4  0
  2 20  4  0
  2 27  4  0
  3 12  4  0
  3 23  4  0
  4 25  4  0
  4 28  1  0
  5  8  4  0
  5 17  4  0
  6  7  4  0
  6 16  4  0
  7 18  4  0
  8 27  4  0
  9 13  4  0
  9 23  4  0
 10 11  1  0
 11 14  2  0
 11 27  1  0
 12 19  1  0
 12 24  4  0
 13 24  4  0
 15 18  1  0
 16 25  4  0
 16 26  4  0
 17 20  4  0
 17 28  1  0
 18 21  4  0
 21 26  4  0
 22 26  4  0
M  END
$$$$

 Created by Python create_sdf_string function

 28 30  0  0  0  0  0  0  0  0999 V2000
    5.7174   -8.4529   26.7190 C   0  0  0  0  0  0  0  0  0  0  0  0
    0.3974   -7.0711   27.5149 C   0  0  0  0  0  0  0  0  0  0  0  0
    2.5338   -7.6891   16.0102 C   0  0  0  0  0  0  0  0  0  0  0  0
    4.8690   -7.4380   26.4151 C   0  0  0  0  0  0  0  0  0  0  0  0
    2.3021   -5.6726   26.0378 C   0  0  0  0  0  0  0  0  0  0  0  0
    7.0880   -4.6163   27.0010 C   0  0  0  0  0  0  0  0  0  0  0  0
    8.3117   -4.3698   27.4436 C   0  0  0  0  0  0  0  0  0  0  0  0
    1.1339   -5.0515   26.3541 C   0  0  0  0  0  0  0  0  0  0  0  0
    4.8080   -8.0362   16.7101 C   0  0  0  0  0  0  0  0  0  0  0  0
   -1.2173   -3.9294   26.9717 O   0  0  0  0  0  0  0  0  0  0  0  0
   -1.0025   -5.0942   27.4586 C   0  0  0  0  0  0  0  0  0  0  0  0
    2.2474   -8.9123   16.6273 C   0  0  0  0  0  0  0  0  0  0  0  0
    4.4957   -9.2636   17.3041 C   0  0  0  0  0  0  0  0  0  0  0  0
   -1.8070   -5.6086   28.1920 O   0  0  0  0  0  0  0  0  0  0  0  0
   10.4296   -5.1799   28.3140 C   0  0  0  0  0  0  0  0  0  0  0  0
    6.6017   -5.9004   26.9187 C   0  0  0  0  0  0  0  0  0  0  0  0
    2.4761   -6.9940   26.4111 N   0  0  0  0  0  0  0  0  0  0  0  0
    9.1353   -5.4053   27.8239 C   0  0  0  0  0  0  0  0  0  0  0  0
    0.9922   -9.3232   16.5995 O   0  0  0  0  0  0  0  0  0  0  0  0
    1.5232   -7.6869   27.1182 C   0  0  0  0  0  0  0  0  0  0  0  0
    8.6878   -6.6715   27.7262 N   0  0  0  0  0  0  0  0  0  0  0  0
    6.9911   -8.2423   27.1808 C   0  0  0  0  0  0  0  0  0  0  0  0
    3.8436   -7.2758   16.0578 C   0  0  0  0  0  0  0  0  0  0  0  0
    3.1882   -9.7190   17.2566 C   0  0  0  0  0  0  0  0  0  0  0  0
    5.3488   -6.1737   26.5092 C   0  0  0  0  0  0  0  0  0  0  0  0
    7.4567   -6.9464   27.2858 C   0  0  0  0  0  0  0  0  0  0  0  0
    0.1921   -5.7592   27.1123 C   0  0  0  0  0  0  0  0  0  0  0  0
    3.5517   -7.7407   25.9711 C   0  0  0  0  0  0  0  0  0  0  0  0
  1  4  4  0
  1 22  4  0
  2 20  4  0
  2 27  4  0
  3 12  4  0
  3 23  4  0
  4 25  4  0
  4 28  1  0
  5  8  4  0
  5 17  4  0
  6  7  4  0
  6 16  4  0
  7 18  4  0
  8 27  4  0
  9 13  4  0
  9 23  4  0
 10 11  1  0
 11 14  2  0
 11 27  1  0
 12 19  1  0
 12 24  4  0
 13 24  4  0
 15 18  1  0
 16 25  4  0
 16 26  4  0
 17 20  4  0
 17 28  1  0
 18 21  4  0
 21 26  4  0
 22 26  4  0
M  END
$$$$

 Created by Python create_sdf_string function

 28 30  0  0  0  0  0  0  0  0999 V2000
    5.7174   -8.4529   26.7190 C   0  0  0  0  0  0  0  0  0  0  0  0
    0.3974   -7.0711   27.5149 C   0  0  0  0  0  0  0  0  0  0  0  0
    2.5338   -7.6891   16.0102 C   0  0  0  0  0  0  0  0  0  0  0  0
    4.8690   -7.4380   26.4151 C   0  0  0  0  0  0  0  0  0  0  0  0
    2.3021   -5.6726   26.0378 C   0  0  0  0  0  0  0  0  0  0  0  0
    7.0880   -4.6163   27.0010 C   0  0  0  0  0  0  0  0  0  0  0  0
    8.3117   -4.3698   27.4436 C   0  0  0  0  0  0  0  0  0  0  0  0
    1.1339   -5.0515   26.3541 C   0  0  0  0  0  0  0  0  0  0  0  0
    4.8080   -8.0362   16.7101 C   0  0  0  0  0  0  0  0  0  0  0  0
   -1.2173   -3.9294   26.9717 O   0  0  0  0  0  0  0  0  0  0  0  0
   -1.0025   -5.0942   27.4586 C   0  0  0  0  0  0  0  0  0  0  0  0
    2.2474   -8.9123   16.6273 C   0  0  0  0  0  0  0  0  0  0  0  0
    4.4957   -9.2636   17.3041 C   0  0  0  0  0  0  0  0  0  0  0  0
   -1.8070   -5.6086   28.1920 O   0  0  0  0  0  0  0  0  0  0  0  0
   10.4296   -5.1799   28.3140 C   0  0  0  0  0  0  0  0  0  0  0  0
    6.6017   -5.9004   26.9187 C   0  0  0  0  0  0  0  0  0  0  0  0
    2.4761   -6.9940   26.4111 N   0  0  0  0  0  0  0  0  0  0  0  0
    9.1353   -5.4053   27.8239 C   0  0  0  0  0  0  0  0  0  0  0  0
    0.9922   -9.3232   16.5995 O   0  0  0  0  0  0  0  0  0  0  0  0
    1.5232   -7.6869   27.1182 C   0  0  0  0  0  0  0  0  0  0  0  0
    8.6878   -6.6715   27.7262 N   0  0  0  0  0  0  0  0  0  0  0  0
    6.9911   -8.2423   27.1808 C   0  0  0  0  0  0  0  0  0  0  0  0
    3.8436   -7.2758   16.0578 C   0  0  0  0  0  0  0  0  0  0  0  0
    3.1882   -9.7190   17.2566 C   0  0  0  0  0  0  0  0  0  0  0  0
    5.3488   -6.1737   26.5092 C   0  0  0  0  0  0  0  0  0  0  0  0
    7.4567   -6.9464   27.2858 C   0  0  0  0  0  0  0  0  0  0  0  0
    0.1921   -5.7592   27.1123 C   0  0  0  0  0  0  0  0  0  0  0  0
    3.5517   -7.7407   25.9711 C   0  0  0  0  0  0  0  0  0  0  0  0
  1  4  4  0
  1 22  4  0
  2 20  4  0
  2 27  4  0
  3 12  4  0
  3 23  4  0
  4 25  4  0
  4 28  1  0
  5  8  4  0
  5 17  4  0
  6  7  4  0
  6 16  4  0
  7 18  4  0
  8 27  4  0
  9 13  4  0
  9 23  4  0
 10 11  1  0
 11 14  2  0
 11 27  1  0
 12 19  1  0
 12 24  4  0
 13 24  4  0
 15 18  1  0
 16 25  4  0
 16 26  4  0
 17 20  4  0
 17 28  1  0
 18 21  4  0
 21 26  4  0
 22 26  4  0
M  END
$$$$

 Created by Python create_sdf_string function

 28 30  0  0  0  0  0  0  0  0999 V2000
    5.7174   -8.4529   26.7190 C   0  0  0  0  0  0  0  0  0  0  0  0
    0.3974   -7.0711   27.5149 C   0  0  0  0  0  0  0  0  0  0  0  0
    2.5338   -7.6891   16.0102 C   0  0  0  0  0  0  0  0  0  0  0  0
    4.8690   -7.4380   26.4151 C   0  0  0  0  0  0  0  0  0  0  0  0
    2.3021   -5.6726   26.0378 C   0  0  0  0  0  0  0  0  0  0  0  0
    7.0880   -4.6163   27.0010 C   0  0  0  0  0  0  0  0  0  0  0  0
    8.3117   -4.3698   27.4436 C   0  0  0  0  0  0  0  0  0  0  0  0
    1.1339   -5.0515   26.3541 C   0  0  0  0  0  0  0  0  0  0  0  0
    4.8080   -8.0362   16.7101 C   0  0  0  0  0  0  0  0  0  0  0  0
   -1.2173   -3.9294   26.9717 O   0  0  0  0  0  0  0  0  0  0  0  0
   -1.0025   -5.0942   27.4586 C   0  0  0  0  0  0  0  0  0  0  0  0
    2.2474   -8.9123   16.6273 C   0  0  0  0  0  0  0  0  0  0  0  0
    4.4957   -9.2636   17.3041 C   0  0  0  0  0  0  0  0  0  0  0  0
   -1.8070   -5.6086   28.1920 O   0  0  0  0  0  0  0  0  0  0  0  0
   10.4296   -5.1799   28.3140 C   0  0  0  0  0  0  0  0  0  0  0  0
    6.6017   -5.9004   26.9187 C   0  0  0  0  0  0  0  0  0  0  0  0
    2.4761   -6.9940   26.4111 N   0  0  0  0  0  0  0  0  0  0  0  0
    9.1353   -5.4053   27.8239 C   0  0  0  0  0  0  0  0  0  0  0  0
    0.9922   -9.3232   16.5995 O   0  0  0  0  0  0  0  0  0  0  0  0
    1.5232   -7.6869   27.1182 C   0  0  0  0  0  0  0  0  0  0  0  0
    8.6878   -6.6715   27.7262 N   0  0  0  0  0  0  0  0  0  0  0  0
    6.9911   -8.2423   27.1808 C   0  0  0  0  0  0  0  0  0  0  0  0
    3.8436   -7.2758   16.0578 C   0  0  0  0  0  0  0  0  0  0  0  0
    3.1882   -9.7190   17.2566 C   0  0  0  0  0  0  0  0  0  0  0  0
    5.3488   -6.1737   26.5092 C   0  0  0  0  0  0  0  0  0  0  0  0
    7.4567   -6.9464   27.2858 C   0  0  0  0  0  0  0  0  0  0  0  0
    0.1921   -5.7592   27.1123 C   0  0  0  0  0  0  0  0  0  0  0  0
    3.5517   -7.7407   25.9711 C   0  0  0  0  0  0  0  0  0  0  0  0
  1  4  4  0
  1 22  4  0
  2 20  4  0
  2 27  4  0
  3 12  4  0
  3 23  4  0
  4 25  4  0
  4 28  1  0
  5  8  4  0
  5 17  4  0
  6  7  4  0
  6 16  4  0
  7 18  4  0
  8 27  4  0
  9 13  4  0
  9 23  4  0
 10 11  1  0
 11 14  2  0
 11 27  1  0
 12 19  1  0
 12 24  4  0
 13 24  4  0
 15 18  1  0
 16 25  4  0
 16 26  4  0
 17 20  4  0
 17 28  1  0
 18 21  4  0
 21 26  4  0
 22 26  4  0
M  END
$$$$

 Created by Python create_sdf_string function

 28 30  0  0  0  0  0  0  0  0999 V2000
    5.7174   -8.4529   26.7190 C   0  0  0  0  0  0  0  0  0  0  0  0
    0.3974   -7.0711   27.5149 C   0  0  0  0  0  0  0  0  0  0  0  0
    2.5338   -7.6891   16.0102 C   0  0  0  0  0  0  0  0  0  0  0  0
    4.8690   -7.4380   26.4151 C   0  0  0  0  0  0  0  0  0  0  0  0
    2.3021   -5.6726   26.0378 C   0  0  0  0  0  0  0  0  0  0  0  0
    7.0880   -4.6163   27.0010 C   0  0  0  0  0  0  0  0  0  0  0  0
    8.3117   -4.3698   27.4436 C   0  0  0  0  0  0  0  0  0  0  0  0
    1.1339   -5.0515   26.3541 C   0  0  0  0  0  0  0  0  0  0  0  0
    4.8080   -8.0362   16.7101 C   0  0  0  0  0  0  0  0  0  0  0  0
   -1.2173   -3.9294   26.9717 O   0  0  0  0  0  0  0  0  0  0  0  0
   -1.0025   -5.0942   27.4586 C   0  0  0  0  0  0  0  0  0  0  0  0
    2.2474   -8.9123   16.6273 C   0  0  0  0  0  0  0  0  0  0  0  0
    4.4957   -9.2636   17.3041 C   0  0  0  0  0  0  0  0  0  0  0  0
   -1.8070   -5.6086   28.1920 O   0  0  0  0  0  0  0  0  0  0  0  0
   10.4296   -5.1799   28.3140 C   0  0  0  0  0  0  0  0  0  0  0  0
    6.6017   -5.9004   26.9187 C   0  0  0  0  0  0  0  0  0  0  0  0
    2.4761   -6.9940   26.4111 N   0  0  0  0  0  0  0  0  0  0  0  0
    9.1353   -5.4053   27.8239 C   0  0  0  0  0  0  0  0  0  0  0  0
    0.9922   -9.3232   16.5995 O   0  0  0  0  0  0  0  0  0  0  0  0
    1.5232   -7.6869   27.1182 C   0  0  0  0  0  0  0  0  0  0  0  0
    8.6878   -6.6715   27.7262 N   0  0  0  0  0  0  0  0  0  0  0  0
    6.9911   -8.2423   27.1808 C   0  0  0  0  0  0  0  0  0  0  0  0
    3.8436   -7.2758   16.0578 C   0  0  0  0  0  0  0  0  0  0  0  0
    3.1882   -9.7190   17.2566 C   0  0  0  0  0  0  0  0  0  0  0  0
    5.3488   -6.1737   26.5092 C   0  0  0  0  0  0  0  0  0  0  0  0
    7.4567   -6.9464   27.2858 C   0  0  0  0  0  0  0  0  0  0  0  0
    0.1921   -5.7592   27.1123 C   0  0  0  0  0  0  0  0  0  0  0  0
    3.5517   -7.7407   25.9711 C   0  0  0  0  0  0  0  0  0  0  0  0
  1  4  4  0
  1 22  4  0
  2 20  4  0
  2 27  4  0
  3 12  4  0
  3 23  4  0
  4 25  4  0
  4 28  1  0
  5  8  4  0
  5 17  4  0
  6  7  4  0
  6 16  4  0
  7 18  4  0
  8 27  4  0
  9 13  4  0
  9 23  4  0
 10 11  1  0
 11 14  2  0
 11 27  1  0
 12 19  1  0
 12 24  4  0
 13 24  4  0
 15 18  1  0
 16 25  4  0
 16 26  4  0
 17 20  4  0
 17 28  1  0
 18 21  4  0
 21 26  4  0
 22 26  4  0
M  END
$$$$

 Created by Python create_sdf_string function

 28 30  0  0  0  0  0  0  0  0999 V2000
    5.7174   -8.4529   26.7190 C   0  0  0  0  0  0  0  0  0  0  0  0
    0.3974   -7.0711   27.5149 C   0  0  0  0  0  0  0  0  0  0  0  0
    2.5338   -7.6891   16.0102 C   0  0  0  0  0  0  0  0  0  0  0  0
    4.8690   -7.4380   26.4151 C   0  0  0  0  0  0  0  0  0  0  0  0
    2.3021   -5.6726   26.0378 C   0  0  0  0  0  0  0  0  0  0  0  0
    7.0880   -4.6163   27.0010 C   0  0  0  0  0  0  0  0  0  0  0  0
    8.3117   -4.3698   27.4436 C   0  0  0  0  0  0  0  0  0  0  0  0
    1.1339   -5.0515   26.3541 C   0  0  0  0  0  0  0  0  0  0  0  0
    4.8080   -8.0362   16.7101 C   0  0  0  0  0  0  0  0  0  0  0  0
   -1.2173   -3.9294   26.9717 O   0  0  0  0  0  0  0  0  0  0  0  0
   -1.0025   -5.0942   27.4586 C   0  0  0  0  0  0  0  0  0  0  0  0
    2.2474   -8.9123   16.6273 C   0  0  0  0  0  0  0  0  0  0  0  0
    4.4957   -9.2636   17.3041 C   0  0  0  0  0  0  0  0  0  0  0  0
   -1.8070   -5.6086   28.1920 O   0  0  0  0  0  0  0  0  0  0  0  0
   10.4296   -5.1799   28.3140 C   0  0  0  0  0  0  0  0  0  0  0  0
    6.6017   -5.9004   26.9187 C   0  0  0  0  0  0  0  0  0  0  0  0
    2.4761   -6.9940   26.4111 N   0  0  0  0  0  0  0  0  0  0  0  0
    9.1353   -5.4053   27.8239 C   0  0  0  0  0  0  0  0  0  0  0  0
    0.9922   -9.3232   16.5995 O   0  0  0  0  0  0  0  0  0  0  0  0
    1.5232   -7.6869   27.1182 C   0  0  0  0  0  0  0  0  0  0  0  0
    8.6878   -6.6715   27.7262 N   0  0  0  0  0  0  0  0  0  0  0  0
    6.9911   -8.2423   27.1808 C   0  0  0  0  0  0  0  0  0  0  0  0
    3.8436   -7.2758   16.0578 C   0  0  0  0  0  0  0  0  0  0  0  0
    3.1882   -9.7190   17.2566 C   0  0  0  0  0  0  0  0  0  0  0  0
    5.3488   -6.1737   26.5092 C   0  0  0  0  0  0  0  0  0  0  0  0
    7.4567   -6.9464   27.2858 C   0  0  0  0  0  0  0  0  0  0  0  0
    0.1921   -5.7592   27.1123 C   0  0  0  0  0  0  0  0  0  0  0  0
    3.5517   -7.7407   25.9711 C   0  0  0  0  0  0  0  0  0  0  0  0
  1  4  4  0
  1 22  4  0
  2 20  4  0
  2 27  4  0
  3 12  4  0
  3 23  4  0
  4 25  4  0
  4 28  1  0
  5  8  4  0
  5 17  4  0
  6  7  4  0
  6 16  4  0
  7 18  4  0
  8 27  4  0
  9 13  4  0
  9 23  4  0
 10 11  1  0
 11 14  2  0
 11 27  1  0
 12 19  1  0
 12 24  4  0
 13 24  4  0
 15 18  1  0
 16 25  4  0
 16 26  4  0
 17 20  4  0
 17 28  1  0
 18 21  4  0
 21 26  4  0
 22 26  4  0
M  END
$$$$

 Created by Python create_sdf_string function

 28 30  0  0  0  0  0  0  0  0999 V2000
    5.7174   -8.4529   26.7190 C   0  0  0  0  0  0  0  0  0  0  0  0
    0.3974   -7.0711   27.5149 C   0  0  0  0  0  0  0  0  0  0  0  0
    2.5338   -7.6891   16.0102 C   0  0  0  0  0  0  0  0  0  0  0  0
    4.8690   -7.4380   26.4151 C   0  0  0  0  0  0  0  0  0  0  0  0
    2.3021   -5.6726   26.0378 C   0  0  0  0  0  0  0  0  0  0  0  0
    7.0880   -4.6163   27.0010 C   0  0  0  0  0  0  0  0  0  0  0  0
    8.3117   -4.3698   27.4436 C   0  0  0  0  0  0  0  0  0  0  0  0
    1.1339   -5.0515   26.3541 C   0  0  0  0  0  0  0  0  0  0  0  0
    4.8080   -8.0362   16.7101 C   0  0  0  0  0  0  0  0  0  0  0  0
   -1.2173   -3.9294   26.9717 O   0  0  0  0  0  0  0  0  0  0  0  0
   -1.0025   -5.0942   27.4586 C   0  0  0  0  0  0  0  0  0  0  0  0
    2.2474   -8.9123   16.6273 C   0  0  0  0  0  0  0  0  0  0  0  0
    4.4957   -9.2636   17.3041 C   0  0  0  0  0  0  0  0  0  0  0  0
   -1.8070   -5.6086   28.1920 O   0  0  0  0  0  0  0  0  0  0  0  0
   10.4296   -5.1799   28.3140 C   0  0  0  0  0  0  0  0  0  0  0  0
    6.6017   -5.9004   26.9187 C   0  0  0  0  0  0  0  0  0  0  0  0
    2.4761   -6.9940   26.4111 N   0  0  0  0  0  0  0  0  0  0  0  0
    9.1353   -5.4053   27.8239 C   0  0  0  0  0  0  0  0  0  0  0  0
    0.9922   -9.3232   16.5995 O   0  0  0  0  0  0  0  0  0  0  0  0
    1.5232   -7.6869   27.1182 C   0  0  0  0  0  0  0  0  0  0  0  0
    8.6878   -6.6715   27.7262 N   0  0  0  0  0  0  0  0  0  0  0  0
    6.9911   -8.2423   27.1808 C   0  0  0  0  0  0  0  0  0  0  0  0
    3.8436   -7.2758   16.0578 C   0  0  0  0  0  0  0  0  0  0  0  0
    3.1882   -9.7190   17.2566 C   0  0  0  0  0  0  0  0  0  0  0  0
    5.3488   -6.1737   26.5092 C   0  0  0  0  0  0  0  0  0  0  0  0
    7.4567   -6.9464   27.2858 C   0  0  0  0  0  0  0  0  0  0  0  0
    0.1921   -5.7592   27.1123 C   0  0  0  0  0  0  0  0  0  0  0  0
    3.5517   -7.7407   25.9711 C   0  0  0  0  0  0  0  0  0  0  0  0
  1  4  4  0
  1 22  4  0
  2 20  4  0
  2 27  4  0
  3 12  4  0
  3 23  4  0
  4 25  4  0
  4 28  1  0
  5  8  4  0
  5 17  4  0
  6  7  4  0
  6 16  4  0
  7 18  4  0
  8 27  4  0
  9 13  4  0
  9 23  4  0
 10 11  1  0
 11 14  2  0
 11 27  1  0
 12 19  1  0
 12 24  4  0
 13 24  4  0
 15 18  1  0
 16 25  4  0
 16 26  4  0
 17 20  4  0
 17 28  1  0
 18 21  4  0
 21 26  4  0
 22 26  4  0
M  END
$$$$

 Created by Python create_sdf_string function

 28 30  0  0  0  0  0  0  0  0999 V2000
    5.7174   -8.4529   26.7190 C   0  0  0  0  0  0  0  0  0  0  0  0
    0.3974   -7.0711   27.5149 C   0  0  0  0  0  0  0  0  0  0  0  0
    2.5338   -7.6891   16.0102 C   0  0  0  0  0  0  0  0  0  0  0  0
    4.8690   -7.4380   26.4151 C   0  0  0  0  0  0  0  0  0  0  0  0
    2.3021   -5.6726   26.0378 C   0  0  0  0  0  0  0  0  0  0  0  0
    7.0880   -4.6163   27.0010 C   0  0  0  0  0  0  0  0  0  0  0  0
    8.3117   -4.3698   27.4436 C   0  0  0  0  0  0  0  0  0  0  0  0
    1.1339   -5.0515   26.3541 C   0  0  0  0  0  0  0  0  0  0  0  0
    4.8080   -8.0362   16.7101 C   0  0  0  0  0  0  0  0  0  0  0  0
   -1.2173   -3.9294   26.9717 O   0  0  0  0  0  0  0  0  0  0  0  0
   -1.0025   -5.0942   27.4586 C   0  0  0  0  0  0  0  0  0  0  0  0
    2.2474   -8.9123   16.6273 C   0  0  0  0  0  0  0  0  0  0  0  0
    4.4957   -9.2636   17.3041 C   0  0  0  0  0  0  0  0  0  0  0  0
   -1.8070   -5.6086   28.1920 O   0  0  0  0  0  0  0  0  0  0  0  0
   10.4296   -5.1799   28.3140 C   0  0  0  0  0  0  0  0  0  0  0  0
    6.6017   -5.9004   26.9187 C   0  0  0  0  0  0  0  0  0  0  0  0
    2.4761   -6.9940   26.4111 N   0  0  0  0  0  0  0  0  0  0  0  0
    9.1353   -5.4053   27.8239 C   0  0  0  0  0  0  0  0  0  0  0  0
    0.9922   -9.3232   16.5995 O   0  0  0  0  0  0  0  0  0  0  0  0
    1.5232   -7.6869   27.1182 C   0  0  0  0  0  0  0  0  0  0  0  0
    8.6878   -6.6715   27.7262 N   0  0  0  0  0  0  0  0  0  0  0  0
    6.9911   -8.2423   27.1808 C   0  0  0  0  0  0  0  0  0  0  0  0
    3.8436   -7.2758   16.0578 C   0  0  0  0  0  0  0  0  0  0  0  0
    3.1882   -9.7190   17.2566 C   0  0  0  0  0  0  0  0  0  0  0  0
    5.3488   -6.1737   26.5092 C   0  0  0  0  0  0  0  0  0  0  0  0
    7.4567   -6.9464   27.2858 C   0  0  0  0  0  0  0  0  0  0  0  0
    0.1921   -5.7592   27.1123 C   0  0  0  0  0  0  0  0  0  0  0  0
    3.5517   -7.7407   25.9711 C   0  0  0  0  0  0  0  0  0  0  0  0
  1  4  4  0
  1 22  4  0
  2 20  4  0
  2 27  4  0
  3 12  4  0
  3 23  4  0
  4 25  4  0
  4 28  1  0
  5  8  4  0
  5 17  4  0
  6  7  4  0
  6 16  4  0
  7 18  4  0
  8 27  4  0
  9 13  4  0
  9 23  4  0
 10 11  1  0
 11 14  2  0
 11 27  1  0
 12 19  1  0
 12 24  4  0
 13 24  4  0
 15 18  1  0
 16 25  4  0
 16 26  4  0
 17 20  4  0
 17 28  1  0
 18 21  4  0
 21 26  4  0
 22 26  4  0
M  END
$$$$

 Created by Python create_sdf_string function

 28 30  0  0  0  0  0  0  0  0999 V2000
    5.7174   -8.4529   26.7190 C   0  0  0  0  0  0  0  0  0  0  0  0
    0.3974   -7.0711   27.5149 C   0  0  0  0  0  0  0  0  0  0  0  0
    2.5338   -7.6891   16.0102 C   0  0  0  0  0  0  0  0  0  0  0  0
    4.8690   -7.4380   26.4151 C   0  0  0  0  0  0  0  0  0  0  0  0
    2.3021   -5.6726   26.0378 C   0  0  0  0  0  0  0  0  0  0  0  0
    7.0880   -4.6163   27.0010 C   0  0  0  0  0  0  0  0  0  0  0  0
    8.3117   -4.3698   27.4436 C   0  0  0  0  0  0  0  0  0  0  0  0
    1.1339   -5.0515   26.3541 C   0  0  0  0  0  0  0  0  0  0  0  0
    4.8080   -8.0362   16.7101 C   0  0  0  0  0  0  0  0  0  0  0  0
   -1.2173   -3.9294   26.9717 O   0  0  0  0  0  0  0  0  0  0  0  0
   -1.0025   -5.0942   27.4586 C   0  0  0  0  0  0  0  0  0  0  0  0
    2.2474   -8.9123   16.6273 C   0  0  0  0  0  0  0  0  0  0  0  0
    4.4957   -9.2636   17.3041 C   0  0  0  0  0  0  0  0  0  0  0  0
   -1.8070   -5.6086   28.1920 O   0  0  0  0  0  0  0  0  0  0  0  0
   10.4296   -5.1799   28.3140 C   0  0  0  0  0  0  0  0  0  0  0  0
    6.6017   -5.9004   26.9187 C   0  0  0  0  0  0  0  0  0  0  0  0
    2.4761   -6.9940   26.4111 N   0  0  0  0  0  0  0  0  0  0  0  0
    9.1353   -5.4053   27.8239 C   0  0  0  0  0  0  0  0  0  0  0  0
    0.9922   -9.3232   16.5995 O   0  0  0  0  0  0  0  0  0  0  0  0
    1.5232   -7.6869   27.1182 C   0  0  0  0  0  0  0  0  0  0  0  0
    8.6878   -6.6715   27.7262 N   0  0  0  0  0  0  0  0  0  0  0  0
    6.9911   -8.2423   27.1808 C   0  0  0  0  0  0  0  0  0  0  0  0
    3.8436   -7.2758   16.0578 C   0  0  0  0  0  0  0  0  0  0  0  0
    3.1882   -9.7190   17.2566 C   0  0  0  0  0  0  0  0  0  0  0  0
    5.3488   -6.1737   26.5092 C   0  0  0  0  0  0  0  0  0  0  0  0
    7.4567   -6.9464   27.2858 C   0  0  0  0  0  0  0  0  0  0  0  0
    0.1921   -5.7592   27.1123 C   0  0  0  0  0  0  0  0  0  0  0  0
    3.5517   -7.7407   25.9711 C   0  0  0  0  0  0  0  0  0  0  0  0
  1  4  4  0
  1 22  4  0
  2 20  4  0
  2 27  4  0
  3 12  4  0
  3 23  4  0
  4 25  4  0
  4 28  1  0
  5  8  4  0
  5 17  4  0
  6  7  4  0
  6 16  4  0
  7 18  4  0
  8 27  4  0
  9 13  4  0
  9 23  4  0
 10 11  1  0
 11 14  2  0
 11 27  1  0
 12 19  1  0
 12 24  4  0
 13 24  4  0
 15 18  1  0
 16 25  4  0
 16 26  4  0
 17 20  4  0
 17 28  1  0
 18 21  4  0
 21 26  4  0
 22 26  4  0
M  END
$$$$

 Created by Python create_sdf_string function

 28 30  0  0  0  0  0  0  0  0999 V2000
    5.7174   -8.4529   26.7190 C   0  0  0  0  0  0  0  0  0  0  0  0
    0.3974   -7.0711   27.5149 C   0  0  0  0  0  0  0  0  0  0  0  0
    2.5338   -7.6891   16.0102 C   0  0  0  0  0  0  0  0  0  0  0  0
    4.8690   -7.4380   26.4151 C   0  0  0  0  0  0  0  0  0  0  0  0
    2.3021   -5.6726   26.0378 C   0  0  0  0  0  0  0  0  0  0  0  0
    7.0880   -4.6163   27.0010 C   0  0  0  0  0  0  0  0  0  0  0  0
    8.3117   -4.3698   27.4436 C   0  0  0  0  0  0  0  0  0  0  0  0
    1.1339   -5.0515   26.3541 C   0  0  0  0  0  0  0  0  0  0  0  0
    4.8080   -8.0362   16.7101 C   0  0  0  0  0  0  0  0  0  0  0  0
   -1.2173   -3.9294   26.9717 O   0  0  0  0  0  0  0  0  0  0  0  0
   -1.0025   -5.0942   27.4586 C   0  0  0  0  0  0  0  0  0  0  0  0
    2.2474   -8.9123   16.6273 C   0  0  0  0  0  0  0  0  0  0  0  0
    4.4957   -9.2636   17.3041 C   0  0  0  0  0  0  0  0  0  0  0  0
   -1.8070   -5.6086   28.1920 O   0  0  0  0  0  0  0  0  0  0  0  0
   10.4296   -5.1799   28.3140 C   0  0  0  0  0  0  0  0  0  0  0  0
    6.6017   -5.9004   26.9187 C   0  0  0  0  0  0  0  0  0  0  0  0
    2.4761   -6.9940   26.4111 N   0  0  0  0  0  0  0  0  0  0  0  0
    9.1353   -5.4053   27.8239 C   0  0  0  0  0  0  0  0  0  0  0  0
    0.9922   -9.3232   16.5995 O   0  0  0  0  0  0  0  0  0  0  0  0
    1.5232   -7.6869   27.1182 C   0  0  0  0  0  0  0  0  0  0  0  0
    8.6878   -6.6715   27.7262 N   0  0  0  0  0  0  0  0  0  0  0  0
    6.9911   -8.2423   27.1808 C   0  0  0  0  0  0  0  0  0  0  0  0
    3.8436   -7.2758   16.0578 C   0  0  0  0  0  0  0  0  0  0  0  0
    3.1882   -9.7190   17.2566 C   0  0  0  0  0  0  0  0  0  0  0  0
    5.3488   -6.1737   26.5092 C   0  0  0  0  0  0  0  0  0  0  0  0
    7.4567   -6.9464   27.2858 C   0  0  0  0  0  0  0  0  0  0  0  0
    0.1921   -5.7592   27.1123 C   0  0  0  0  0  0  0  0  0  0  0  0
    3.5517   -7.7407   25.9711 C   0  0  0  0  0  0  0  0  0  0  0  0
  1  4  4  0
  1 22  4  0
  2 20  4  0
  2 27  4  0
  3 12  4  0
  3 23  4  0
  4 25  4  0
  4 28  1  0
  5  8  4  0
  5 17  4  0
  6  7  4  0
  6 16  4  0
  7 18  4  0
  8 27  4  0
  9 13  4  0
  9 23  4  0
 10 11  1  0
 11 14  2  0
 11 27  1  0
 12 19  1  0
 12 24  4  0
 13 24  4  0
 15 18  1  0
 16 25  4  0
 16 26  4  0
 17 20  4  0
 17 28  1  0
 18 21  4  0
 21 26  4  0
 22 26  4  0
M  END
$$$$

 Created by Python create_sdf_string function

 28 30  0  0  0  0  0  0  0  0999 V2000
    5.7174   -8.4529   26.7190 C   0  0  0  0  0  0  0  0  0  0  0  0
    0.3974   -7.0711   27.5149 C   0  0  0  0  0  0  0  0  0  0  0  0
    2.5338   -7.6891   16.0102 C   0  0  0  0  0  0  0  0  0  0  0  0
    4.8690   -7.4380   26.4151 C   0  0  0  0  0  0  0  0  0  0  0  0
    2.3021   -5.6726   26.0378 C   0  0  0  0  0  0  0  0  0  0  0  0
    7.0880   -4.6163   27.0010 C   0  0  0  0  0  0  0  0  0  0  0  0
    8.3117   -4.3698   27.4436 C   0  0  0  0  0  0  0  0  0  0  0  0
    1.1339   -5.0515   26.3541 C   0  0  0  0  0  0  0  0  0  0  0  0
    4.8080   -8.0362   16.7101 C   0  0  0  0  0  0  0  0  0  0  0  0
   -1.2173   -3.9294   26.9717 O   0  0  0  0  0  0  0  0  0  0  0  0
   -1.0025   -5.0942   27.4586 C   0  0  0  0  0  0  0  0  0  0  0  0
    2.2474   -8.9123   16.6273 C   0  0  0  0  0  0  0  0  0  0  0  0
    4.4957   -9.2636   17.3041 C   0  0  0  0  0  0  0  0  0  0  0  0
   -1.8070   -5.6086   28.1920 O   0  0  0  0  0  0  0  0  0  0  0  0
   10.4296   -5.1799   28.3140 C   0  0  0  0  0  0  0  0  0  0  0  0
    6.6017   -5.9004   26.9187 C   0  0  0  0  0  0  0  0  0  0  0  0
    2.4761   -6.9940   26.4111 N   0  0  0  0  0  0  0  0  0  0  0  0
    9.1353   -5.4053   27.8239 C   0  0  0  0  0  0  0  0  0  0  0  0
    0.9922   -9.3232   16.5995 O   0  0  0  0  0  0  0  0  0  0  0  0
    1.5232   -7.6869   27.1182 C   0  0  0  0  0  0  0  0  0  0  0  0
    8.6878   -6.6715   27.7262 N   0  0  0  0  0  0  0  0  0  0  0  0
    6.9911   -8.2423   27.1808 C   0  0  0  0  0  0  0  0  0  0  0  0
    3.8436   -7.2758   16.0578 C   0  0  0  0  0  0  0  0  0  0  0  0
    3.1882   -9.7190   17.2566 C   0  0  0  0  0  0  0  0  0  0  0  0
    5.3488   -6.1737   26.5092 C   0  0  0  0  0  0  0  0  0  0  0  0
    7.4567   -6.9464   27.2858 C   0  0  0  0  0  0  0  0  0  0  0  0
    0.1921   -5.7592   27.1123 C   0  0  0  0  0  0  0  0  0  0  0  0
    3.5517   -7.7407   25.9711 C   0  0  0  0  0  0  0  0  0  0  0  0
  1  4  4  0
  1 22  4  0
  2 20  4  0
  2 27  4  0
  3 12  4  0
  3 23  4  0
  4 25  4  0
  4 28  1  0
  5  8  4  0
  5 17  4  0
  6  7  4  0
  6 16  4  0
  7 18  4  0
  8 27  4  0
  9 13  4  0
  9 23  4  0
 10 11  1  0
 11 14  2  0
 11 27  1  0
 12 19  1  0
 12 24  4  0
 13 24  4  0
 15 18  1  0
 16 25  4  0
 16 26  4  0
 17 20  4  0
 17 28  1  0
 18 21  4  0
 21 26  4  0
 22 26  4  0
M  END
$$$$

 Created by Python create_sdf_string function

 28 30  0  0  0  0  0  0  0  0999 V2000
    5.7174   -8.4529   26.7190 C   0  0  0  0  0  0  0  0  0  0  0  0
    0.3974   -7.0711   27.5149 C   0  0  0  0  0  0  0  0  0  0  0  0
    2.5338   -7.6891   16.0102 C   0  0  0  0  0  0  0  0  0  0  0  0
    4.8690   -7.4380   26.4151 C   0  0  0  0  0  0  0  0  0  0  0  0
    2.3021   -5.6726   26.0378 C   0  0  0  0  0  0  0  0  0  0  0  0
    7.0880   -4.6163   27.0010 C   0  0  0  0  0  0  0  0  0  0  0  0
    8.3117   -4.3698   27.4436 C   0  0  0  0  0  0  0  0  0  0  0  0
    1.1339   -5.0515   26.3541 C   0  0  0  0  0  0  0  0  0  0  0  0
    4.8080   -8.0362   16.7101 C   0  0  0  0  0  0  0  0  0  0  0  0
   -1.2173   -3.9294   26.9717 O   0  0  0  0  0  0  0  0  0  0  0  0
   -1.0025   -5.0942   27.4586 C   0  0  0  0  0  0  0  0  0  0  0  0
    2.2474   -8.9123   16.6273 C   0  0  0  0  0  0  0  0  0  0  0  0
    4.4957   -9.2636   17.3041 C   0  0  0  0  0  0  0  0  0  0  0  0
   -1.8070   -5.6086   28.1920 O   0  0  0  0  0  0  0  0  0  0  0  0
   10.4296   -5.1799   28.3140 C   0  0  0  0  0  0  0  0  0  0  0  0
    6.6017   -5.9004   26.9187 C   0  0  0  0  0  0  0  0  0  0  0  0
    2.4761   -6.9940   26.4111 N   0  0  0  0  0  0  0  0  0  0  0  0
    9.1353   -5.4053   27.8239 C   0  0  0  0  0  0  0  0  0  0  0  0
    0.9922   -9.3232   16.5995 O   0  0  0  0  0  0  0  0  0  0  0  0
    1.5232   -7.6869   27.1182 C   0  0  0  0  0  0  0  0  0  0  0  0
    8.6878   -6.6715   27.7262 N   0  0  0  0  0  0  0  0  0  0  0  0
    6.9911   -8.2423   27.1808 C   0  0  0  0  0  0  0  0  0  0  0  0
    3.8436   -7.2758   16.0578 C   0  0  0  0  0  0  0  0  0  0  0  0
    3.1882   -9.7190   17.2566 C   0  0  0  0  0  0  0  0  0  0  0  0
    5.3488   -6.1737   26.5092 C   0  0  0  0  0  0  0  0  0  0  0  0
    7.4567   -6.9464   27.2858 C   0  0  0  0  0  0  0  0  0  0  0  0
    0.1921   -5.7592   27.1123 C   0  0  0  0  0  0  0  0  0  0  0  0
    3.5517   -7.7407   25.9711 C   0  0  0  0  0  0  0  0  0  0  0  0
  1  4  4  0
  1 22  4  0
  2 20  4  0
  2 27  4  0
  3 12  4  0
  3 23  4  0
  4 25  4  0
  4 28  1  0
  5  8  4  0
  5 17  4  0
  6  7  4  0
  6 16  4  0
  7 18  4  0
  8 27  4  0
  9 13  4  0
  9 23  4  0
 10 11  1  0
 11 14  2  0
 11 27  1  0
 12 19  1  0
 12 24  4  0
 13 24  4  0
 15 18  1  0
 16 25  4  0
 16 26  4  0
 17 20  4  0
 17 28  1  0
 18 21  4  0
 21 26  4  0
 22 26  4  0
M  END
$$$$

 Created by Python create_sdf_string function

 28 30  0  0  0  0  0  0  0  0999 V2000
    5.7174   -8.4529   26.7190 C   0  0  0  0  0  0  0  0  0  0  0  0
    0.3974   -7.0711   27.5149 C   0  0  0  0  0  0  0  0  0  0  0  0
    2.5338   -7.6891   16.0102 C   0  0  0  0  0  0  0  0  0  0  0  0
    4.8690   -7.4380   26.4151 C   0  0  0  0  0  0  0  0  0  0  0  0
    2.3021   -5.6726   26.0378 C   0  0  0  0  0  0  0  0  0  0  0  0
    7.0880   -4.6163   27.0010 C   0  0  0  0  0  0  0  0  0  0  0  0
    8.3117   -4.3698   27.4436 C   0  0  0  0  0  0  0  0  0  0  0  0
    1.1339   -5.0515   26.3541 C   0  0  0  0  0  0  0  0  0  0  0  0
    4.8080   -8.0362   16.7101 C   0  0  0  0  0  0  0  0  0  0  0  0
   -1.2173   -3.9294   26.9717 O   0  0  0  0  0  0  0  0  0  0  0  0
   -1.0025   -5.0942   27.4586 C   0  0  0  0  0  0  0  0  0  0  0  0
    2.2474   -8.9123   16.6273 C   0  0  0  0  0  0  0  0  0  0  0  0
    4.4957   -9.2636   17.3041 C   0  0  0  0  0  0  0  0  0  0  0  0
   -1.8070   -5.6086   28.1920 O   0  0  0  0  0  0  0  0  0  0  0  0
   10.4296   -5.1799   28.3140 C   0  0  0  0  0  0  0  0  0  0  0  0
    6.6017   -5.9004   26.9187 C   0  0  0  0  0  0  0  0  0  0  0  0
    2.4761   -6.9940   26.4111 N   0  0  0  0  0  0  0  0  0  0  0  0
    9.1353   -5.4053   27.8239 C   0  0  0  0  0  0  0  0  0  0  0  0
    0.9922   -9.3232   16.5995 O   0  0  0  0  0  0  0  0  0  0  0  0
    1.5232   -7.6869   27.1182 C   0  0  0  0  0  0  0  0  0  0  0  0
    8.6878   -6.6715   27.7262 N   0  0  0  0  0  0  0  0  0  0  0  0
    6.9911   -8.2423   27.1808 C   0  0  0  0  0  0  0  0  0  0  0  0
    3.8436   -7.2758   16.0578 C   0  0  0  0  0  0  0  0  0  0  0  0
    3.1882   -9.7190   17.2566 C   0  0  0  0  0  0  0  0  0  0  0  0
    5.3488   -6.1737   26.5092 C   0  0  0  0  0  0  0  0  0  0  0  0
    7.4567   -6.9464   27.2858 C   0  0  0  0  0  0  0  0  0  0  0  0
    0.1921   -5.7592   27.1123 C   0  0  0  0  0  0  0  0  0  0  0  0
    3.5517   -7.7407   25.9711 C   0  0  0  0  0  0  0  0  0  0  0  0
  1  4  4  0
  1 22  4  0
  2 20  4  0
  2 27  4  0
  3 12  4  0
  3 23  4  0
  4 25  4  0
  4 28  1  0
  5  8  4  0
  5 17  4  0
  6  7  4  0
  6 16  4  0
  7 18  4  0
  8 27  4  0
  9 13  4  0
  9 23  4  0
 10 11  1  0
 11 14  2  0
 11 27  1  0
 12 19  1  0
 12 24  4  0
 13 24  4  0
 15 18  1  0
 16 25  4  0
 16 26  4  0
 17 20  4  0
 17 28  1  0
 18 21  4  0
 21 26  4  0
 22 26  4  0
M  END
$$$$

 Created by Python create_sdf_string function

 28 30  0  0  0  0  0  0  0  0999 V2000
    5.7174   -8.4529   26.7190 C   0  0  0  0  0  0  0  0  0  0  0  0
    0.3974   -7.0711   27.5149 C   0  0  0  0  0  0  0  0  0  0  0  0
    2.5338   -7.6891   16.0102 C   0  0  0  0  0  0  0  0  0  0  0  0
    4.8690   -7.4380   26.4151 C   0  0  0  0  0  0  0  0  0  0  0  0
    2.3021   -5.6726   26.0378 C   0  0  0  0  0  0  0  0  0  0  0  0
    7.0880   -4.6163   27.0010 C   0  0  0  0  0  0  0  0  0  0  0  0
    8.3117   -4.3698   27.4436 C   0  0  0  0  0  0  0  0  0  0  0  0
    1.1339   -5.0515   26.3541 C   0  0  0  0  0  0  0  0  0  0  0  0
    4.8080   -8.0362   16.7101 C   0  0  0  0  0  0  0  0  0  0  0  0
   -1.2173   -3.9294   26.9717 O   0  0  0  0  0  0  0  0  0  0  0  0
   -1.0025   -5.0942   27.4586 C   0  0  0  0  0  0  0  0  0  0  0  0
    2.2474   -8.9123   16.6273 C   0  0  0  0  0  0  0  0  0  0  0  0
    4.4957   -9.2636   17.3041 C   0  0  0  0  0  0  0  0  0  0  0  0
   -1.8070   -5.6086   28.1920 O   0  0  0  0  0  0  0  0  0  0  0  0
   10.4296   -5.1799   28.3140 C   0  0  0  0  0  0  0  0  0  0  0  0
    6.6017   -5.9004   26.9187 C   0  0  0  0  0  0  0  0  0  0  0  0
    2.4761   -6.9940   26.4111 N   0  0  0  0  0  0  0  0  0  0  0  0
    9.1353   -5.4053   27.8239 C   0  0  0  0  0  0  0  0  0  0  0  0
    0.9922   -9.3232   16.5995 O   0  0  0  0  0  0  0  0  0  0  0  0
    1.5232   -7.6869   27.1182 C   0  0  0  0  0  0  0  0  0  0  0  0
    8.6878   -6.6715   27.7262 N   0  0  0  0  0  0  0  0  0  0  0  0
    6.9911   -8.2423   27.1808 C   0  0  0  0  0  0  0  0  0  0  0  0
    3.8436   -7.2758   16.0578 C   0  0  0  0  0  0  0  0  0  0  0  0
    3.1882   -9.7190   17.2566 C   0  0  0  0  0  0  0  0  0  0  0  0
    5.3488   -6.1737   26.5092 C   0  0  0  0  0  0  0  0  0  0  0  0
    7.4567   -6.9464   27.2858 C   0  0  0  0  0  0  0  0  0  0  0  0
    0.1921   -5.7592   27.1123 C   0  0  0  0  0  0  0  0  0  0  0  0
    3.5517   -7.7407   25.9711 C   0  0  0  0  0  0  0  0  0  0  0  0
  1  4  4  0
  1 22  4  0
  2 20  4  0
  2 27  4  0
  3 12  4  0
  3 23  4  0
  4 25  4  0
  4 28  1  0
  5  8  4  0
  5 17  4  0
  6  7  4  0
  6 16  4  0
  7 18  4  0
  8 27  4  0
  9 13  4  0
  9 23  4  0
 10 11  1  0
 11 14  2  0
 11 27  1  0
 12 19  1  0
 12 24  4  0
 13 24  4  0
 15 18  1  0
 16 25  4  0
 16 26  4  0
 17 20  4  0
 17 28  1  0
 18 21  4  0
 21 26  4  0
 22 26  4  0
M  END
$$$$

 Created by Python create_sdf_string function

 28 30  0  0  0  0  0  0  0  0999 V2000
    5.7174   -8.4529   26.7190 C   0  0  0  0  0  0  0  0  0  0  0  0
    0.3974   -7.0711   27.5149 C   0  0  0  0  0  0  0  0  0  0  0  0
    2.5338   -7.6891   16.0102 C   0  0  0  0  0  0  0  0  0  0  0  0
    4.8690   -7.4380   26.4151 C   0  0  0  0  0  0  0  0  0  0  0  0
    2.3021   -5.6726   26.0378 C   0  0  0  0  0  0  0  0  0  0  0  0
    7.0880   -4.6163   27.0010 C   0  0  0  0  0  0  0  0  0  0  0  0
    8.3117   -4.3698   27.4436 C   0  0  0  0  0  0  0  0  0  0  0  0
    1.1339   -5.0515   26.3541 C   0  0  0  0  0  0  0  0  0  0  0  0
    4.8080   -8.0362   16.7101 C   0  0  0  0  0  0  0  0  0  0  0  0
   -1.2173   -3.9294   26.9717 O   0  0  0  0  0  0  0  0  0  0  0  0
   -1.0025   -5.0942   27.4586 C   0  0  0  0  0  0  0  0  0  0  0  0
    2.2474   -8.9123   16.6273 C   0  0  0  0  0  0  0  0  0  0  0  0
    4.4957   -9.2636   17.3041 C   0  0  0  0  0  0  0  0  0  0  0  0
   -1.8070   -5.6086   28.1920 O   0  0  0  0  0  0  0  0  0  0  0  0
   10.4296   -5.1799   28.3140 C   0  0  0  0  0  0  0  0  0  0  0  0
    6.6017   -5.9004   26.9187 C   0  0  0  0  0  0  0  0  0  0  0  0
    2.4761   -6.9940   26.4111 N   0  0  0  0  0  0  0  0  0  0  0  0
    9.1353   -5.4053   27.8239 C   0  0  0  0  0  0  0  0  0  0  0  0
    0.9922   -9.3232   16.5995 O   0  0  0  0  0  0  0  0  0  0  0  0
    1.5232   -7.6869   27.1182 C   0  0  0  0  0  0  0  0  0  0  0  0
    8.6878   -6.6715   27.7262 N   0  0  0  0  0  0  0  0  0  0  0  0
    6.9911   -8.2423   27.1808 C   0  0  0  0  0  0  0  0  0  0  0  0
    3.8436   -7.2758   16.0578 C   0  0  0  0  0  0  0  0  0  0  0  0
    3.1882   -9.7190   17.2566 C   0  0  0  0  0  0  0  0  0  0  0  0
    5.3488   -6.1737   26.5092 C   0  0  0  0  0  0  0  0  0  0  0  0
    7.4567   -6.9464   27.2858 C   0  0  0  0  0  0  0  0  0  0  0  0
    0.1921   -5.7592   27.1123 C   0  0  0  0  0  0  0  0  0  0  0  0
    3.5517   -7.7407   25.9711 C   0  0  0  0  0  0  0  0  0  0  0  0
  1  4  4  0
  1 22  4  0
  2 20  4  0
  2 27  4  0
  3 12  4  0
  3 23  4  0
  4 25  4  0
  4 28  1  0
  5  8  4  0
  5 17  4  0
  6  7  4  0
  6 16  4  0
  7 18  4  0
  8 27  4  0
  9 13  4  0
  9 23  4  0
 10 11  1  0
 11 14  2  0
 11 27  1  0
 12 19  1  0
 12 24  4  0
 13 24  4  0
 15 18  1  0
 16 25  4  0
 16 26  4  0
 17 20  4  0
 17 28  1  0
 18 21  4  0
 21 26  4  0
 22 26  4  0
M  END
$$$$

 Created by Python create_sdf_string function

 28 30  0  0  0  0  0  0  0  0999 V2000
    5.7174   -8.4529   26.7190 C   0  0  0  0  0  0  0  0  0  0  0  0
    0.3974   -7.0711   27.5149 C   0  0  0  0  0  0  0  0  0  0  0  0
    2.5338   -7.6891   16.0102 C   0  0  0  0  0  0  0  0  0  0  0  0
    4.8690   -7.4380   26.4151 C   0  0  0  0  0  0  0  0  0  0  0  0
    2.3021   -5.6726   26.0378 C   0  0  0  0  0  0  0  0  0  0  0  0
    7.0880   -4.6163   27.0010 C   0  0  0  0  0  0  0  0  0  0  0  0
    8.3117   -4.3698   27.4436 C   0  0  0  0  0  0  0  0  0  0  0  0
    1.1339   -5.0515   26.3541 C   0  0  0  0  0  0  0  0  0  0  0  0
    4.8080   -8.0362   16.7101 C   0  0  0  0  0  0  0  0  0  0  0  0
   -1.2173   -3.9294   26.9717 O   0  0  0  0  0  0  0  0  0  0  0  0
   -1.0025   -5.0942   27.4586 C   0  0  0  0  0  0  0  0  0  0  0  0
    2.2474   -8.9123   16.6273 C   0  0  0  0  0  0  0  0  0  0  0  0
    4.4957   -9.2636   17.3041 C   0  0  0  0  0  0  0  0  0  0  0  0
   -1.8070   -5.6086   28.1920 O   0  0  0  0  0  0  0  0  0  0  0  0
   10.4296   -5.1799   28.3140 C   0  0  0  0  0  0  0  0  0  0  0  0
    6.6017   -5.9004   26.9187 C   0  0  0  0  0  0  0  0  0  0  0  0
    2.4761   -6.9940   26.4111 N   0  0  0  0  0  0  0  0  0  0  0  0
    9.1353   -5.4053   27.8239 C   0  0  0  0  0  0  0  0  0  0  0  0
    0.9922   -9.3232   16.5995 O   0  0  0  0  0  0  0  0  0  0  0  0
    1.5232   -7.6869   27.1182 C   0  0  0  0  0  0  0  0  0  0  0  0
    8.6878   -6.6715   27.7262 N   0  0  0  0  0  0  0  0  0  0  0  0
    6.9911   -8.2423   27.1808 C   0  0  0  0  0  0  0  0  0  0  0  0
    3.8436   -7.2758   16.0578 C   0  0  0  0  0  0  0  0  0  0  0  0
    3.1882   -9.7190   17.2566 C   0  0  0  0  0  0  0  0  0  0  0  0
    5.3488   -6.1737   26.5092 C   0  0  0  0  0  0  0  0  0  0  0  0
    7.4567   -6.9464   27.2858 C   0  0  0  0  0  0  0  0  0  0  0  0
    0.1921   -5.7592   27.1123 C   0  0  0  0  0  0  0  0  0  0  0  0
    3.5517   -7.7407   25.9711 C   0  0  0  0  0  0  0  0  0  0  0  0
  1  4  4  0
  1 22  4  0
  2 20  4  0
  2 27  4  0
  3 12  4  0
  3 23  4  0
  4 25  4  0
  4 28  1  0
  5  8  4  0
  5 17  4  0
  6  7  4  0
  6 16  4  0
  7 18  4  0
  8 27  4  0
  9 13  4  0
  9 23  4  0
 10 11  1  0
 11 14  2  0
 11 27  1  0
 12 19  1  0
 12 24  4  0
 13 24  4  0
 15 18  1  0
 16 25  4  0
 16 26  4  0
 17 20  4  0
 17 28  1  0
 18 21  4  0
 21 26  4  0
 22 26  4  0
M  END
$$$$

 Created by Python create_sdf_string function

 28 30  0  0  0  0  0  0  0  0999 V2000
    5.7174   -8.4529   26.7190 C   0  0  0  0  0  0  0  0  0  0  0  0
    0.3974   -7.0711   27.5149 C   0  0  0  0  0  0  0  0  0  0  0  0
    2.5338   -7.6891   16.0102 C   0  0  0  0  0  0  0  0  0  0  0  0
    4.8690   -7.4380   26.4151 C   0  0  0  0  0  0  0  0  0  0  0  0
    2.3021   -5.6726   26.0378 C   0  0  0  0  0  0  0  0  0  0  0  0
    7.0880   -4.6163   27.0010 C   0  0  0  0  0  0  0  0  0  0  0  0
    8.3117   -4.3698   27.4436 C   0  0  0  0  0  0  0  0  0  0  0  0
    1.1339   -5.0515   26.3541 C   0  0  0  0  0  0  0  0  0  0  0  0
    4.8080   -8.0362   16.7101 C   0  0  0  0  0  0  0  0  0  0  0  0
   -1.2173   -3.9294   26.9717 O   0  0  0  0  0  0  0  0  0  0  0  0
   -1.0025   -5.0942   27.4586 C   0  0  0  0  0  0  0  0  0  0  0  0
    2.2474   -8.9123   16.6273 C   0  0  0  0  0  0  0  0  0  0  0  0
    4.4957   -9.2636   17.3041 C   0  0  0  0  0  0  0  0  0  0  0  0
   -1.8070   -5.6086   28.1920 O   0  0  0  0  0  0  0  0  0  0  0  0
   10.4296   -5.1799   28.3140 C   0  0  0  0  0  0  0  0  0  0  0  0
    6.6017   -5.9004   26.9187 C   0  0  0  0  0  0  0  0  0  0  0  0
    2.4761   -6.9940   26.4111 N   0  0  0  0  0  0  0  0  0  0  0  0
    9.1353   -5.4053   27.8239 C   0  0  0  0  0  0  0  0  0  0  0  0
    0.9922   -9.3232   16.5995 O   0  0  0  0  0  0  0  0  0  0  0  0
    1.5232   -7.6869   27.1182 C   0  0  0  0  0  0  0  0  0  0  0  0
    8.6878   -6.6715   27.7262 N   0  0  0  0  0  0  0  0  0  0  0  0
    6.9911   -8.2423   27.1808 C   0  0  0  0  0  0  0  0  0  0  0  0
    3.8436   -7.2758   16.0578 C   0  0  0  0  0  0  0  0  0  0  0  0
    3.1882   -9.7190   17.2566 C   0  0  0  0  0  0  0  0  0  0  0  0
    5.3488   -6.1737   26.5092 C   0  0  0  0  0  0  0  0  0  0  0  0
    7.4567   -6.9464   27.2858 C   0  0  0  0  0  0  0  0  0  0  0  0
    0.1921   -5.7592   27.1123 C   0  0  0  0  0  0  0  0  0  0  0  0
    3.5517   -7.7407   25.9711 C   0  0  0  0  0  0  0  0  0  0  0  0
  1  4  4  0
  1 22  4  0
  2 20  4  0
  2 27  4  0
  3 12  4  0
  3 23  4  0
  4 25  4  0
  4 28  1  0
  5  8  4  0
  5 17  4  0
  6  7  4  0
  6 16  4  0
  7 18  4  0
  8 27  4  0
  9 13  4  0
  9 23  4  0
 10 11  1  0
 11 14  2  0
 11 27  1  0
 12 19  1  0
 12 24  4  0
 13 24  4  0
 15 18  1  0
 16 25  4  0
 16 26  4  0
 17 20  4  0
 17 28  1  0
 18 21  4  0
 21 26  4  0
 22 26  4  0
M  END
$$$$

 Created by Python create_sdf_string function

 28 30  0  0  0  0  0  0  0  0999 V2000
    5.7174   -8.4529   26.7190 C   0  0  0  0  0  0  0  0  0  0  0  0
    0.3974   -7.0711   27.5149 C   0  0  0  0  0  0  0  0  0  0  0  0
    2.5338   -7.6891   16.0102 C   0  0  0  0  0  0  0  0  0  0  0  0
    4.8690   -7.4380   26.4151 C   0  0  0  0  0  0  0  0  0  0  0  0
    2.3021   -5.6726   26.0378 C   0  0  0  0  0  0  0  0  0  0  0  0
    7.0880   -4.6163   27.0010 C   0  0  0  0  0  0  0  0  0  0  0  0
    8.3117   -4.3698   27.4436 C   0  0  0  0  0  0  0  0  0  0  0  0
    1.1339   -5.0515   26.3541 C   0  0  0  0  0  0  0  0  0  0  0  0
    4.8080   -8.0362   16.7101 C   0  0  0  0  0  0  0  0  0  0  0  0
   -1.2173   -3.9294   26.9717 O   0  0  0  0  0  0  0  0  0  0  0  0
   -1.0025   -5.0942   27.4586 C   0  0  0  0  0  0  0  0  0  0  0  0
    2.2474   -8.9123   16.6273 C   0  0  0  0  0  0  0  0  0  0  0  0
    4.4957   -9.2636   17.3041 C   0  0  0  0  0  0  0  0  0  0  0  0
   -1.8070   -5.6086   28.1920 O   0  0  0  0  0  0  0  0  0  0  0  0
   10.4296   -5.1799   28.3140 C   0  0  0  0  0  0  0  0  0  0  0  0
    6.6017   -5.9004   26.9187 C   0  0  0  0  0  0  0  0  0  0  0  0
    2.4761   -6.9940   26.4111 N   0  0  0  0  0  0  0  0  0  0  0  0
    9.1353   -5.4053   27.8239 C   0  0  0  0  0  0  0  0  0  0  0  0
    0.9922   -9.3232   16.5995 O   0  0  0  0  0  0  0  0  0  0  0  0
    1.5232   -7.6869   27.1182 C   0  0  0  0  0  0  0  0  0  0  0  0
    8.6878   -6.6715   27.7262 N   0  0  0  0  0  0  0  0  0  0  0  0
    6.9911   -8.2423   27.1808 C   0  0  0  0  0  0  0  0  0  0  0  0
    3.8436   -7.2758   16.0578 C   0  0  0  0  0  0  0  0  0  0  0  0
    3.1882   -9.7190   17.2566 C   0  0  0  0  0  0  0  0  0  0  0  0
    5.3488   -6.1737   26.5092 C   0  0  0  0  0  0  0  0  0  0  0  0
    7.4567   -6.9464   27.2858 C   0  0  0  0  0  0  0  0  0  0  0  0
    0.1921   -5.7592   27.1123 C   0  0  0  0  0  0  0  0  0  0  0  0
    3.5517   -7.7407   25.9711 C   0  0  0  0  0  0  0  0  0  0  0  0
  1  4  4  0
  1 22  4  0
  2 20  4  0
  2 27  4  0
  3 12  4  0
  3 23  4  0
  4 25  4  0
  4 28  1  0
  5  8  4  0
  5 17  4  0
  6  7  4  0
  6 16  4  0
  7 18  4  0
  8 27  4  0
  9 13  4  0
  9 23  4  0
 10 11  1  0
 11 14  2  0
 11 27  1  0
 12 19  1  0
 12 24  4  0
 13 24  4  0
 15 18  1  0
 16 25  4  0
 16 26  4  0
 17 20  4  0
 17 28  1  0
 18 21  4  0
 21 26  4  0
 22 26  4  0
M  END
$$$$

 Created by Python create_sdf_string function

 28 30  0  0  0  0  0  0  0  0999 V2000
    5.7174   -8.4529   26.7190 C   0  0  0  0  0  0  0  0  0  0  0  0
    0.3974   -7.0711   27.5149 C   0  0  0  0  0  0  0  0  0  0  0  0
    2.5338   -7.6891   16.0102 C   0  0  0  0  0  0  0  0  0  0  0  0
    4.8690   -7.4380   26.4151 C   0  0  0  0  0  0  0  0  0  0  0  0
    2.3021   -5.6726   26.0378 C   0  0  0  0  0  0  0  0  0  0  0  0
    7.0880   -4.6163   27.0010 C   0  0  0  0  0  0  0  0  0  0  0  0
    8.3117   -4.3698   27.4436 C   0  0  0  0  0  0  0  0  0  0  0  0
    1.1339   -5.0515   26.3541 C   0  0  0  0  0  0  0  0  0  0  0  0
    4.8080   -8.0362   16.7101 C   0  0  0  0  0  0  0  0  0  0  0  0
   -1.2173   -3.9294   26.9717 O   0  0  0  0  0  0  0  0  0  0  0  0
   -1.0025   -5.0942   27.4586 C   0  0  0  0  0  0  0  0  0  0  0  0
    2.2474   -8.9123   16.6273 C   0  0  0  0  0  0  0  0  0  0  0  0
    4.4957   -9.2636   17.3041 C   0  0  0  0  0  0  0  0  0  0  0  0
   -1.8070   -5.6086   28.1920 O   0  0  0  0  0  0  0  0  0  0  0  0
   10.4296   -5.1799   28.3140 C   0  0  0  0  0  0  0  0  0  0  0  0
    6.6017   -5.9004   26.9187 C   0  0  0  0  0  0  0  0  0  0  0  0
    2.4761   -6.9940   26.4111 N   0  0  0  0  0  0  0  0  0  0  0  0
    9.1353   -5.4053   27.8239 C   0  0  0  0  0  0  0  0  0  0  0  0
    0.9922   -9.3232   16.5995 O   0  0  0  0  0  0  0  0  0  0  0  0
    1.5232   -7.6869   27.1182 C   0  0  0  0  0  0  0  0  0  0  0  0
    8.6878   -6.6715   27.7262 N   0  0  0  0  0  0  0  0  0  0  0  0
    6.9911   -8.2423   27.1808 C   0  0  0  0  0  0  0  0  0  0  0  0
    3.8436   -7.2758   16.0578 C   0  0  0  0  0  0  0  0  0  0  0  0
    3.1882   -9.7190   17.2566 C   0  0  0  0  0  0  0  0  0  0  0  0
    5.3488   -6.1737   26.5092 C   0  0  0  0  0  0  0  0  0  0  0  0
    7.4567   -6.9464   27.2858 C   0  0  0  0  0  0  0  0  0  0  0  0
    0.1921   -5.7592   27.1123 C   0  0  0  0  0  0  0  0  0  0  0  0
    3.5517   -7.7407   25.9711 C   0  0  0  0  0  0  0  0  0  0  0  0
  1  4  4  0
  1 22  4  0
  2 20  4  0
  2 27  4  0
  3 12  4  0
  3 23  4  0
  4 25  4  0
  4 28  1  0
  5  8  4  0
  5 17  4  0
  6  7  4  0
  6 16  4  0
  7 18  4  0
  8 27  4  0
  9 13  4  0
  9 23  4  0
 10 11  1  0
 11 14  2  0
 11 27  1  0
 12 19  1  0
 12 24  4  0
 13 24  4  0
 15 18  1  0
 16 25  4  0
 16 26  4  0
 17 20  4  0
 17 28  1  0
 18 21  4  0
 21 26  4  0
 22 26  4  0
M  END
$$$$

 Created by Python create_sdf_string function

 28 30  0  0  0  0  0  0  0  0999 V2000
    5.7174   -8.4529   26.7190 C   0  0  0  0  0  0  0  0  0  0  0  0
    0.3974   -7.0711   27.5149 C   0  0  0  0  0  0  0  0  0  0  0  0
    2.5338   -7.6891   16.0102 C   0  0  0  0  0  0  0  0  0  0  0  0
    4.8690   -7.4380   26.4151 C   0  0  0  0  0  0  0  0  0  0  0  0
    2.3021   -5.6726   26.0378 C   0  0  0  0  0  0  0  0  0  0  0  0
    7.0880   -4.6163   27.0010 C   0  0  0  0  0  0  0  0  0  0  0  0
    8.3117   -4.3698   27.4436 C   0  0  0  0  0  0  0  0  0  0  0  0
    1.1339   -5.0515   26.3541 C   0  0  0  0  0  0  0  0  0  0  0  0
    4.8080   -8.0362   16.7101 C   0  0  0  0  0  0  0  0  0  0  0  0
   -1.2173   -3.9294   26.9717 O   0  0  0  0  0  0  0  0  0  0  0  0
   -1.0025   -5.0942   27.4586 C   0  0  0  0  0  0  0  0  0  0  0  0
    2.2474   -8.9123   16.6273 C   0  0  0  0  0  0  0  0  0  0  0  0
    4.4957   -9.2636   17.3041 C   0  0  0  0  0  0  0  0  0  0  0  0
   -1.8070   -5.6086   28.1920 O   0  0  0  0  0  0  0  0  0  0  0  0
   10.4296   -5.1799   28.3140 C   0  0  0  0  0  0  0  0  0  0  0  0
    6.6017   -5.9004   26.9187 C   0  0  0  0  0  0  0  0  0  0  0  0
    2.4761   -6.9940   26.4111 N   0  0  0  0  0  0  0  0  0  0  0  0
    9.1353   -5.4053   27.8239 C   0  0  0  0  0  0  0  0  0  0  0  0
    0.9922   -9.3232   16.5995 O   0  0  0  0  0  0  0  0  0  0  0  0
    1.5232   -7.6869   27.1182 C   0  0  0  0  0  0  0  0  0  0  0  0
    8.6878   -6.6715   27.7262 N   0  0  0  0  0  0  0  0  0  0  0  0
    6.9911   -8.2423   27.1808 C   0  0  0  0  0  0  0  0  0  0  0  0
    3.8436   -7.2758   16.0578 C   0  0  0  0  0  0  0  0  0  0  0  0
    3.1882   -9.7190   17.2566 C   0  0  0  0  0  0  0  0  0  0  0  0
    5.3488   -6.1737   26.5092 C   0  0  0  0  0  0  0  0  0  0  0  0
    7.4567   -6.9464   27.2858 C   0  0  0  0  0  0  0  0  0  0  0  0
    0.1921   -5.7592   27.1123 C   0  0  0  0  0  0  0  0  0  0  0  0
    3.5517   -7.7407   25.9711 C   0  0  0  0  0  0  0  0  0  0  0  0
  1  4  4  0
  1 22  4  0
  2 20  4  0
  2 27  4  0
  3 12  4  0
  3 23  4  0
  4 25  4  0
  4 28  1  0
  5  8  4  0
  5 17  4  0
  6  7  4  0
  6 16  4  0
  7 18  4  0
  8 27  4  0
  9 13  4  0
  9 23  4  0
 10 11  1  0
 11 14  2  0
 11 27  1  0
 12 19  1  0
 12 24  4  0
 13 24  4  0
 15 18  1  0
 16 25  4  0
 16 26  4  0
 17 20  4  0
 17 28  1  0
 18 21  4  0
 21 26  4  0
 22 26  4  0
M  END
$$$$

 Created by Python create_sdf_string function

 28 30  0  0  0  0  0  0  0  0999 V2000
    5.7174   -8.4529   26.7190 C   0  0  0  0  0  0  0  0  0  0  0  0
    0.3974   -7.0711   27.5149 C   0  0  0  0  0  0  0  0  0  0  0  0
    2.5338   -7.6891   16.0102 C   0  0  0  0  0  0  0  0  0  0  0  0
    4.8690   -7.4380   26.4151 C   0  0  0  0  0  0  0  0  0  0  0  0
    2.3021   -5.6726   26.0378 C   0  0  0  0  0  0  0  0  0  0  0  0
    7.0880   -4.6163   27.0010 C   0  0  0  0  0  0  0  0  0  0  0  0
    8.3117   -4.3698   27.4436 C   0  0  0  0  0  0  0  0  0  0  0  0
    1.1339   -5.0515   26.3541 C   0  0  0  0  0  0  0  0  0  0  0  0
    4.8080   -8.0362   16.7101 C   0  0  0  0  0  0  0  0  0  0  0  0
   -1.2173   -3.9294   26.9717 O   0  0  0  0  0  0  0  0  0  0  0  0
   -1.0025   -5.0942   27.4586 C   0  0  0  0  0  0  0  0  0  0  0  0
    2.2474   -8.9123   16.6273 C   0  0  0  0  0  0  0  0  0  0  0  0
    4.4957   -9.2636   17.3041 C   0  0  0  0  0  0  0  0  0  0  0  0
   -1.8070   -5.6086   28.1920 O   0  0  0  0  0  0  0  0  0  0  0  0
   10.4296   -5.1799   28.3140 C   0  0  0  0  0  0  0  0  0  0  0  0
    6.6017   -5.9004   26.9187 C   0  0  0  0  0  0  0  0  0  0  0  0
    2.4761   -6.9940   26.4111 N   0  0  0  0  0  0  0  0  0  0  0  0
    9.1353   -5.4053   27.8239 C   0  0  0  0  0  0  0  0  0  0  0  0
    0.9922   -9.3232   16.5995 O   0  0  0  0  0  0  0  0  0  0  0  0
    1.5232   -7.6869   27.1182 C   0  0  0  0  0  0  0  0  0  0  0  0
    8.6878   -6.6715   27.7262 N   0  0  0  0  0  0  0  0  0  0  0  0
    6.9911   -8.2423   27.1808 C   0  0  0  0  0  0  0  0  0  0  0  0
    3.8436   -7.2758   16.0578 C   0  0  0  0  0  0  0  0  0  0  0  0
    3.1882   -9.7190   17.2566 C   0  0  0  0  0  0  0  0  0  0  0  0
    5.3488   -6.1737   26.5092 C   0  0  0  0  0  0  0  0  0  0  0  0
    7.4567   -6.9464   27.2858 C   0  0  0  0  0  0  0  0  0  0  0  0
    0.1921   -5.7592   27.1123 C   0  0  0  0  0  0  0  0  0  0  0  0
    3.5517   -7.7407   25.9711 C   0  0  0  0  0  0  0  0  0  0  0  0
  1  4  4  0
  1 22  4  0
  2 20  4  0
  2 27  4  0
  3 12  4  0
  3 23  4  0
  4 25  4  0
  4 28  1  0
  5  8  4  0
  5 17  4  0
  6  7  4  0
  6 16  4  0
  7 18  4  0
  8 27  4  0
  9 13  4  0
  9 23  4  0
 10 11  1  0
 11 14  2  0
 11 27  1  0
 12 19  1  0
 12 24  4  0
 13 24  4  0
 15 18  1  0
 16 25  4  0
 16 26  4  0
 17 20  4  0
 17 28  1  0
 18 21  4  0
 21 26  4  0
 22 26  4  0
M  END
$$$$

 Created by Python create_sdf_string function

 28 30  0  0  0  0  0  0  0  0999 V2000
    5.7174   -8.4529   26.7190 C   0  0  0  0  0  0  0  0  0  0  0  0
    0.3974   -7.0711   27.5149 C   0  0  0  0  0  0  0  0  0  0  0  0
    2.5338   -7.6891   16.0102 C   0  0  0  0  0  0  0  0  0  0  0  0
    4.8690   -7.4380   26.4151 C   0  0  0  0  0  0  0  0  0  0  0  0
    2.3021   -5.6726   26.0378 C   0  0  0  0  0  0  0  0  0  0  0  0
    7.0880   -4.6163   27.0010 C   0  0  0  0  0  0  0  0  0  0  0  0
    8.3117   -4.3698   27.4436 C   0  0  0  0  0  0  0  0  0  0  0  0
    1.1339   -5.0515   26.3541 C   0  0  0  0  0  0  0  0  0  0  0  0
    4.8080   -8.0362   16.7101 C   0  0  0  0  0  0  0  0  0  0  0  0
   -1.2173   -3.9294   26.9717 O   0  0  0  0  0  0  0  0  0  0  0  0
   -1.0025   -5.0942   27.4586 C   0  0  0  0  0  0  0  0  0  0  0  0
    2.2474   -8.9123   16.6273 C   0  0  0  0  0  0  0  0  0  0  0  0
    4.4957   -9.2636   17.3041 C   0  0  0  0  0  0  0  0  0  0  0  0
   -1.8070   -5.6086   28.1920 O   0  0  0  0  0  0  0  0  0  0  0  0
   10.4296   -5.1799   28.3140 C   0  0  0  0  0  0  0  0  0  0  0  0
    6.6017   -5.9004   26.9187 C   0  0  0  0  0  0  0  0  0  0  0  0
    2.4761   -6.9940   26.4111 N   0  0  0  0  0  0  0  0  0  0  0  0
    9.1353   -5.4053   27.8239 C   0  0  0  0  0  0  0  0  0  0  0  0
    0.9922   -9.3232   16.5995 O   0  0  0  0  0  0  0  0  0  0  0  0
    1.5232   -7.6869   27.1182 C   0  0  0  0  0  0  0  0  0  0  0  0
    8.6878   -6.6715   27.7262 N   0  0  0  0  0  0  0  0  0  0  0  0
    6.9911   -8.2423   27.1808 C   0  0  0  0  0  0  0  0  0  0  0  0
    3.8436   -7.2758   16.0578 C   0  0  0  0  0  0  0  0  0  0  0  0
    3.1882   -9.7190   17.2566 C   0  0  0  0  0  0  0  0  0  0  0  0
    5.3488   -6.1737   26.5092 C   0  0  0  0  0  0  0  0  0  0  0  0
    7.4567   -6.9464   27.2858 C   0  0  0  0  0  0  0  0  0  0  0  0
    0.1921   -5.7592   27.1123 C   0  0  0  0  0  0  0  0  0  0  0  0
    3.5517   -7.7407   25.9711 C   0  0  0  0  0  0  0  0  0  0  0  0
  1  4  4  0
  1 22  4  0
  2 20  4  0
  2 27  4  0
  3 12  4  0
  3 23  4  0
  4 25  4  0
  4 28  1  0
  5  8  4  0
  5 17  4  0
  6  7  4  0
  6 16  4  0
  7 18  4  0
  8 27  4  0
  9 13  4  0
  9 23  4  0
 10 11  1  0
 11 14  2  0
 11 27  1  0
 12 19  1  0
 12 24  4  0
 13 24  4  0
 15 18  1  0
 16 25  4  0
 16 26  4  0
 17 20  4  0
 17 28  1  0
 18 21  4  0
 21 26  4  0
 22 26  4  0
M  END
$$$$

 Created by Python create_sdf_string function

 28 30  0  0  0  0  0  0  0  0999 V2000
    5.7174   -8.4529   26.7190 C   0  0  0  0  0  0  0  0  0  0  0  0
    0.3974   -7.0711   27.5149 C   0  0  0  0  0  0  0  0  0  0  0  0
    2.5338   -7.6891   16.0102 C   0  0  0  0  0  0  0  0  0  0  0  0
    4.8690   -7.4380   26.4151 C   0  0  0  0  0  0  0  0  0  0  0  0
    2.3021   -5.6726   26.0378 C   0  0  0  0  0  0  0  0  0  0  0  0
    7.0880   -4.6163   27.0010 C   0  0  0  0  0  0  0  0  0  0  0  0
    8.3117   -4.3698   27.4436 C   0  0  0  0  0  0  0  0  0  0  0  0
    1.1339   -5.0515   26.3541 C   0  0  0  0  0  0  0  0  0  0  0  0
    4.8080   -8.0362   16.7101 C   0  0  0  0  0  0  0  0  0  0  0  0
   -1.2173   -3.9294   26.9717 O   0  0  0  0  0  0  0  0  0  0  0  0
   -1.0025   -5.0942   27.4586 C   0  0  0  0  0  0  0  0  0  0  0  0
    2.2474   -8.9123   16.6273 C   0  0  0  0  0  0  0  0  0  0  0  0
    4.4957   -9.2636   17.3041 C   0  0  0  0  0  0  0  0  0  0  0  0
   -1.8070   -5.6086   28.1920 O   0  0  0  0  0  0  0  0  0  0  0  0
   10.4296   -5.1799   28.3140 C   0  0  0  0  0  0  0  0  0  0  0  0
    6.6017   -5.9004   26.9187 C   0  0  0  0  0  0  0  0  0  0  0  0
    2.4761   -6.9940   26.4111 N   0  0  0  0  0  0  0  0  0  0  0  0
    9.1353   -5.4053   27.8239 C   0  0  0  0  0  0  0  0  0  0  0  0
    0.9922   -9.3232   16.5995 O   0  0  0  0  0  0  0  0  0  0  0  0
    1.5232   -7.6869   27.1182 C   0  0  0  0  0  0  0  0  0  0  0  0
    8.6878   -6.6715   27.7262 N   0  0  0  0  0  0  0  0  0  0  0  0
    6.9911   -8.2423   27.1808 C   0  0  0  0  0  0  0  0  0  0  0  0
    3.8436   -7.2758   16.0578 C   0  0  0  0  0  0  0  0  0  0  0  0
    3.1882   -9.7190   17.2566 C   0  0  0  0  0  0  0  0  0  0  0  0
    5.3488   -6.1737   26.5092 C   0  0  0  0  0  0  0  0  0  0  0  0
    7.4567   -6.9464   27.2858 C   0  0  0  0  0  0  0  0  0  0  0  0
    0.1921   -5.7592   27.1123 C   0  0  0  0  0  0  0  0  0  0  0  0
    3.5517   -7.7407   25.9711 C   0  0  0  0  0  0  0  0  0  0  0  0
  1  4  4  0
  1 22  4  0
  2 20  4  0
  2 27  4  0
  3 12  4  0
  3 23  4  0
  4 25  4  0
  4 28  1  0
  5  8  4  0
  5 17  4  0
  6  7  4  0
  6 16  4  0
  7 18  4  0
  8 27  4  0
  9 13  4  0
  9 23  4  0
 10 11  1  0
 11 14  2  0
 11 27  1  0
 12 19  1  0
 12 24  4  0
 13 24  4  0
 15 18  1  0
 16 25  4  0
 16 26  4  0
 17 20  4  0
 17 28  1  0
 18 21  4  0
 21 26  4  0
 22 26  4  0
M  END
$$$$

 Created by Python create_sdf_string function

 28 30  0  0  0  0  0  0  0  0999 V2000
    5.7174   -8.4529   26.7190 C   0  0  0  0  0  0  0  0  0  0  0  0
    0.3974   -7.0711   27.5149 C   0  0  0  0  0  0  0  0  0  0  0  0
    2.5338   -7.6891   16.0102 C   0  0  0  0  0  0  0  0  0  0  0  0
    4.8690   -7.4380   26.4151 C   0  0  0  0  0  0  0  0  0  0  0  0
    2.3021   -5.6726   26.0378 C   0  0  0  0  0  0  0  0  0  0  0  0
    7.0880   -4.6163   27.0010 C   0  0  0  0  0  0  0  0  0  0  0  0
    8.3117   -4.3698   27.4436 C   0  0  0  0  0  0  0  0  0  0  0  0
    1.1339   -5.0515   26.3541 C   0  0  0  0  0  0  0  0  0  0  0  0
    4.8080   -8.0362   16.7101 C   0  0  0  0  0  0  0  0  0  0  0  0
   -1.2173   -3.9294   26.9717 O   0  0  0  0  0  0  0  0  0  0  0  0
   -1.0025   -5.0942   27.4586 C   0  0  0  0  0  0  0  0  0  0  0  0
    2.2474   -8.9123   16.6273 C   0  0  0  0  0  0  0  0  0  0  0  0
    4.4957   -9.2636   17.3041 C   0  0  0  0  0  0  0  0  0  0  0  0
   -1.8070   -5.6086   28.1920 O   0  0  0  0  0  0  0  0  0  0  0  0
   10.4296   -5.1799   28.3140 C   0  0  0  0  0  0  0  0  0  0  0  0
    6.6017   -5.9004   26.9187 C   0  0  0  0  0  0  0  0  0  0  0  0
    2.4761   -6.9940   26.4111 N   0  0  0  0  0  0  0  0  0  0  0  0
    9.1353   -5.4053   27.8239 C   0  0  0  0  0  0  0  0  0  0  0  0
    0.9922   -9.3232   16.5995 O   0  0  0  0  0  0  0  0  0  0  0  0
    1.5232   -7.6869   27.1182 C   0  0  0  0  0  0  0  0  0  0  0  0
    8.6878   -6.6715   27.7262 N   0  0  0  0  0  0  0  0  0  0  0  0
    6.9911   -8.2423   27.1808 C   0  0  0  0  0  0  0  0  0  0  0  0
    3.8436   -7.2758   16.0578 C   0  0  0  0  0  0  0  0  0  0  0  0
    3.1882   -9.7190   17.2566 C   0  0  0  0  0  0  0  0  0  0  0  0
    5.3488   -6.1737   26.5092 C   0  0  0  0  0  0  0  0  0  0  0  0
    7.4567   -6.9464   27.2858 C   0  0  0  0  0  0  0  0  0  0  0  0
    0.1921   -5.7592   27.1123 C   0  0  0  0  0  0  0  0  0  0  0  0
    3.5517   -7.7407   25.9711 C   0  0  0  0  0  0  0  0  0  0  0  0
  1  4  4  0
  1 22  4  0
  2 20  4  0
  2 27  4  0
  3 12  4  0
  3 23  4  0
  4 25  4  0
  4 28  1  0
  5  8  4  0
  5 17  4  0
  6  7  4  0
  6 16  4  0
  7 18  4  0
  8 27  4  0
  9 13  4  0
  9 23  4  0
 10 11  1  0
 11 14  2  0
 11 27  1  0
 12 19  1  0
 12 24  4  0
 13 24  4  0
 15 18  1  0
 16 25  4  0
 16 26  4  0
 17 20  4  0
 17 28  1  0
 18 21  4  0
 21 26  4  0
 22 26  4  0
M  END
$$$$

 Created by Python create_sdf_string function

 28 30  0  0  0  0  0  0  0  0999 V2000
    5.7174   -8.4529   26.7190 C   0  0  0  0  0  0  0  0  0  0  0  0
    0.3974   -7.0711   27.5149 C   0  0  0  0  0  0  0  0  0  0  0  0
    2.5338   -7.6891   16.0102 C   0  0  0  0  0  0  0  0  0  0  0  0
    4.8690   -7.4380   26.4151 C   0  0  0  0  0  0  0  0  0  0  0  0
    2.3021   -5.6726   26.0378 C   0  0  0  0  0  0  0  0  0  0  0  0
    7.0880   -4.6163   27.0010 C   0  0  0  0  0  0  0  0  0  0  0  0
    8.3117   -4.3698   27.4436 C   0  0  0  0  0  0  0  0  0  0  0  0
    1.1339   -5.0515   26.3541 C   0  0  0  0  0  0  0  0  0  0  0  0
    4.8080   -8.0362   16.7101 C   0  0  0  0  0  0  0  0  0  0  0  0
   -1.2173   -3.9294   26.9717 O   0  0  0  0  0  0  0  0  0  0  0  0
   -1.0025   -5.0942   27.4586 C   0  0  0  0  0  0  0  0  0  0  0  0
    2.2474   -8.9123   16.6273 C   0  0  0  0  0  0  0  0  0  0  0  0
    4.4957   -9.2636   17.3041 C   0  0  0  0  0  0  0  0  0  0  0  0
   -1.8070   -5.6086   28.1920 O   0  0  0  0  0  0  0  0  0  0  0  0
   10.4296   -5.1799   28.3140 C   0  0  0  0  0  0  0  0  0  0  0  0
    6.6017   -5.9004   26.9187 C   0  0  0  0  0  0  0  0  0  0  0  0
    2.4761   -6.9940   26.4111 N   0  0  0  0  0  0  0  0  0  0  0  0
    9.1353   -5.4053   27.8239 C   0  0  0  0  0  0  0  0  0  0  0  0
    0.9922   -9.3232   16.5995 O   0  0  0  0  0  0  0  0  0  0  0  0
    1.5232   -7.6869   27.1182 C   0  0  0  0  0  0  0  0  0  0  0  0
    8.6878   -6.6715   27.7262 N   0  0  0  0  0  0  0  0  0  0  0  0
    6.9911   -8.2423   27.1808 C   0  0  0  0  0  0  0  0  0  0  0  0
    3.8436   -7.2758   16.0578 C   0  0  0  0  0  0  0  0  0  0  0  0
    3.1882   -9.7190   17.2566 C   0  0  0  0  0  0  0  0  0  0  0  0
    5.3488   -6.1737   26.5092 C   0  0  0  0  0  0  0  0  0  0  0  0
    7.4567   -6.9464   27.2858 C   0  0  0  0  0  0  0  0  0  0  0  0
    0.1921   -5.7592   27.1123 C   0  0  0  0  0  0  0  0  0  0  0  0
    3.5517   -7.7407   25.9711 C   0  0  0  0  0  0  0  0  0  0  0  0
  1  4  4  0
  1 22  4  0
  2 20  4  0
  2 27  4  0
  3 12  4  0
  3 23  4  0
  4 25  4  0
  4 28  1  0
  5  8  4  0
  5 17  4  0
  6  7  4  0
  6 16  4  0
  7 18  4  0
  8 27  4  0
  9 13  4  0
  9 23  4  0
 10 11  1  0
 11 14  2  0
 11 27  1  0
 12 19  1  0
 12 24  4  0
 13 24  4  0
 15 18  1  0
 16 25  4  0
 16 26  4  0
 17 20  4  0
 17 28  1  0
 18 21  4  0
 21 26  4  0
 22 26  4  0
M  END
$$$$

 Created by Python create_sdf_string function

 28 30  0  0  0  0  0  0  0  0999 V2000
    5.7174   -8.4529   26.7190 C   0  0  0  0  0  0  0  0  0  0  0  0
    0.3974   -7.0711   27.5149 C   0  0  0  0  0  0  0  0  0  0  0  0
    2.5338   -7.6891   16.0102 C   0  0  0  0  0  0  0  0  0  0  0  0
    4.8690   -7.4380   26.4151 C   0  0  0  0  0  0  0  0  0  0  0  0
    2.3021   -5.6726   26.0378 C   0  0  0  0  0  0  0  0  0  0  0  0
    7.0880   -4.6163   27.0010 C   0  0  0  0  0  0  0  0  0  0  0  0
    8.3117   -4.3698   27.4436 C   0  0  0  0  0  0  0  0  0  0  0  0
    1.1339   -5.0515   26.3541 C   0  0  0  0  0  0  0  0  0  0  0  0
    4.8080   -8.0362   16.7101 C   0  0  0  0  0  0  0  0  0  0  0  0
   -1.2173   -3.9294   26.9717 O   0  0  0  0  0  0  0  0  0  0  0  0
   -1.0025   -5.0942   27.4586 C   0  0  0  0  0  0  0  0  0  0  0  0
    2.2474   -8.9123   16.6273 C   0  0  0  0  0  0  0  0  0  0  0  0
    4.4957   -9.2636   17.3041 C   0  0  0  0  0  0  0  0  0  0  0  0
   -1.8070   -5.6086   28.1920 O   0  0  0  0  0  0  0  0  0  0  0  0
   10.4296   -5.1799   28.3140 C   0  0  0  0  0  0  0  0  0  0  0  0
    6.6017   -5.9004   26.9187 C   0  0  0  0  0  0  0  0  0  0  0  0
    2.4761   -6.9940   26.4111 N   0  0  0  0  0  0  0  0  0  0  0  0
    9.1353   -5.4053   27.8239 C   0  0  0  0  0  0  0  0  0  0  0  0
    0.9922   -9.3232   16.5995 O   0  0  0  0  0  0  0  0  0  0  0  0
    1.5232   -7.6869   27.1182 C   0  0  0  0  0  0  0  0  0  0  0  0
    8.6878   -6.6715   27.7262 N   0  0  0  0  0  0  0  0  0  0  0  0
    6.9911   -8.2423   27.1808 C   0  0  0  0  0  0  0  0  0  0  0  0
    3.8436   -7.2758   16.0578 C   0  0  0  0  0  0  0  0  0  0  0  0
    3.1882   -9.7190   17.2566 C   0  0  0  0  0  0  0  0  0  0  0  0
    5.3488   -6.1737   26.5092 C   0  0  0  0  0  0  0  0  0  0  0  0
    7.4567   -6.9464   27.2858 C   0  0  0  0  0  0  0  0  0  0  0  0
    0.1921   -5.7592   27.1123 C   0  0  0  0  0  0  0  0  0  0  0  0
    3.5517   -7.7407   25.9711 C   0  0  0  0  0  0  0  0  0  0  0  0
  1  4  4  0
  1 22  4  0
  2 20  4  0
  2 27  4  0
  3 12  4  0
  3 23  4  0
  4 25  4  0
  4 28  1  0
  5  8  4  0
  5 17  4  0
  6  7  4  0
  6 16  4  0
  7 18  4  0
  8 27  4  0
  9 13  4  0
  9 23  4  0
 10 11  1  0
 11 14  2  0
 11 27  1  0
 12 19  1  0
 12 24  4  0
 13 24  4  0
 15 18  1  0
 16 25  4  0
 16 26  4  0
 17 20  4  0
 17 28  1  0
 18 21  4  0
 21 26  4  0
 22 26  4  0
M  END
$$$$

 Created by Python create_sdf_string function

 28 30  0  0  0  0  0  0  0  0999 V2000
    5.7174   -8.4529   26.7190 C   0  0  0  0  0  0  0  0  0  0  0  0
    0.3974   -7.0711   27.5149 C   0  0  0  0  0  0  0  0  0  0  0  0
    2.5338   -7.6891   16.0102 C   0  0  0  0  0  0  0  0  0  0  0  0
    4.8690   -7.4380   26.4151 C   0  0  0  0  0  0  0  0  0  0  0  0
    2.3021   -5.6726   26.0378 C   0  0  0  0  0  0  0  0  0  0  0  0
    7.0880   -4.6163   27.0010 C   0  0  0  0  0  0  0  0  0  0  0  0
    8.3117   -4.3698   27.4436 C   0  0  0  0  0  0  0  0  0  0  0  0
    1.1339   -5.0515   26.3541 C   0  0  0  0  0  0  0  0  0  0  0  0
    4.8080   -8.0362   16.7101 C   0  0  0  0  0  0  0  0  0  0  0  0
   -1.2173   -3.9294   26.9717 O   0  0  0  0  0  0  0  0  0  0  0  0
   -1.0025   -5.0942   27.4586 C   0  0  0  0  0  0  0  0  0  0  0  0
    2.2474   -8.9123   16.6273 C   0  0  0  0  0  0  0  0  0  0  0  0
    4.4957   -9.2636   17.3041 C   0  0  0  0  0  0  0  0  0  0  0  0
   -1.8070   -5.6086   28.1920 O   0  0  0  0  0  0  0  0  0  0  0  0
   10.4296   -5.1799   28.3140 C   0  0  0  0  0  0  0  0  0  0  0  0
    6.6017   -5.9004   26.9187 C   0  0  0  0  0  0  0  0  0  0  0  0
    2.4761   -6.9940   26.4111 N   0  0  0  0  0  0  0  0  0  0  0  0
    9.1353   -5.4053   27.8239 C   0  0  0  0  0  0  0  0  0  0  0  0
    0.9922   -9.3232   16.5995 O   0  0  0  0  0  0  0  0  0  0  0  0
    1.5232   -7.6869   27.1182 C   0  0  0  0  0  0  0  0  0  0  0  0
    8.6878   -6.6715   27.7262 N   0  0  0  0  0  0  0  0  0  0  0  0
    6.9911   -8.2423   27.1808 C   0  0  0  0  0  0  0  0  0  0  0  0
    3.8436   -7.2758   16.0578 C   0  0  0  0  0  0  0  0  0  0  0  0
    3.1882   -9.7190   17.2566 C   0  0  0  0  0  0  0  0  0  0  0  0
    5.3488   -6.1737   26.5092 C   0  0  0  0  0  0  0  0  0  0  0  0
    7.4567   -6.9464   27.2858 C   0  0  0  0  0  0  0  0  0  0  0  0
    0.1921   -5.7592   27.1123 C   0  0  0  0  0  0  0  0  0  0  0  0
    3.5517   -7.7407   25.9711 C   0  0  0  0  0  0  0  0  0  0  0  0
  1  4  4  0
  1 22  4  0
  2 20  4  0
  2 27  4  0
  3 12  4  0
  3 23  4  0
  4 25  4  0
  4 28  1  0
  5  8  4  0
  5 17  4  0
  6  7  4  0
  6 16  4  0
  7 18  4  0
  8 27  4  0
  9 13  4  0
  9 23  4  0
 10 11  1  0
 11 14  2  0
 11 27  1  0
 12 19  1  0
 12 24  4  0
 13 24  4  0
 15 18  1  0
 16 25  4  0
 16 26  4  0
 17 20  4  0
 17 28  1  0
 18 21  4  0
 21 26  4  0
 22 26  4  0
M  END
$$$$

 Created by Python create_sdf_string function

 28 30  0  0  0  0  0  0  0  0999 V2000
    5.7174   -8.4529   26.7190 C   0  0  0  0  0  0  0  0  0  0  0  0
    0.3974   -7.0711   27.5149 C   0  0  0  0  0  0  0  0  0  0  0  0
    2.5338   -7.6891   16.0102 C   0  0  0  0  0  0  0  0  0  0  0  0
    4.8690   -7.4380   26.4151 C   0  0  0  0  0  0  0  0  0  0  0  0
    2.3021   -5.6726   26.0378 C   0  0  0  0  0  0  0  0  0  0  0  0
    7.0880   -4.6163   27.0010 C   0  0  0  0  0  0  0  0  0  0  0  0
    8.3117   -4.3698   27.4436 C   0  0  0  0  0  0  0  0  0  0  0  0
    1.1339   -5.0515   26.3541 C   0  0  0  0  0  0  0  0  0  0  0  0
    4.8080   -8.0362   16.7101 C   0  0  0  0  0  0  0  0  0  0  0  0
   -1.2173   -3.9294   26.9717 O   0  0  0  0  0  0  0  0  0  0  0  0
   -1.0025   -5.0942   27.4586 C   0  0  0  0  0  0  0  0  0  0  0  0
    2.2474   -8.9123   16.6273 C   0  0  0  0  0  0  0  0  0  0  0  0
    4.4957   -9.2636   17.3041 C   0  0  0  0  0  0  0  0  0  0  0  0
   -1.8070   -5.6086   28.1920 O   0  0  0  0  0  0  0  0  0  0  0  0
   10.4296   -5.1799   28.3140 C   0  0  0  0  0  0  0  0  0  0  0  0
    6.6017   -5.9004   26.9187 C   0  0  0  0  0  0  0  0  0  0  0  0
    2.4761   -6.9940   26.4111 N   0  0  0  0  0  0  0  0  0  0  0  0
    9.1353   -5.4053   27.8239 C   0  0  0  0  0  0  0  0  0  0  0  0
    0.9922   -9.3232   16.5995 O   0  0  0  0  0  0  0  0  0  0  0  0
    1.5232   -7.6869   27.1182 C   0  0  0  0  0  0  0  0  0  0  0  0
    8.6878   -6.6715   27.7262 N   0  0  0  0  0  0  0  0  0  0  0  0
    6.9911   -8.2423   27.1808 C   0  0  0  0  0  0  0  0  0  0  0  0
    3.8436   -7.2758   16.0578 C   0  0  0  0  0  0  0  0  0  0  0  0
    3.1882   -9.7190   17.2566 C   0  0  0  0  0  0  0  0  0  0  0  0
    5.3488   -6.1737   26.5092 C   0  0  0  0  0  0  0  0  0  0  0  0
    7.4567   -6.9464   27.2858 C   0  0  0  0  0  0  0  0  0  0  0  0
    0.1921   -5.7592   27.1123 C   0  0  0  0  0  0  0  0  0  0  0  0
    3.5517   -7.7407   25.9711 C   0  0  0  0  0  0  0  0  0  0  0  0
  1  4  4  0
  1 22  4  0
  2 20  4  0
  2 27  4  0
  3 12  4  0
  3 23  4  0
  4 25  4  0
  4 28  1  0
  5  8  4  0
  5 17  4  0
  6  7  4  0
  6 16  4  0
  7 18  4  0
  8 27  4  0
  9 13  4  0
  9 23  4  0
 10 11  1  0
 11 14  2  0
 11 27  1  0
 12 19  1  0
 12 24  4  0
 13 24  4  0
 15 18  1  0
 16 25  4  0
 16 26  4  0
 17 20  4  0
 17 28  1  0
 18 21  4  0
 21 26  4  0
 22 26  4  0
M  END
$$$$

 Created by Python create_sdf_string function

 28 30  0  0  0  0  0  0  0  0999 V2000
    5.7174   -8.4529   26.7190 C   0  0  0  0  0  0  0  0  0  0  0  0
    0.3974   -7.0711   27.5149 C   0  0  0  0  0  0  0  0  0  0  0  0
    2.5338   -7.6891   16.0102 C   0  0  0  0  0  0  0  0  0  0  0  0
    4.8690   -7.4380   26.4151 C   0  0  0  0  0  0  0  0  0  0  0  0
    2.3021   -5.6726   26.0378 C   0  0  0  0  0  0  0  0  0  0  0  0
    7.0880   -4.6163   27.0010 C   0  0  0  0  0  0  0  0  0  0  0  0
    8.3117   -4.3698   27.4436 C   0  0  0  0  0  0  0  0  0  0  0  0
    1.1339   -5.0515   26.3541 C   0  0  0  0  0  0  0  0  0  0  0  0
    4.8080   -8.0362   16.7101 C   0  0  0  0  0  0  0  0  0  0  0  0
   -1.2173   -3.9294   26.9717 O   0  0  0  0  0  0  0  0  0  0  0  0
   -1.0025   -5.0942   27.4586 C   0  0  0  0  0  0  0  0  0  0  0  0
    2.2474   -8.9123   16.6273 C   0  0  0  0  0  0  0  0  0  0  0  0
    4.4957   -9.2636   17.3041 C   0  0  0  0  0  0  0  0  0  0  0  0
   -1.8070   -5.6086   28.1920 O   0  0  0  0  0  0  0  0  0  0  0  0
   10.4296   -5.1799   28.3140 C   0  0  0  0  0  0  0  0  0  0  0  0
    6.6017   -5.9004   26.9187 C   0  0  0  0  0  0  0  0  0  0  0  0
    2.4761   -6.9940   26.4111 N   0  0  0  0  0  0  0  0  0  0  0  0
    9.1353   -5.4053   27.8239 C   0  0  0  0  0  0  0  0  0  0  0  0
    0.9922   -9.3232   16.5995 O   0  0  0  0  0  0  0  0  0  0  0  0
    1.5232   -7.6869   27.1182 C   0  0  0  0  0  0  0  0  0  0  0  0
    8.6878   -6.6715   27.7262 N   0  0  0  0  0  0  0  0  0  0  0  0
    6.9911   -8.2423   27.1808 C   0  0  0  0  0  0  0  0  0  0  0  0
    3.8436   -7.2758   16.0578 C   0  0  0  0  0  0  0  0  0  0  0  0
    3.1882   -9.7190   17.2566 C   0  0  0  0  0  0  0  0  0  0  0  0
    5.3488   -6.1737   26.5092 C   0  0  0  0  0  0  0  0  0  0  0  0
    7.4567   -6.9464   27.2858 C   0  0  0  0  0  0  0  0  0  0  0  0
    0.1921   -5.7592   27.1123 C   0  0  0  0  0  0  0  0  0  0  0  0
    3.5517   -7.7407   25.9711 C   0  0  0  0  0  0  0  0  0  0  0  0
  1  4  4  0
  1 22  4  0
  2 20  4  0
  2 27  4  0
  3 12  4  0
  3 23  4  0
  4 25  4  0
  4 28  1  0
  5  8  4  0
  5 17  4  0
  6  7  4  0
  6 16  4  0
  7 18  4  0
  8 27  4  0
  9 13  4  0
  9 23  4  0
 10 11  1  0
 11 14  2  0
 11 27  1  0
 12 19  1  0
 12 24  4  0
 13 24  4  0
 15 18  1  0
 16 25  4  0
 16 26  4  0
 17 20  4  0
 17 28  1  0
 18 21  4  0
 21 26  4  0
 22 26  4  0
M  END
$$$$

 Created by Python create_sdf_string function

 28 30  0  0  0  0  0  0  0  0999 V2000
    5.7174   -8.4529   26.7190 C   0  0  0  0  0  0  0  0  0  0  0  0
    0.3974   -7.0711   27.5149 C   0  0  0  0  0  0  0  0  0  0  0  0
    2.5338   -7.6891   16.0102 C   0  0  0  0  0  0  0  0  0  0  0  0
    4.8690   -7.4380   26.4151 C   0  0  0  0  0  0  0  0  0  0  0  0
    2.3021   -5.6726   26.0378 C   0  0  0  0  0  0  0  0  0  0  0  0
    7.0880   -4.6163   27.0010 C   0  0  0  0  0  0  0  0  0  0  0  0
    8.3117   -4.3698   27.4436 C   0  0  0  0  0  0  0  0  0  0  0  0
    1.1339   -5.0515   26.3541 C   0  0  0  0  0  0  0  0  0  0  0  0
    4.8080   -8.0362   16.7101 C   0  0  0  0  0  0  0  0  0  0  0  0
   -1.2173   -3.9294   26.9717 O   0  0  0  0  0  0  0  0  0  0  0  0
   -1.0025   -5.0942   27.4586 C   0  0  0  0  0  0  0  0  0  0  0  0
    2.2474   -8.9123   16.6273 C   0  0  0  0  0  0  0  0  0  0  0  0
    4.4957   -9.2636   17.3041 C   0  0  0  0  0  0  0  0  0  0  0  0
   -1.8070   -5.6086   28.1920 O   0  0  0  0  0  0  0  0  0  0  0  0
   10.4296   -5.1799   28.3140 C   0  0  0  0  0  0  0  0  0  0  0  0
    6.6017   -5.9004   26.9187 C   0  0  0  0  0  0  0  0  0  0  0  0
    2.4761   -6.9940   26.4111 N   0  0  0  0  0  0  0  0  0  0  0  0
    9.1353   -5.4053   27.8239 C   0  0  0  0  0  0  0  0  0  0  0  0
    0.9922   -9.3232   16.5995 O   0  0  0  0  0  0  0  0  0  0  0  0
    1.5232   -7.6869   27.1182 C   0  0  0  0  0  0  0  0  0  0  0  0
    8.6878   -6.6715   27.7262 N   0  0  0  0  0  0  0  0  0  0  0  0
    6.9911   -8.2423   27.1808 C   0  0  0  0  0  0  0  0  0  0  0  0
    3.8436   -7.2758   16.0578 C   0  0  0  0  0  0  0  0  0  0  0  0
    3.1882   -9.7190   17.2566 C   0  0  0  0  0  0  0  0  0  0  0  0
    5.3488   -6.1737   26.5092 C   0  0  0  0  0  0  0  0  0  0  0  0
    7.4567   -6.9464   27.2858 C   0  0  0  0  0  0  0  0  0  0  0  0
    0.1921   -5.7592   27.1123 C   0  0  0  0  0  0  0  0  0  0  0  0
    3.5517   -7.7407   25.9711 C   0  0  0  0  0  0  0  0  0  0  0  0
  1  4  4  0
  1 22  4  0
  2 20  4  0
  2 27  4  0
  3 12  4  0
  3 23  4  0
  4 25  4  0
  4 28  1  0
  5  8  4  0
  5 17  4  0
  6  7  4  0
  6 16  4  0
  7 18  4  0
  8 27  4  0
  9 13  4  0
  9 23  4  0
 10 11  1  0
 11 14  2  0
 11 27  1  0
 12 19  1  0
 12 24  4  0
 13 24  4  0
 15 18  1  0
 16 25  4  0
 16 26  4  0
 17 20  4  0
 17 28  1  0
 18 21  4  0
 21 26  4  0
 22 26  4  0
M  END
$$$$

 Created by Python create_sdf_string function

 28 30  0  0  0  0  0  0  0  0999 V2000
    5.7174   -8.4529   26.7190 C   0  0  0  0  0  0  0  0  0  0  0  0
    0.3974   -7.0711   27.5149 C   0  0  0  0  0  0  0  0  0  0  0  0
    2.5338   -7.6891   16.0102 C   0  0  0  0  0  0  0  0  0  0  0  0
    4.8690   -7.4380   26.4151 C   0  0  0  0  0  0  0  0  0  0  0  0
    2.3021   -5.6726   26.0378 C   0  0  0  0  0  0  0  0  0  0  0  0
    7.0880   -4.6163   27.0010 C   0  0  0  0  0  0  0  0  0  0  0  0
    8.3117   -4.3698   27.4436 C   0  0  0  0  0  0  0  0  0  0  0  0
    1.1339   -5.0515   26.3541 C   0  0  0  0  0  0  0  0  0  0  0  0
    4.8080   -8.0362   16.7101 C   0  0  0  0  0  0  0  0  0  0  0  0
   -1.2173   -3.9294   26.9717 O   0  0  0  0  0  0  0  0  0  0  0  0
   -1.0025   -5.0942   27.4586 C   0  0  0  0  0  0  0  0  0  0  0  0
    2.2474   -8.9123   16.6273 C   0  0  0  0  0  0  0  0  0  0  0  0
    4.4957   -9.2636   17.3041 C   0  0  0  0  0  0  0  0  0  0  0  0
   -1.8070   -5.6086   28.1920 O   0  0  0  0  0  0  0  0  0  0  0  0
   10.4296   -5.1799   28.3140 C   0  0  0  0  0  0  0  0  0  0  0  0
    6.6017   -5.9004   26.9187 C   0  0  0  0  0  0  0  0  0  0  0  0
    2.4761   -6.9940   26.4111 N   0  0  0  0  0  0  0  0  0  0  0  0
    9.1353   -5.4053   27.8239 C   0  0  0  0  0  0  0  0  0  0  0  0
    0.9922   -9.3232   16.5995 O   0  0  0  0  0  0  0  0  0  0  0  0
    1.5232   -7.6869   27.1182 C   0  0  0  0  0  0  0  0  0  0  0  0
    8.6878   -6.6715   27.7262 N   0  0  0  0  0  0  0  0  0  0  0  0
    6.9911   -8.2423   27.1808 C   0  0  0  0  0  0  0  0  0  0  0  0
    3.8436   -7.2758   16.0578 C   0  0  0  0  0  0  0  0  0  0  0  0
    3.1882   -9.7190   17.2566 C   0  0  0  0  0  0  0  0  0  0  0  0
    5.3488   -6.1737   26.5092 C   0  0  0  0  0  0  0  0  0  0  0  0
    7.4567   -6.9464   27.2858 C   0  0  0  0  0  0  0  0  0  0  0  0
    0.1921   -5.7592   27.1123 C   0  0  0  0  0  0  0  0  0  0  0  0
    3.5517   -7.7407   25.9711 C   0  0  0  0  0  0  0  0  0  0  0  0
  1  4  4  0
  1 22  4  0
  2 20  4  0
  2 27  4  0
  3 12  4  0
  3 23  4  0
  4 25  4  0
  4 28  1  0
  5  8  4  0
  5 17  4  0
  6  7  4  0
  6 16  4  0
  7 18  4  0
  8 27  4  0
  9 13  4  0
  9 23  4  0
 10 11  1  0
 11 14  2  0
 11 27  1  0
 12 19  1  0
 12 24  4  0
 13 24  4  0
 15 18  1  0
 16 25  4  0
 16 26  4  0
 17 20  4  0
 17 28  1  0
 18 21  4  0
 21 26  4  0
 22 26  4  0
M  END
$$$$

 Created by Python create_sdf_string function

 28 30  0  0  0  0  0  0  0  0999 V2000
    5.7174   -8.4529   26.7190 C   0  0  0  0  0  0  0  0  0  0  0  0
    0.3974   -7.0711   27.5149 C   0  0  0  0  0  0  0  0  0  0  0  0
    2.5338   -7.6891   16.0102 C   0  0  0  0  0  0  0  0  0  0  0  0
    4.8690   -7.4380   26.4151 C   0  0  0  0  0  0  0  0  0  0  0  0
    2.3021   -5.6726   26.0378 C   0  0  0  0  0  0  0  0  0  0  0  0
    7.0880   -4.6163   27.0010 C   0  0  0  0  0  0  0  0  0  0  0  0
    8.3117   -4.3698   27.4436 C   0  0  0  0  0  0  0  0  0  0  0  0
    1.1339   -5.0515   26.3541 C   0  0  0  0  0  0  0  0  0  0  0  0
    4.8080   -8.0362   16.7101 C   0  0  0  0  0  0  0  0  0  0  0  0
   -1.2173   -3.9294   26.9717 O   0  0  0  0  0  0  0  0  0  0  0  0
   -1.0025   -5.0942   27.4586 C   0  0  0  0  0  0  0  0  0  0  0  0
    2.2474   -8.9123   16.6273 C   0  0  0  0  0  0  0  0  0  0  0  0
    4.4957   -9.2636   17.3041 C   0  0  0  0  0  0  0  0  0  0  0  0
   -1.8070   -5.6086   28.1920 O   0  0  0  0  0  0  0  0  0  0  0  0
   10.4296   -5.1799   28.3140 C   0  0  0  0  0  0  0  0  0  0  0  0
    6.6017   -5.9004   26.9187 C   0  0  0  0  0  0  0  0  0  0  0  0
    2.4761   -6.9940   26.4111 N   0  0  0  0  0  0  0  0  0  0  0  0
    9.1353   -5.4053   27.8239 C   0  0  0  0  0  0  0  0  0  0  0  0
    0.9922   -9.3232   16.5995 O   0  0  0  0  0  0  0  0  0  0  0  0
    1.5232   -7.6869   27.1182 C   0  0  0  0  0  0  0  0  0  0  0  0
    8.6878   -6.6715   27.7262 N   0  0  0  0  0  0  0  0  0  0  0  0
    6.9911   -8.2423   27.1808 C   0  0  0  0  0  0  0  0  0  0  0  0
    3.8436   -7.2758   16.0578 C   0  0  0  0  0  0  0  0  0  0  0  0
    3.1882   -9.7190   17.2566 C   0  0  0  0  0  0  0  0  0  0  0  0
    5.3488   -6.1737   26.5092 C   0  0  0  0  0  0  0  0  0  0  0  0
    7.4567   -6.9464   27.2858 C   0  0  0  0  0  0  0  0  0  0  0  0
    0.1921   -5.7592   27.1123 C   0  0  0  0  0  0  0  0  0  0  0  0
    3.5517   -7.7407   25.9711 C   0  0  0  0  0  0  0  0  0  0  0  0
  1  4  4  0
  1 22  4  0
  2 20  4  0
  2 27  4  0
  3 12  4  0
  3 23  4  0
  4 25  4  0
  4 28  1  0
  5  8  4  0
  5 17  4  0
  6  7  4  0
  6 16  4  0
  7 18  4  0
  8 27  4  0
  9 13  4  0
  9 23  4  0
 10 11  1  0
 11 14  2  0
 11 27  1  0
 12 19  1  0
 12 24  4  0
 13 24  4  0
 15 18  1  0
 16 25  4  0
 16 26  4  0
 17 20  4  0
 17 28  1  0
 18 21  4  0
 21 26  4  0
 22 26  4  0
M  END
$$$$

 Created by Python create_sdf_string function

 28 30  0  0  0  0  0  0  0  0999 V2000
    5.7174   -8.4529   26.7190 C   0  0  0  0  0  0  0  0  0  0  0  0
    0.3974   -7.0711   27.5149 C   0  0  0  0  0  0  0  0  0  0  0  0
    2.5338   -7.6891   16.0102 C   0  0  0  0  0  0  0  0  0  0  0  0
    4.8690   -7.4380   26.4151 C   0  0  0  0  0  0  0  0  0  0  0  0
    2.3021   -5.6726   26.0378 C   0  0  0  0  0  0  0  0  0  0  0  0
    7.0880   -4.6163   27.0010 C   0  0  0  0  0  0  0  0  0  0  0  0
    8.3117   -4.3698   27.4436 C   0  0  0  0  0  0  0  0  0  0  0  0
    1.1339   -5.0515   26.3541 C   0  0  0  0  0  0  0  0  0  0  0  0
    4.8080   -8.0362   16.7101 C   0  0  0  0  0  0  0  0  0  0  0  0
   -1.2173   -3.9294   26.9717 O   0  0  0  0  0  0  0  0  0  0  0  0
   -1.0025   -5.0942   27.4586 C   0  0  0  0  0  0  0  0  0  0  0  0
    2.2474   -8.9123   16.6273 C   0  0  0  0  0  0  0  0  0  0  0  0
    4.4957   -9.2636   17.3041 C   0  0  0  0  0  0  0  0  0  0  0  0
   -1.8070   -5.6086   28.1920 O   0  0  0  0  0  0  0  0  0  0  0  0
   10.4296   -5.1799   28.3140 C   0  0  0  0  0  0  0  0  0  0  0  0
    6.6017   -5.9004   26.9187 C   0  0  0  0  0  0  0  0  0  0  0  0
    2.4761   -6.9940   26.4111 N   0  0  0  0  0  0  0  0  0  0  0  0
    9.1353   -5.4053   27.8239 C   0  0  0  0  0  0  0  0  0  0  0  0
    0.9922   -9.3232   16.5995 O   0  0  0  0  0  0  0  0  0  0  0  0
    1.5232   -7.6869   27.1182 C   0  0  0  0  0  0  0  0  0  0  0  0
    8.6878   -6.6715   27.7262 N   0  0  0  0  0  0  0  0  0  0  0  0
    6.9911   -8.2423   27.1808 C   0  0  0  0  0  0  0  0  0  0  0  0
    3.8436   -7.2758   16.0578 C   0  0  0  0  0  0  0  0  0  0  0  0
    3.1882   -9.7190   17.2566 C   0  0  0  0  0  0  0  0  0  0  0  0
    5.3488   -6.1737   26.5092 C   0  0  0  0  0  0  0  0  0  0  0  0
    7.4567   -6.9464   27.2858 C   0  0  0  0  0  0  0  0  0  0  0  0
    0.1921   -5.7592   27.1123 C   0  0  0  0  0  0  0  0  0  0  0  0
    3.5517   -7.7407   25.9711 C   0  0  0  0  0  0  0  0  0  0  0  0
  1  4  4  0
  1 22  4  0
  2 20  4  0
  2 27  4  0
  3 12  4  0
  3 23  4  0
  4 25  4  0
  4 28  1  0
  5  8  4  0
  5 17  4  0
  6  7  4  0
  6 16  4  0
  7 18  4  0
  8 27  4  0
  9 13  4  0
  9 23  4  0
 10 11  1  0
 11 14  2  0
 11 27  1  0
 12 19  1  0
 12 24  4  0
 13 24  4  0
 15 18  1  0
 16 25  4  0
 16 26  4  0
 17 20  4  0
 17 28  1  0
 18 21  4  0
 21 26  4  0
 22 26  4  0
M  END
$$$$

 Created by Python create_sdf_string function

 28 30  0  0  0  0  0  0  0  0999 V2000
    5.7174   -8.4529   26.7190 C   0  0  0  0  0  0  0  0  0  0  0  0
    0.3974   -7.0711   27.5149 C   0  0  0  0  0  0  0  0  0  0  0  0
    2.5338   -7.6891   16.0102 C   0  0  0  0  0  0  0  0  0  0  0  0
    4.8690   -7.4380   26.4151 C   0  0  0  0  0  0  0  0  0  0  0  0
    2.3021   -5.6726   26.0378 C   0  0  0  0  0  0  0  0  0  0  0  0
    7.0880   -4.6163   27.0010 C   0  0  0  0  0  0  0  0  0  0  0  0
    8.3117   -4.3698   27.4436 C   0  0  0  0  0  0  0  0  0  0  0  0
    1.1339   -5.0515   26.3541 C   0  0  0  0  0  0  0  0  0  0  0  0
    4.8080   -8.0362   16.7101 C   0  0  0  0  0  0  0  0  0  0  0  0
   -1.2173   -3.9294   26.9717 O   0  0  0  0  0  0  0  0  0  0  0  0
   -1.0025   -5.0942   27.4586 C   0  0  0  0  0  0  0  0  0  0  0  0
    2.2474   -8.9123   16.6273 C   0  0  0  0  0  0  0  0  0  0  0  0
    4.4957   -9.2636   17.3041 C   0  0  0  0  0  0  0  0  0  0  0  0
   -1.8070   -5.6086   28.1920 O   0  0  0  0  0  0  0  0  0  0  0  0
   10.4296   -5.1799   28.3140 C   0  0  0  0  0  0  0  0  0  0  0  0
    6.6017   -5.9004   26.9187 C   0  0  0  0  0  0  0  0  0  0  0  0
    2.4761   -6.9940   26.4111 N   0  0  0  0  0  0  0  0  0  0  0  0
    9.1353   -5.4053   27.8239 C   0  0  0  0  0  0  0  0  0  0  0  0
    0.9922   -9.3232   16.5995 O   0  0  0  0  0  0  0  0  0  0  0  0
    1.5232   -7.6869   27.1182 C   0  0  0  0  0  0  0  0  0  0  0  0
    8.6878   -6.6715   27.7262 N   0  0  0  0  0  0  0  0  0  0  0  0
    6.9911   -8.2423   27.1808 C   0  0  0  0  0  0  0  0  0  0  0  0
    3.8436   -7.2758   16.0578 C   0  0  0  0  0  0  0  0  0  0  0  0
    3.1882   -9.7190   17.2566 C   0  0  0  0  0  0  0  0  0  0  0  0
    5.3488   -6.1737   26.5092 C   0  0  0  0  0  0  0  0  0  0  0  0
    7.4567   -6.9464   27.2858 C   0  0  0  0  0  0  0  0  0  0  0  0
    0.1921   -5.7592   27.1123 C   0  0  0  0  0  0  0  0  0  0  0  0
    3.5517   -7.7407   25.9711 C   0  0  0  0  0  0  0  0  0  0  0  0
  1  4  4  0
  1 22  4  0
  2 20  4  0
  2 27  4  0
  3 12  4  0
  3 23  4  0
  4 25  4  0
  4 28  1  0
  5  8  4  0
  5 17  4  0
  6  7  4  0
  6 16  4  0
  7 18  4  0
  8 27  4  0
  9 13  4  0
  9 23  4  0
 10 11  1  0
 11 14  2  0
 11 27  1  0
 12 19  1  0
 12 24  4  0
 13 24  4  0
 15 18  1  0
 16 25  4  0
 16 26  4  0
 17 20  4  0
 17 28  1  0
 18 21  4  0
 21 26  4  0
 22 26  4  0
M  END
$$$$

 Created by Python create_sdf_string function

 28 30  0  0  0  0  0  0  0  0999 V2000
    5.7174   -8.4529   26.7190 C   0  0  0  0  0  0  0  0  0  0  0  0
    0.3974   -7.0711   27.5149 C   0  0  0  0  0  0  0  0  0  0  0  0
    2.5338   -7.6891   16.0102 C   0  0  0  0  0  0  0  0  0  0  0  0
    4.8690   -7.4380   26.4151 C   0  0  0  0  0  0  0  0  0  0  0  0
    2.3021   -5.6726   26.0378 C   0  0  0  0  0  0  0  0  0  0  0  0
    7.0880   -4.6163   27.0010 C   0  0  0  0  0  0  0  0  0  0  0  0
    8.3117   -4.3698   27.4436 C   0  0  0  0  0  0  0  0  0  0  0  0
    1.1339   -5.0515   26.3541 C   0  0  0  0  0  0  0  0  0  0  0  0
    4.8080   -8.0362   16.7101 C   0  0  0  0  0  0  0  0  0  0  0  0
   -1.2173   -3.9294   26.9717 O   0  0  0  0  0  0  0  0  0  0  0  0
   -1.0025   -5.0942   27.4586 C   0  0  0  0  0  0  0  0  0  0  0  0
    2.2474   -8.9123   16.6273 C   0  0  0  0  0  0  0  0  0  0  0  0
    4.4957   -9.2636   17.3041 C   0  0  0  0  0  0  0  0  0  0  0  0
   -1.8070   -5.6086   28.1920 O   0  0  0  0  0  0  0  0  0  0  0  0
   10.4296   -5.1799   28.3140 C   0  0  0  0  0  0  0  0  0  0  0  0
    6.6017   -5.9004   26.9187 C   0  0  0  0  0  0  0  0  0  0  0  0
    2.4761   -6.9940   26.4111 N   0  0  0  0  0  0  0  0  0  0  0  0
    9.1353   -5.4053   27.8239 C   0  0  0  0  0  0  0  0  0  0  0  0
    0.9922   -9.3232   16.5995 O   0  0  0  0  0  0  0  0  0  0  0  0
    1.5232   -7.6869   27.1182 C   0  0  0  0  0  0  0  0  0  0  0  0
    8.6878   -6.6715   27.7262 N   0  0  0  0  0  0  0  0  0  0  0  0
    6.9911   -8.2423   27.1808 C   0  0  0  0  0  0  0  0  0  0  0  0
    3.8436   -7.2758   16.0578 C   0  0  0  0  0  0  0  0  0  0  0  0
    3.1882   -9.7190   17.2566 C   0  0  0  0  0  0  0  0  0  0  0  0
    5.3488   -6.1737   26.5092 C   0  0  0  0  0  0  0  0  0  0  0  0
    7.4567   -6.9464   27.2858 C   0  0  0  0  0  0  0  0  0  0  0  0
    0.1921   -5.7592   27.1123 C   0  0  0  0  0  0  0  0  0  0  0  0
    3.5517   -7.7407   25.9711 C   0  0  0  0  0  0  0  0  0  0  0  0
  1  4  4  0
  1 22  4  0
  2 20  4  0
  2 27  4  0
  3 12  4  0
  3 23  4  0
  4 25  4  0
  4 28  1  0
  5  8  4  0
  5 17  4  0
  6  7  4  0
  6 16  4  0
  7 18  4  0
  8 27  4  0
  9 13  4  0
  9 23  4  0
 10 11  1  0
 11 14  2  0
 11 27  1  0
 12 19  1  0
 12 24  4  0
 13 24  4  0
 15 18  1  0
 16 25  4  0
 16 26  4  0
 17 20  4  0
 17 28  1  0
 18 21  4  0
 21 26  4  0
 22 26  4  0
M  END
$$$$

 Created by Python create_sdf_string function

 28 30  0  0  0  0  0  0  0  0999 V2000
    5.7174   -8.4529   26.7190 C   0  0  0  0  0  0  0  0  0  0  0  0
    0.3974   -7.0711   27.5149 C   0  0  0  0  0  0  0  0  0  0  0  0
    2.5338   -7.6891   16.0102 C   0  0  0  0  0  0  0  0  0  0  0  0
    4.8690   -7.4380   26.4151 C   0  0  0  0  0  0  0  0  0  0  0  0
    2.3021   -5.6726   26.0378 C   0  0  0  0  0  0  0  0  0  0  0  0
    7.0880   -4.6163   27.0010 C   0  0  0  0  0  0  0  0  0  0  0  0
    8.3117   -4.3698   27.4436 C   0  0  0  0  0  0  0  0  0  0  0  0
    1.1339   -5.0515   26.3541 C   0  0  0  0  0  0  0  0  0  0  0  0
    4.8080   -8.0362   16.7101 C   0  0  0  0  0  0  0  0  0  0  0  0
   -1.2173   -3.9294   26.9717 O   0  0  0  0  0  0  0  0  0  0  0  0
   -1.0025   -5.0942   27.4586 C   0  0  0  0  0  0  0  0  0  0  0  0
    2.2474   -8.9123   16.6273 C   0  0  0  0  0  0  0  0  0  0  0  0
    4.4957   -9.2636   17.3041 C   0  0  0  0  0  0  0  0  0  0  0  0
   -1.8070   -5.6086   28.1920 O   0  0  0  0  0  0  0  0  0  0  0  0
   10.4296   -5.1799   28.3140 C   0  0  0  0  0  0  0  0  0  0  0  0
    6.6017   -5.9004   26.9187 C   0  0  0  0  0  0  0  0  0  0  0  0
    2.4761   -6.9940   26.4111 N   0  0  0  0  0  0  0  0  0  0  0  0
    9.1353   -5.4053   27.8239 C   0  0  0  0  0  0  0  0  0  0  0  0
    0.9922   -9.3232   16.5995 O   0  0  0  0  0  0  0  0  0  0  0  0
    1.5232   -7.6869   27.1182 C   0  0  0  0  0  0  0  0  0  0  0  0
    8.6878   -6.6715   27.7262 N   0  0  0  0  0  0  0  0  0  0  0  0
    6.9911   -8.2423   27.1808 C   0  0  0  0  0  0  0  0  0  0  0  0
    3.8436   -7.2758   16.0578 C   0  0  0  0  0  0  0  0  0  0  0  0
    3.1882   -9.7190   17.2566 C   0  0  0  0  0  0  0  0  0  0  0  0
    5.3488   -6.1737   26.5092 C   0  0  0  0  0  0  0  0  0  0  0  0
    7.4567   -6.9464   27.2858 C   0  0  0  0  0  0  0  0  0  0  0  0
    0.1921   -5.7592   27.1123 C   0  0  0  0  0  0  0  0  0  0  0  0
    3.5517   -7.7407   25.9711 C   0  0  0  0  0  0  0  0  0  0  0  0
  1  4  4  0
  1 22  4  0
  2 20  4  0
  2 27  4  0
  3 12  4  0
  3 23  4  0
  4 25  4  0
  4 28  1  0
  5  8  4  0
  5 17  4  0
  6  7  4  0
  6 16  4  0
  7 18  4  0
  8 27  4  0
  9 13  4  0
  9 23  4  0
 10 11  1  0
 11 14  2  0
 11 27  1  0
 12 19  1  0
 12 24  4  0
 13 24  4  0
 15 18  1  0
 16 25  4  0
 16 26  4  0
 17 20  4  0
 17 28  1  0
 18 21  4  0
 21 26  4  0
 22 26  4  0
M  END
$$$$

 Created by Python create_sdf_string function

 28 30  0  0  0  0  0  0  0  0999 V2000
    5.7174   -8.4529   26.7190 C   0  0  0  0  0  0  0  0  0  0  0  0
    0.3974   -7.0711   27.5149 C   0  0  0  0  0  0  0  0  0  0  0  0
    2.5338   -7.6891   16.0102 C   0  0  0  0  0  0  0  0  0  0  0  0
    4.8690   -7.4380   26.4151 C   0  0  0  0  0  0  0  0  0  0  0  0
    2.3021   -5.6726   26.0378 C   0  0  0  0  0  0  0  0  0  0  0  0
    7.0880   -4.6163   27.0010 C   0  0  0  0  0  0  0  0  0  0  0  0
    8.3117   -4.3698   27.4436 C   0  0  0  0  0  0  0  0  0  0  0  0
    1.1339   -5.0515   26.3541 C   0  0  0  0  0  0  0  0  0  0  0  0
    4.8080   -8.0362   16.7101 C   0  0  0  0  0  0  0  0  0  0  0  0
   -1.2173   -3.9294   26.9717 O   0  0  0  0  0  0  0  0  0  0  0  0
   -1.0025   -5.0942   27.4586 C   0  0  0  0  0  0  0  0  0  0  0  0
    2.2474   -8.9123   16.6273 C   0  0  0  0  0  0  0  0  0  0  0  0
    4.4957   -9.2636   17.3041 C   0  0  0  0  0  0  0  0  0  0  0  0
   -1.8070   -5.6086   28.1920 O   0  0  0  0  0  0  0  0  0  0  0  0
   10.4296   -5.1799   28.3140 C   0  0  0  0  0  0  0  0  0  0  0  0
    6.6017   -5.9004   26.9187 C   0  0  0  0  0  0  0  0  0  0  0  0
    2.4761   -6.9940   26.4111 N   0  0  0  0  0  0  0  0  0  0  0  0
    9.1353   -5.4053   27.8239 C   0  0  0  0  0  0  0  0  0  0  0  0
    0.9922   -9.3232   16.5995 O   0  0  0  0  0  0  0  0  0  0  0  0
    1.5232   -7.6869   27.1182 C   0  0  0  0  0  0  0  0  0  0  0  0
    8.6878   -6.6715   27.7262 N   0  0  0  0  0  0  0  0  0  0  0  0
    6.9911   -8.2423   27.1808 C   0  0  0  0  0  0  0  0  0  0  0  0
    3.8436   -7.2758   16.0578 C   0  0  0  0  0  0  0  0  0  0  0  0
    3.1882   -9.7190   17.2566 C   0  0  0  0  0  0  0  0  0  0  0  0
    5.3488   -6.1737   26.5092 C   0  0  0  0  0  0  0  0  0  0  0  0
    7.4567   -6.9464   27.2858 C   0  0  0  0  0  0  0  0  0  0  0  0
    0.1921   -5.7592   27.1123 C   0  0  0  0  0  0  0  0  0  0  0  0
    3.5517   -7.7407   25.9711 C   0  0  0  0  0  0  0  0  0  0  0  0
  1  4  4  0
  1 22  4  0
  2 20  4  0
  2 27  4  0
  3 12  4  0
  3 23  4  0
  4 25  4  0
  4 28  1  0
  5  8  4  0
  5 17  4  0
  6  7  4  0
  6 16  4  0
  7 18  4  0
  8 27  4  0
  9 13  4  0
  9 23  4  0
 10 11  1  0
 11 14  2  0
 11 27  1  0
 12 19  1  0
 12 24  4  0
 13 24  4  0
 15 18  1  0
 16 25  4  0
 16 26  4  0
 17 20  4  0
 17 28  1  0
 18 21  4  0
 21 26  4  0
 22 26  4  0
M  END
$$$$

 Created by Python create_sdf_string function

 28 30  0  0  0  0  0  0  0  0999 V2000
    5.7174   -8.4529   26.7190 C   0  0  0  0  0  0  0  0  0  0  0  0
    0.3974   -7.0711   27.5149 C   0  0  0  0  0  0  0  0  0  0  0  0
    2.5338   -7.6891   16.0102 C   0  0  0  0  0  0  0  0  0  0  0  0
    4.8690   -7.4380   26.4151 C   0  0  0  0  0  0  0  0  0  0  0  0
    2.3021   -5.6726   26.0378 C   0  0  0  0  0  0  0  0  0  0  0  0
    7.0880   -4.6163   27.0010 C   0  0  0  0  0  0  0  0  0  0  0  0
    8.3117   -4.3698   27.4436 C   0  0  0  0  0  0  0  0  0  0  0  0
    1.1339   -5.0515   26.3541 C   0  0  0  0  0  0  0  0  0  0  0  0
    4.8080   -8.0362   16.7101 C   0  0  0  0  0  0  0  0  0  0  0  0
   -1.2173   -3.9294   26.9717 O   0  0  0  0  0  0  0  0  0  0  0  0
   -1.0025   -5.0942   27.4586 C   0  0  0  0  0  0  0  0  0  0  0  0
    2.2474   -8.9123   16.6273 C   0  0  0  0  0  0  0  0  0  0  0  0
    4.4957   -9.2636   17.3041 C   0  0  0  0  0  0  0  0  0  0  0  0
   -1.8070   -5.6086   28.1920 O   0  0  0  0  0  0  0  0  0  0  0  0
   10.4296   -5.1799   28.3140 C   0  0  0  0  0  0  0  0  0  0  0  0
    6.6017   -5.9004   26.9187 C   0  0  0  0  0  0  0  0  0  0  0  0
    2.4761   -6.9940   26.4111 N   0  0  0  0  0  0  0  0  0  0  0  0
    9.1353   -5.4053   27.8239 C   0  0  0  0  0  0  0  0  0  0  0  0
    0.9922   -9.3232   16.5995 O   0  0  0  0  0  0  0  0  0  0  0  0
    1.5232   -7.6869   27.1182 C   0  0  0  0  0  0  0  0  0  0  0  0
    8.6878   -6.6715   27.7262 N   0  0  0  0  0  0  0  0  0  0  0  0
    6.9911   -8.2423   27.1808 C   0  0  0  0  0  0  0  0  0  0  0  0
    3.8436   -7.2758   16.0578 C   0  0  0  0  0  0  0  0  0  0  0  0
    3.1882   -9.7190   17.2566 C   0  0  0  0  0  0  0  0  0  0  0  0
    5.3488   -6.1737   26.5092 C   0  0  0  0  0  0  0  0  0  0  0  0
    7.4567   -6.9464   27.2858 C   0  0  0  0  0  0  0  0  0  0  0  0
    0.1921   -5.7592   27.1123 C   0  0  0  0  0  0  0  0  0  0  0  0
    3.5517   -7.7407   25.9711 C   0  0  0  0  0  0  0  0  0  0  0  0
  1  4  4  0
  1 22  4  0
  2 20  4  0
  2 27  4  0
  3 12  4  0
  3 23  4  0
  4 25  4  0
  4 28  1  0
  5  8  4  0
  5 17  4  0
  6  7  4  0
  6 16  4  0
  7 18  4  0
  8 27  4  0
  9 13  4  0
  9 23  4  0
 10 11  1  0
 11 14  2  0
 11 27  1  0
 12 19  1  0
 12 24  4  0
 13 24  4  0
 15 18  1  0
 16 25  4  0
 16 26  4  0
 17 20  4  0
 17 28  1  0
 18 21  4  0
 21 26  4  0
 22 26  4  0
M  END
$$$$

 Created by Python create_sdf_string function

 28 30  0  0  0  0  0  0  0  0999 V2000
    5.7174   -8.4529   26.7190 C   0  0  0  0  0  0  0  0  0  0  0  0
    0.3974   -7.0711   27.5149 C   0  0  0  0  0  0  0  0  0  0  0  0
    2.5338   -7.6891   16.0102 C   0  0  0  0  0  0  0  0  0  0  0  0
    4.8690   -7.4380   26.4151 C   0  0  0  0  0  0  0  0  0  0  0  0
    2.3021   -5.6726   26.0378 C   0  0  0  0  0  0  0  0  0  0  0  0
    7.0880   -4.6163   27.0010 C   0  0  0  0  0  0  0  0  0  0  0  0
    8.3117   -4.3698   27.4436 C   0  0  0  0  0  0  0  0  0  0  0  0
    1.1339   -5.0515   26.3541 C   0  0  0  0  0  0  0  0  0  0  0  0
    4.8080   -8.0362   16.7101 C   0  0  0  0  0  0  0  0  0  0  0  0
   -1.2173   -3.9294   26.9717 O   0  0  0  0  0  0  0  0  0  0  0  0
   -1.0025   -5.0942   27.4586 C   0  0  0  0  0  0  0  0  0  0  0  0
    2.2474   -8.9123   16.6273 C   0  0  0  0  0  0  0  0  0  0  0  0
    4.4957   -9.2636   17.3041 C   0  0  0  0  0  0  0  0  0  0  0  0
   -1.8070   -5.6086   28.1920 O   0  0  0  0  0  0  0  0  0  0  0  0
   10.4296   -5.1799   28.3140 C   0  0  0  0  0  0  0  0  0  0  0  0
    6.6017   -5.9004   26.9187 C   0  0  0  0  0  0  0  0  0  0  0  0
    2.4761   -6.9940   26.4111 N   0  0  0  0  0  0  0  0  0  0  0  0
    9.1353   -5.4053   27.8239 C   0  0  0  0  0  0  0  0  0  0  0  0
    0.9922   -9.3232   16.5995 O   0  0  0  0  0  0  0  0  0  0  0  0
    1.5232   -7.6869   27.1182 C   0  0  0  0  0  0  0  0  0  0  0  0
    8.6878   -6.6715   27.7262 N   0  0  0  0  0  0  0  0  0  0  0  0
    6.9911   -8.2423   27.1808 C   0  0  0  0  0  0  0  0  0  0  0  0
    3.8436   -7.2758   16.0578 C   0  0  0  0  0  0  0  0  0  0  0  0
    3.1882   -9.7190   17.2566 C   0  0  0  0  0  0  0  0  0  0  0  0
    5.3488   -6.1737   26.5092 C   0  0  0  0  0  0  0  0  0  0  0  0
    7.4567   -6.9464   27.2858 C   0  0  0  0  0  0  0  0  0  0  0  0
    0.1921   -5.7592   27.1123 C   0  0  0  0  0  0  0  0  0  0  0  0
    3.5517   -7.7407   25.9711 C   0  0  0  0  0  0  0  0  0  0  0  0
  1  4  4  0
  1 22  4  0
  2 20  4  0
  2 27  4  0
  3 12  4  0
  3 23  4  0
  4 25  4  0
  4 28  1  0
  5  8  4  0
  5 17  4  0
  6  7  4  0
  6 16  4  0
  7 18  4  0
  8 27  4  0
  9 13  4  0
  9 23  4  0
 10 11  1  0
 11 14  2  0
 11 27  1  0
 12 19  1  0
 12 24  4  0
 13 24  4  0
 15 18  1  0
 16 25  4  0
 16 26  4  0
 17 20  4  0
 17 28  1  0
 18 21  4  0
 21 26  4  0
 22 26  4  0
M  END
$$$$

 Created by Python create_sdf_string function

 28 30  0  0  0  0  0  0  0  0999 V2000
    5.7174   -8.4529   26.7190 C   0  0  0  0  0  0  0  0  0  0  0  0
    0.3974   -7.0711   27.5149 C   0  0  0  0  0  0  0  0  0  0  0  0
    2.5338   -7.6891   16.0102 C   0  0  0  0  0  0  0  0  0  0  0  0
    4.8690   -7.4380   26.4151 C   0  0  0  0  0  0  0  0  0  0  0  0
    2.3021   -5.6726   26.0378 C   0  0  0  0  0  0  0  0  0  0  0  0
    7.0880   -4.6163   27.0010 C   0  0  0  0  0  0  0  0  0  0  0  0
    8.3117   -4.3698   27.4436 C   0  0  0  0  0  0  0  0  0  0  0  0
    1.1339   -5.0515   26.3541 C   0  0  0  0  0  0  0  0  0  0  0  0
    4.8080   -8.0362   16.7101 C   0  0  0  0  0  0  0  0  0  0  0  0
   -1.2173   -3.9294   26.9717 O   0  0  0  0  0  0  0  0  0  0  0  0
   -1.0025   -5.0942   27.4586 C   0  0  0  0  0  0  0  0  0  0  0  0
    2.2474   -8.9123   16.6273 C   0  0  0  0  0  0  0  0  0  0  0  0
    4.4957   -9.2636   17.3041 C   0  0  0  0  0  0  0  0  0  0  0  0
   -1.8070   -5.6086   28.1920 O   0  0  0  0  0  0  0  0  0  0  0  0
   10.4296   -5.1799   28.3140 C   0  0  0  0  0  0  0  0  0  0  0  0
    6.6017   -5.9004   26.9187 C   0  0  0  0  0  0  0  0  0  0  0  0
    2.4761   -6.9940   26.4111 N   0  0  0  0  0  0  0  0  0  0  0  0
    9.1353   -5.4053   27.8239 C   0  0  0  0  0  0  0  0  0  0  0  0
    0.9922   -9.3232   16.5995 O   0  0  0  0  0  0  0  0  0  0  0  0
    1.5232   -7.6869   27.1182 C   0  0  0  0  0  0  0  0  0  0  0  0
    8.6878   -6.6715   27.7262 N   0  0  0  0  0  0  0  0  0  0  0  0
    6.9911   -8.2423   27.1808 C   0  0  0  0  0  0  0  0  0  0  0  0
    3.8436   -7.2758   16.0578 C   0  0  0  0  0  0  0  0  0  0  0  0
    3.1882   -9.7190   17.2566 C   0  0  0  0  0  0  0  0  0  0  0  0
    5.3488   -6.1737   26.5092 C   0  0  0  0  0  0  0  0  0  0  0  0
    7.4567   -6.9464   27.2858 C   0  0  0  0  0  0  0  0  0  0  0  0
    0.1921   -5.7592   27.1123 C   0  0  0  0  0  0  0  0  0  0  0  0
    3.5517   -7.7407   25.9711 C   0  0  0  0  0  0  0  0  0  0  0  0
  1  4  4  0
  1 22  4  0
  2 20  4  0
  2 27  4  0
  3 12  4  0
  3 23  4  0
  4 25  4  0
  4 28  1  0
  5  8  4  0
  5 17  4  0
  6  7  4  0
  6 16  4  0
  7 18  4  0
  8 27  4  0
  9 13  4  0
  9 23  4  0
 10 11  1  0
 11 14  2  0
 11 27  1  0
 12 19  1  0
 12 24  4  0
 13 24  4  0
 15 18  1  0
 16 25  4  0
 16 26  4  0
 17 20  4  0
 17 28  1  0
 18 21  4  0
 21 26  4  0
 22 26  4  0
M  END
$$$$

 Created by Python create_sdf_string function

 28 30  0  0  0  0  0  0  0  0999 V2000
    5.7174   -8.4529   26.7190 C   0  0  0  0  0  0  0  0  0  0  0  0
    0.3974   -7.0711   27.5149 C   0  0  0  0  0  0  0  0  0  0  0  0
    2.5338   -7.6891   16.0102 C   0  0  0  0  0  0  0  0  0  0  0  0
    4.8690   -7.4380   26.4151 C   0  0  0  0  0  0  0  0  0  0  0  0
    2.3021   -5.6726   26.0378 C   0  0  0  0  0  0  0  0  0  0  0  0
    7.0880   -4.6163   27.0010 C   0  0  0  0  0  0  0  0  0  0  0  0
    8.3117   -4.3698   27.4436 C   0  0  0  0  0  0  0  0  0  0  0  0
    1.1339   -5.0515   26.3541 C   0  0  0  0  0  0  0  0  0  0  0  0
    4.8080   -8.0362   16.7101 C   0  0  0  0  0  0  0  0  0  0  0  0
   -1.2173   -3.9294   26.9717 O   0  0  0  0  0  0  0  0  0  0  0  0
   -1.0025   -5.0942   27.4586 C   0  0  0  0  0  0  0  0  0  0  0  0
    2.2474   -8.9123   16.6273 C   0  0  0  0  0  0  0  0  0  0  0  0
    4.4957   -9.2636   17.3041 C   0  0  0  0  0  0  0  0  0  0  0  0
   -1.8070   -5.6086   28.1920 O   0  0  0  0  0  0  0  0  0  0  0  0
   10.4296   -5.1799   28.3140 C   0  0  0  0  0  0  0  0  0  0  0  0
    6.6017   -5.9004   26.9187 C   0  0  0  0  0  0  0  0  0  0  0  0
    2.4761   -6.9940   26.4111 N   0  0  0  0  0  0  0  0  0  0  0  0
    9.1353   -5.4053   27.8239 C   0  0  0  0  0  0  0  0  0  0  0  0
    0.9922   -9.3232   16.5995 O   0  0  0  0  0  0  0  0  0  0  0  0
    1.5232   -7.6869   27.1182 C   0  0  0  0  0  0  0  0  0  0  0  0
    8.6878   -6.6715   27.7262 N   0  0  0  0  0  0  0  0  0  0  0  0
    6.9911   -8.2423   27.1808 C   0  0  0  0  0  0  0  0  0  0  0  0
    3.8436   -7.2758   16.0578 C   0  0  0  0  0  0  0  0  0  0  0  0
    3.1882   -9.7190   17.2566 C   0  0  0  0  0  0  0  0  0  0  0  0
    5.3488   -6.1737   26.5092 C   0  0  0  0  0  0  0  0  0  0  0  0
    7.4567   -6.9464   27.2858 C   0  0  0  0  0  0  0  0  0  0  0  0
    0.1921   -5.7592   27.1123 C   0  0  0  0  0  0  0  0  0  0  0  0
    3.5517   -7.7407   25.9711 C   0  0  0  0  0  0  0  0  0  0  0  0
  1  4  4  0
  1 22  4  0
  2 20  4  0
  2 27  4  0
  3 12  4  0
  3 23  4  0
  4 25  4  0
  4 28  1  0
  5  8  4  0
  5 17  4  0
  6  7  4  0
  6 16  4  0
  7 18  4  0
  8 27  4  0
  9 13  4  0
  9 23  4  0
 10 11  1  0
 11 14  2  0
 11 27  1  0
 12 19  1  0
 12 24  4  0
 13 24  4  0
 15 18  1  0
 16 25  4  0
 16 26  4  0
 17 20  4  0
 17 28  1  0
 18 21  4  0
 21 26  4  0
 22 26  4  0
M  END
$$$$

 Created by Python create_sdf_string function

 28 30  0  0  0  0  0  0  0  0999 V2000
    5.7174   -8.4529   26.7190 C   0  0  0  0  0  0  0  0  0  0  0  0
    0.3974   -7.0711   27.5149 C   0  0  0  0  0  0  0  0  0  0  0  0
    2.5338   -7.6891   16.0102 C   0  0  0  0  0  0  0  0  0  0  0  0
    4.8690   -7.4380   26.4151 C   0  0  0  0  0  0  0  0  0  0  0  0
    2.3021   -5.6726   26.0378 C   0  0  0  0  0  0  0  0  0  0  0  0
    7.0880   -4.6163   27.0010 C   0  0  0  0  0  0  0  0  0  0  0  0
    8.3117   -4.3698   27.4436 C   0  0  0  0  0  0  0  0  0  0  0  0
    1.1339   -5.0515   26.3541 C   0  0  0  0  0  0  0  0  0  0  0  0
    4.8080   -8.0362   16.7101 C   0  0  0  0  0  0  0  0  0  0  0  0
   -1.2173   -3.9294   26.9717 O   0  0  0  0  0  0  0  0  0  0  0  0
   -1.0025   -5.0942   27.4586 C   0  0  0  0  0  0  0  0  0  0  0  0
    2.2474   -8.9123   16.6273 C   0  0  0  0  0  0  0  0  0  0  0  0
    4.4957   -9.2636   17.3041 C   0  0  0  0  0  0  0  0  0  0  0  0
   -1.8070   -5.6086   28.1920 O   0  0  0  0  0  0  0  0  0  0  0  0
   10.4296   -5.1799   28.3140 C   0  0  0  0  0  0  0  0  0  0  0  0
    6.6017   -5.9004   26.9187 C   0  0  0  0  0  0  0  0  0  0  0  0
    2.4761   -6.9940   26.4111 N   0  0  0  0  0  0  0  0  0  0  0  0
    9.1353   -5.4053   27.8239 C   0  0  0  0  0  0  0  0  0  0  0  0
    0.9922   -9.3232   16.5995 O   0  0  0  0  0  0  0  0  0  0  0  0
    1.5232   -7.6869   27.1182 C   0  0  0  0  0  0  0  0  0  0  0  0
    8.6878   -6.6715   27.7262 N   0  0  0  0  0  0  0  0  0  0  0  0
    6.9911   -8.2423   27.1808 C   0  0  0  0  0  0  0  0  0  0  0  0
    3.8436   -7.2758   16.0578 C   0  0  0  0  0  0  0  0  0  0  0  0
    3.1882   -9.7190   17.2566 C   0  0  0  0  0  0  0  0  0  0  0  0
    5.3488   -6.1737   26.5092 C   0  0  0  0  0  0  0  0  0  0  0  0
    7.4567   -6.9464   27.2858 C   0  0  0  0  0  0  0  0  0  0  0  0
    0.1921   -5.7592   27.1123 C   0  0  0  0  0  0  0  0  0  0  0  0
    3.5517   -7.7407   25.9711 C   0  0  0  0  0  0  0  0  0  0  0  0
  1  4  4  0
  1 22  4  0
  2 20  4  0
  2 27  4  0
  3 12  4  0
  3 23  4  0
  4 25  4  0
  4 28  1  0
  5  8  4  0
  5 17  4  0
  6  7  4  0
  6 16  4  0
  7 18  4  0
  8 27  4  0
  9 13  4  0
  9 23  4  0
 10 11  1  0
 11 14  2  0
 11 27  1  0
 12 19  1  0
 12 24  4  0
 13 24  4  0
 15 18  1  0
 16 25  4  0
 16 26  4  0
 17 20  4  0
 17 28  1  0
 18 21  4  0
 21 26  4  0
 22 26  4  0
M  END
$$$$

 Created by Python create_sdf_string function

 28 30  0  0  0  0  0  0  0  0999 V2000
    5.7174   -8.4529   26.7190 C   0  0  0  0  0  0  0  0  0  0  0  0
    0.3974   -7.0711   27.5149 C   0  0  0  0  0  0  0  0  0  0  0  0
    2.5338   -7.6891   16.0102 C   0  0  0  0  0  0  0  0  0  0  0  0
    4.8690   -7.4380   26.4151 C   0  0  0  0  0  0  0  0  0  0  0  0
    2.3021   -5.6726   26.0378 C   0  0  0  0  0  0  0  0  0  0  0  0
    7.0880   -4.6163   27.0010 C   0  0  0  0  0  0  0  0  0  0  0  0
    8.3117   -4.3698   27.4436 C   0  0  0  0  0  0  0  0  0  0  0  0
    1.1339   -5.0515   26.3541 C   0  0  0  0  0  0  0  0  0  0  0  0
    4.8080   -8.0362   16.7101 C   0  0  0  0  0  0  0  0  0  0  0  0
   -1.2173   -3.9294   26.9717 O   0  0  0  0  0  0  0  0  0  0  0  0
   -1.0025   -5.0942   27.4586 C   0  0  0  0  0  0  0  0  0  0  0  0
    2.2474   -8.9123   16.6273 C   0  0  0  0  0  0  0  0  0  0  0  0
    4.4957   -9.2636   17.3041 C   0  0  0  0  0  0  0  0  0  0  0  0
   -1.8070   -5.6086   28.1920 O   0  0  0  0  0  0  0  0  0  0  0  0
   10.4296   -5.1799   28.3140 C   0  0  0  0  0  0  0  0  0  0  0  0
    6.6017   -5.9004   26.9187 C   0  0  0  0  0  0  0  0  0  0  0  0
    2.4761   -6.9940   26.4111 N   0  0  0  0  0  0  0  0  0  0  0  0
    9.1353   -5.4053   27.8239 C   0  0  0  0  0  0  0  0  0  0  0  0
    0.9922   -9.3232   16.5995 O   0  0  0  0  0  0  0  0  0  0  0  0
    1.5232   -7.6869   27.1182 C   0  0  0  0  0  0  0  0  0  0  0  0
    8.6878   -6.6715   27.7262 N   0  0  0  0  0  0  0  0  0  0  0  0
    6.9911   -8.2423   27.1808 C   0  0  0  0  0  0  0  0  0  0  0  0
    3.8436   -7.2758   16.0578 C   0  0  0  0  0  0  0  0  0  0  0  0
    3.1882   -9.7190   17.2566 C   0  0  0  0  0  0  0  0  0  0  0  0
    5.3488   -6.1737   26.5092 C   0  0  0  0  0  0  0  0  0  0  0  0
    7.4567   -6.9464   27.2858 C   0  0  0  0  0  0  0  0  0  0  0  0
    0.1921   -5.7592   27.1123 C   0  0  0  0  0  0  0  0  0  0  0  0
    3.5517   -7.7407   25.9711 C   0  0  0  0  0  0  0  0  0  0  0  0
  1  4  4  0
  1 22  4  0
  2 20  4  0
  2 27  4  0
  3 12  4  0
  3 23  4  0
  4 25  4  0
  4 28  1  0
  5  8  4  0
  5 17  4  0
  6  7  4  0
  6 16  4  0
  7 18  4  0
  8 27  4  0
  9 13  4  0
  9 23  4  0
 10 11  1  0
 11 14  2  0
 11 27  1  0
 12 19  1  0
 12 24  4  0
 13 24  4  0
 15 18  1  0
 16 25  4  0
 16 26  4  0
 17 20  4  0
 17 28  1  0
 18 21  4  0
 21 26  4  0
 22 26  4  0
M  END
$$$$

 Created by Python create_sdf_string function

 28 30  0  0  0  0  0  0  0  0999 V2000
    5.7174   -8.4529   26.7190 C   0  0  0  0  0  0  0  0  0  0  0  0
    0.3974   -7.0711   27.5149 C   0  0  0  0  0  0  0  0  0  0  0  0
    2.5338   -7.6891   16.0102 C   0  0  0  0  0  0  0  0  0  0  0  0
    4.8690   -7.4380   26.4151 C   0  0  0  0  0  0  0  0  0  0  0  0
    2.3021   -5.6726   26.0378 C   0  0  0  0  0  0  0  0  0  0  0  0
    7.0880   -4.6163   27.0010 C   0  0  0  0  0  0  0  0  0  0  0  0
    8.3117   -4.3698   27.4436 C   0  0  0  0  0  0  0  0  0  0  0  0
    1.1339   -5.0515   26.3541 C   0  0  0  0  0  0  0  0  0  0  0  0
    4.8080   -8.0362   16.7101 C   0  0  0  0  0  0  0  0  0  0  0  0
   -1.2173   -3.9294   26.9717 O   0  0  0  0  0  0  0  0  0  0  0  0
   -1.0025   -5.0942   27.4586 C   0  0  0  0  0  0  0  0  0  0  0  0
    2.2474   -8.9123   16.6273 C   0  0  0  0  0  0  0  0  0  0  0  0
    4.4957   -9.2636   17.3041 C   0  0  0  0  0  0  0  0  0  0  0  0
   -1.8070   -5.6086   28.1920 O   0  0  0  0  0  0  0  0  0  0  0  0
   10.4296   -5.1799   28.3140 C   0  0  0  0  0  0  0  0  0  0  0  0
    6.6017   -5.9004   26.9187 C   0  0  0  0  0  0  0  0  0  0  0  0
    2.4761   -6.9940   26.4111 N   0  0  0  0  0  0  0  0  0  0  0  0
    9.1353   -5.4053   27.8239 C   0  0  0  0  0  0  0  0  0  0  0  0
    0.9922   -9.3232   16.5995 O   0  0  0  0  0  0  0  0  0  0  0  0
    1.5232   -7.6869   27.1182 C   0  0  0  0  0  0  0  0  0  0  0  0
    8.6878   -6.6715   27.7262 N   0  0  0  0  0  0  0  0  0  0  0  0
    6.9911   -8.2423   27.1808 C   0  0  0  0  0  0  0  0  0  0  0  0
    3.8436   -7.2758   16.0578 C   0  0  0  0  0  0  0  0  0  0  0  0
    3.1882   -9.7190   17.2566 C   0  0  0  0  0  0  0  0  0  0  0  0
    5.3488   -6.1737   26.5092 C   0  0  0  0  0  0  0  0  0  0  0  0
    7.4567   -6.9464   27.2858 C   0  0  0  0  0  0  0  0  0  0  0  0
    0.1921   -5.7592   27.1123 C   0  0  0  0  0  0  0  0  0  0  0  0
    3.5517   -7.7407   25.9711 C   0  0  0  0  0  0  0  0  0  0  0  0
  1  4  4  0
  1 22  4  0
  2 20  4  0
  2 27  4  0
  3 12  4  0
  3 23  4  0
  4 25  4  0
  4 28  1  0
  5  8  4  0
  5 17  4  0
  6  7  4  0
  6 16  4  0
  7 18  4  0
  8 27  4  0
  9 13  4  0
  9 23  4  0
 10 11  1  0
 11 14  2  0
 11 27  1  0
 12 19  1  0
 12 24  4  0
 13 24  4  0
 15 18  1  0
 16 25  4  0
 16 26  4  0
 17 20  4  0
 17 28  1  0
 18 21  4  0
 21 26  4  0
 22 26  4  0
M  END
$$$$

 Created by Python create_sdf_string function

 28 30  0  0  0  0  0  0  0  0999 V2000
    5.7174   -8.4529   26.7190 C   0  0  0  0  0  0  0  0  0  0  0  0
    0.3974   -7.0711   27.5149 C   0  0  0  0  0  0  0  0  0  0  0  0
    2.5338   -7.6891   16.0102 C   0  0  0  0  0  0  0  0  0  0  0  0
    4.8690   -7.4380   26.4151 C   0  0  0  0  0  0  0  0  0  0  0  0
    2.3021   -5.6726   26.0378 C   0  0  0  0  0  0  0  0  0  0  0  0
    7.0880   -4.6163   27.0010 C   0  0  0  0  0  0  0  0  0  0  0  0
    8.3117   -4.3698   27.4436 C   0  0  0  0  0  0  0  0  0  0  0  0
    1.1339   -5.0515   26.3541 C   0  0  0  0  0  0  0  0  0  0  0  0
    4.8080   -8.0362   16.7101 C   0  0  0  0  0  0  0  0  0  0  0  0
   -1.2173   -3.9294   26.9717 O   0  0  0  0  0  0  0  0  0  0  0  0
   -1.0025   -5.0942   27.4586 C   0  0  0  0  0  0  0  0  0  0  0  0
    2.2474   -8.9123   16.6273 C   0  0  0  0  0  0  0  0  0  0  0  0
    4.4957   -9.2636   17.3041 C   0  0  0  0  0  0  0  0  0  0  0  0
   -1.8070   -5.6086   28.1920 O   0  0  0  0  0  0  0  0  0  0  0  0
   10.4296   -5.1799   28.3140 C   0  0  0  0  0  0  0  0  0  0  0  0
    6.6017   -5.9004   26.9187 C   0  0  0  0  0  0  0  0  0  0  0  0
    2.4761   -6.9940   26.4111 N   0  0  0  0  0  0  0  0  0  0  0  0
    9.1353   -5.4053   27.8239 C   0  0  0  0  0  0  0  0  0  0  0  0
    0.9922   -9.3232   16.5995 O   0  0  0  0  0  0  0  0  0  0  0  0
    1.5232   -7.6869   27.1182 C   0  0  0  0  0  0  0  0  0  0  0  0
    8.6878   -6.6715   27.7262 N   0  0  0  0  0  0  0  0  0  0  0  0
    6.9911   -8.2423   27.1808 C   0  0  0  0  0  0  0  0  0  0  0  0
    3.8436   -7.2758   16.0578 C   0  0  0  0  0  0  0  0  0  0  0  0
    3.1882   -9.7190   17.2566 C   0  0  0  0  0  0  0  0  0  0  0  0
    5.3488   -6.1737   26.5092 C   0  0  0  0  0  0  0  0  0  0  0  0
    7.4567   -6.9464   27.2858 C   0  0  0  0  0  0  0  0  0  0  0  0
    0.1921   -5.7592   27.1123 C   0  0  0  0  0  0  0  0  0  0  0  0
    3.5517   -7.7407   25.9711 C   0  0  0  0  0  0  0  0  0  0  0  0
  1  4  4  0
  1 22  4  0
  2 20  4  0
  2 27  4  0
  3 12  4  0
  3 23  4  0
  4 25  4  0
  4 28  1  0
  5  8  4  0
  5 17  4  0
  6  7  4  0
  6 16  4  0
  7 18  4  0
  8 27  4  0
  9 13  4  0
  9 23  4  0
 10 11  1  0
 11 14  2  0
 11 27  1  0
 12 19  1  0
 12 24  4  0
 13 24  4  0
 15 18  1  0
 16 25  4  0
 16 26  4  0
 17 20  4  0
 17 28  1  0
 18 21  4  0
 21 26  4  0
 22 26  4  0
M  END
$$$$

 Created by Python create_sdf_string function

 28 30  0  0  0  0  0  0  0  0999 V2000
    5.7174   -8.4529   26.7190 C   0  0  0  0  0  0  0  0  0  0  0  0
    0.3974   -7.0711   27.5149 C   0  0  0  0  0  0  0  0  0  0  0  0
    2.5338   -7.6891   16.0102 C   0  0  0  0  0  0  0  0  0  0  0  0
    4.8690   -7.4380   26.4151 C   0  0  0  0  0  0  0  0  0  0  0  0
    2.3021   -5.6726   26.0378 C   0  0  0  0  0  0  0  0  0  0  0  0
    7.0880   -4.6163   27.0010 C   0  0  0  0  0  0  0  0  0  0  0  0
    8.3117   -4.3698   27.4436 C   0  0  0  0  0  0  0  0  0  0  0  0
    1.1339   -5.0515   26.3541 C   0  0  0  0  0  0  0  0  0  0  0  0
    4.8080   -8.0362   16.7101 C   0  0  0  0  0  0  0  0  0  0  0  0
   -1.2173   -3.9294   26.9717 O   0  0  0  0  0  0  0  0  0  0  0  0
   -1.0025   -5.0942   27.4586 C   0  0  0  0  0  0  0  0  0  0  0  0
    2.2474   -8.9123   16.6273 C   0  0  0  0  0  0  0  0  0  0  0  0
    4.4957   -9.2636   17.3041 C   0  0  0  0  0  0  0  0  0  0  0  0
   -1.8070   -5.6086   28.1920 O   0  0  0  0  0  0  0  0  0  0  0  0
   10.4296   -5.1799   28.3140 C   0  0  0  0  0  0  0  0  0  0  0  0
    6.6017   -5.9004   26.9187 C   0  0  0  0  0  0  0  0  0  0  0  0
    2.4761   -6.9940   26.4111 N   0  0  0  0  0  0  0  0  0  0  0  0
    9.1353   -5.4053   27.8239 C   0  0  0  0  0  0  0  0  0  0  0  0
    0.9922   -9.3232   16.5995 O   0  0  0  0  0  0  0  0  0  0  0  0
    1.5232   -7.6869   27.1182 C   0  0  0  0  0  0  0  0  0  0  0  0
    8.6878   -6.6715   27.7262 N   0  0  0  0  0  0  0  0  0  0  0  0
    6.9911   -8.2423   27.1808 C   0  0  0  0  0  0  0  0  0  0  0  0
    3.8436   -7.2758   16.0578 C   0  0  0  0  0  0  0  0  0  0  0  0
    3.1882   -9.7190   17.2566 C   0  0  0  0  0  0  0  0  0  0  0  0
    5.3488   -6.1737   26.5092 C   0  0  0  0  0  0  0  0  0  0  0  0
    7.4567   -6.9464   27.2858 C   0  0  0  0  0  0  0  0  0  0  0  0
    0.1921   -5.7592   27.1123 C   0  0  0  0  0  0  0  0  0  0  0  0
    3.5517   -7.7407   25.9711 C   0  0  0  0  0  0  0  0  0  0  0  0
  1  4  4  0
  1 22  4  0
  2 20  4  0
  2 27  4  0
  3 12  4  0
  3 23  4  0
  4 25  4  0
  4 28  1  0
  5  8  4  0
  5 17  4  0
  6  7  4  0
  6 16  4  0
  7 18  4  0
  8 27  4  0
  9 13  4  0
  9 23  4  0
 10 11  1  0
 11 14  2  0
 11 27  1  0
 12 19  1  0
 12 24  4  0
 13 24  4  0
 15 18  1  0
 16 25  4  0
 16 26  4  0
 17 20  4  0
 17 28  1  0
 18 21  4  0
 21 26  4  0
 22 26  4  0
M  END
$$$$

 Created by Python create_sdf_string function

 28 30  0  0  0  0  0  0  0  0999 V2000
    5.7174   -8.4529   26.7190 C   0  0  0  0  0  0  0  0  0  0  0  0
    0.3974   -7.0711   27.5149 C   0  0  0  0  0  0  0  0  0  0  0  0
    2.5338   -7.6891   16.0102 C   0  0  0  0  0  0  0  0  0  0  0  0
    4.8690   -7.4380   26.4151 C   0  0  0  0  0  0  0  0  0  0  0  0
    2.3021   -5.6726   26.0378 C   0  0  0  0  0  0  0  0  0  0  0  0
    7.0880   -4.6163   27.0010 C   0  0  0  0  0  0  0  0  0  0  0  0
    8.3117   -4.3698   27.4436 C   0  0  0  0  0  0  0  0  0  0  0  0
    1.1339   -5.0515   26.3541 C   0  0  0  0  0  0  0  0  0  0  0  0
    4.8080   -8.0362   16.7101 C   0  0  0  0  0  0  0  0  0  0  0  0
   -1.2173   -3.9294   26.9717 O   0  0  0  0  0  0  0  0  0  0  0  0
   -1.0025   -5.0942   27.4586 C   0  0  0  0  0  0  0  0  0  0  0  0
    2.2474   -8.9123   16.6273 C   0  0  0  0  0  0  0  0  0  0  0  0
    4.4957   -9.2636   17.3041 C   0  0  0  0  0  0  0  0  0  0  0  0
   -1.8070   -5.6086   28.1920 O   0  0  0  0  0  0  0  0  0  0  0  0
   10.4296   -5.1799   28.3140 C   0  0  0  0  0  0  0  0  0  0  0  0
    6.6017   -5.9004   26.9187 C   0  0  0  0  0  0  0  0  0  0  0  0
    2.4761   -6.9940   26.4111 N   0  0  0  0  0  0  0  0  0  0  0  0
    9.1353   -5.4053   27.8239 C   0  0  0  0  0  0  0  0  0  0  0  0
    0.9922   -9.3232   16.5995 O   0  0  0  0  0  0  0  0  0  0  0  0
    1.5232   -7.6869   27.1182 C   0  0  0  0  0  0  0  0  0  0  0  0
    8.6878   -6.6715   27.7262 N   0  0  0  0  0  0  0  0  0  0  0  0
    6.9911   -8.2423   27.1808 C   0  0  0  0  0  0  0  0  0  0  0  0
    3.8436   -7.2758   16.0578 C   0  0  0  0  0  0  0  0  0  0  0  0
    3.1882   -9.7190   17.2566 C   0  0  0  0  0  0  0  0  0  0  0  0
    5.3488   -6.1737   26.5092 C   0  0  0  0  0  0  0  0  0  0  0  0
    7.4567   -6.9464   27.2858 C   0  0  0  0  0  0  0  0  0  0  0  0
    0.1921   -5.7592   27.1123 C   0  0  0  0  0  0  0  0  0  0  0  0
    3.5517   -7.7407   25.9711 C   0  0  0  0  0  0  0  0  0  0  0  0
  1  4  4  0
  1 22  4  0
  2 20  4  0
  2 27  4  0
  3 12  4  0
  3 23  4  0
  4 25  4  0
  4 28  1  0
  5  8  4  0
  5 17  4  0
  6  7  4  0
  6 16  4  0
  7 18  4  0
  8 27  4  0
  9 13  4  0
  9 23  4  0
 10 11  1  0
 11 14  2  0
 11 27  1  0
 12 19  1  0
 12 24  4  0
 13 24  4  0
 15 18  1  0
 16 25  4  0
 16 26  4  0
 17 20  4  0
 17 28  1  0
 18 21  4  0
 21 26  4  0
 22 26  4  0
M  END
$$$$

 Created by Python create_sdf_string function

 28 30  0  0  0  0  0  0  0  0999 V2000
    5.7174   -8.4529   26.7190 C   0  0  0  0  0  0  0  0  0  0  0  0
    0.3974   -7.0711   27.5149 C   0  0  0  0  0  0  0  0  0  0  0  0
    2.5338   -7.6891   16.0102 C   0  0  0  0  0  0  0  0  0  0  0  0
    4.8690   -7.4380   26.4151 C   0  0  0  0  0  0  0  0  0  0  0  0
    2.3021   -5.6726   26.0378 C   0  0  0  0  0  0  0  0  0  0  0  0
    7.0880   -4.6163   27.0010 C   0  0  0  0  0  0  0  0  0  0  0  0
    8.3117   -4.3698   27.4436 C   0  0  0  0  0  0  0  0  0  0  0  0
    1.1339   -5.0515   26.3541 C   0  0  0  0  0  0  0  0  0  0  0  0
    4.8080   -8.0362   16.7101 C   0  0  0  0  0  0  0  0  0  0  0  0
   -1.2173   -3.9294   26.9717 O   0  0  0  0  0  0  0  0  0  0  0  0
   -1.0025   -5.0942   27.4586 C   0  0  0  0  0  0  0  0  0  0  0  0
    2.2474   -8.9123   16.6273 C   0  0  0  0  0  0  0  0  0  0  0  0
    4.4957   -9.2636   17.3041 C   0  0  0  0  0  0  0  0  0  0  0  0
   -1.8070   -5.6086   28.1920 O   0  0  0  0  0  0  0  0  0  0  0  0
   10.4296   -5.1799   28.3140 C   0  0  0  0  0  0  0  0  0  0  0  0
    6.6017   -5.9004   26.9187 C   0  0  0  0  0  0  0  0  0  0  0  0
    2.4761   -6.9940   26.4111 N   0  0  0  0  0  0  0  0  0  0  0  0
    9.1353   -5.4053   27.8239 C   0  0  0  0  0  0  0  0  0  0  0  0
    0.9922   -9.3232   16.5995 O   0  0  0  0  0  0  0  0  0  0  0  0
    1.5232   -7.6869   27.1182 C   0  0  0  0  0  0  0  0  0  0  0  0
    8.6878   -6.6715   27.7262 N   0  0  0  0  0  0  0  0  0  0  0  0
    6.9911   -8.2423   27.1808 C   0  0  0  0  0  0  0  0  0  0  0  0
    3.8436   -7.2758   16.0578 C   0  0  0  0  0  0  0  0  0  0  0  0
    3.1882   -9.7190   17.2566 C   0  0  0  0  0  0  0  0  0  0  0  0
    5.3488   -6.1737   26.5092 C   0  0  0  0  0  0  0  0  0  0  0  0
    7.4567   -6.9464   27.2858 C   0  0  0  0  0  0  0  0  0  0  0  0
    0.1921   -5.7592   27.1123 C   0  0  0  0  0  0  0  0  0  0  0  0
    3.5517   -7.7407   25.9711 C   0  0  0  0  0  0  0  0  0  0  0  0
  1  4  4  0
  1 22  4  0
  2 20  4  0
  2 27  4  0
  3 12  4  0
  3 23  4  0
  4 25  4  0
  4 28  1  0
  5  8  4  0
  5 17  4  0
  6  7  4  0
  6 16  4  0
  7 18  4  0
  8 27  4  0
  9 13  4  0
  9 23  4  0
 10 11  1  0
 11 14  2  0
 11 27  1  0
 12 19  1  0
 12 24  4  0
 13 24  4  0
 15 18  1  0
 16 25  4  0
 16 26  4  0
 17 20  4  0
 17 28  1  0
 18 21  4  0
 21 26  4  0
 22 26  4  0
M  END
$$$$

 Created by Python create_sdf_string function

 28 30  0  0  0  0  0  0  0  0999 V2000
    5.7174   -8.4529   26.7190 C   0  0  0  0  0  0  0  0  0  0  0  0
    0.3974   -7.0711   27.5149 C   0  0  0  0  0  0  0  0  0  0  0  0
    2.5338   -7.6891   16.0102 C   0  0  0  0  0  0  0  0  0  0  0  0
    4.8690   -7.4380   26.4151 C   0  0  0  0  0  0  0  0  0  0  0  0
    2.3021   -5.6726   26.0378 C   0  0  0  0  0  0  0  0  0  0  0  0
    7.0880   -4.6163   27.0010 C   0  0  0  0  0  0  0  0  0  0  0  0
    8.3117   -4.3698   27.4436 C   0  0  0  0  0  0  0  0  0  0  0  0
    1.1339   -5.0515   26.3541 C   0  0  0  0  0  0  0  0  0  0  0  0
    4.8080   -8.0362   16.7101 C   0  0  0  0  0  0  0  0  0  0  0  0
   -1.2173   -3.9294   26.9717 O   0  0  0  0  0  0  0  0  0  0  0  0
   -1.0025   -5.0942   27.4586 C   0  0  0  0  0  0  0  0  0  0  0  0
    2.2474   -8.9123   16.6273 C   0  0  0  0  0  0  0  0  0  0  0  0
    4.4957   -9.2636   17.3041 C   0  0  0  0  0  0  0  0  0  0  0  0
   -1.8070   -5.6086   28.1920 O   0  0  0  0  0  0  0  0  0  0  0  0
   10.4296   -5.1799   28.3140 C   0  0  0  0  0  0  0  0  0  0  0  0
    6.6017   -5.9004   26.9187 C   0  0  0  0  0  0  0  0  0  0  0  0
    2.4761   -6.9940   26.4111 N   0  0  0  0  0  0  0  0  0  0  0  0
    9.1353   -5.4053   27.8239 C   0  0  0  0  0  0  0  0  0  0  0  0
    0.9922   -9.3232   16.5995 O   0  0  0  0  0  0  0  0  0  0  0  0
    1.5232   -7.6869   27.1182 C   0  0  0  0  0  0  0  0  0  0  0  0
    8.6878   -6.6715   27.7262 N   0  0  0  0  0  0  0  0  0  0  0  0
    6.9911   -8.2423   27.1808 C   0  0  0  0  0  0  0  0  0  0  0  0
    3.8436   -7.2758   16.0578 C   0  0  0  0  0  0  0  0  0  0  0  0
    3.1882   -9.7190   17.2566 C   0  0  0  0  0  0  0  0  0  0  0  0
    5.3488   -6.1737   26.5092 C   0  0  0  0  0  0  0  0  0  0  0  0
    7.4567   -6.9464   27.2858 C   0  0  0  0  0  0  0  0  0  0  0  0
    0.1921   -5.7592   27.1123 C   0  0  0  0  0  0  0  0  0  0  0  0
    3.5517   -7.7407   25.9711 C   0  0  0  0  0  0  0  0  0  0  0  0
  1  4  4  0
  1 22  4  0
  2 20  4  0
  2 27  4  0
  3 12  4  0
  3 23  4  0
  4 25  4  0
  4 28  1  0
  5  8  4  0
  5 17  4  0
  6  7  4  0
  6 16  4  0
  7 18  4  0
  8 27  4  0
  9 13  4  0
  9 23  4  0
 10 11  1  0
 11 14  2  0
 11 27  1  0
 12 19  1  0
 12 24  4  0
 13 24  4  0
 15 18  1  0
 16 25  4  0
 16 26  4  0
 17 20  4  0
 17 28  1  0
 18 21  4  0
 21 26  4  0
 22 26  4  0
M  END
$$$$

 Created by Python create_sdf_string function

 28 30  0  0  0  0  0  0  0  0999 V2000
    5.7174   -8.4529   26.7190 C   0  0  0  0  0  0  0  0  0  0  0  0
    0.3974   -7.0711   27.5149 C   0  0  0  0  0  0  0  0  0  0  0  0
    2.5338   -7.6891   16.0102 C   0  0  0  0  0  0  0  0  0  0  0  0
    4.8690   -7.4380   26.4151 C   0  0  0  0  0  0  0  0  0  0  0  0
    2.3021   -5.6726   26.0378 C   0  0  0  0  0  0  0  0  0  0  0  0
    7.0880   -4.6163   27.0010 C   0  0  0  0  0  0  0  0  0  0  0  0
    8.3117   -4.3698   27.4436 C   0  0  0  0  0  0  0  0  0  0  0  0
    1.1339   -5.0515   26.3541 C   0  0  0  0  0  0  0  0  0  0  0  0
    4.8080   -8.0362   16.7101 C   0  0  0  0  0  0  0  0  0  0  0  0
   -1.2173   -3.9294   26.9717 O   0  0  0  0  0  0  0  0  0  0  0  0
   -1.0025   -5.0942   27.4586 C   0  0  0  0  0  0  0  0  0  0  0  0
    2.2474   -8.9123   16.6273 C   0  0  0  0  0  0  0  0  0  0  0  0
    4.4957   -9.2636   17.3041 C   0  0  0  0  0  0  0  0  0  0  0  0
   -1.8070   -5.6086   28.1920 O   0  0  0  0  0  0  0  0  0  0  0  0
   10.4296   -5.1799   28.3140 C   0  0  0  0  0  0  0  0  0  0  0  0
    6.6017   -5.9004   26.9187 C   0  0  0  0  0  0  0  0  0  0  0  0
    2.4761   -6.9940   26.4111 N   0  0  0  0  0  0  0  0  0  0  0  0
    9.1353   -5.4053   27.8239 C   0  0  0  0  0  0  0  0  0  0  0  0
    0.9922   -9.3232   16.5995 O   0  0  0  0  0  0  0  0  0  0  0  0
    1.5232   -7.6869   27.1182 C   0  0  0  0  0  0  0  0  0  0  0  0
    8.6878   -6.6715   27.7262 N   0  0  0  0  0  0  0  0  0  0  0  0
    6.9911   -8.2423   27.1808 C   0  0  0  0  0  0  0  0  0  0  0  0
    3.8436   -7.2758   16.0578 C   0  0  0  0  0  0  0  0  0  0  0  0
    3.1882   -9.7190   17.2566 C   0  0  0  0  0  0  0  0  0  0  0  0
    5.3488   -6.1737   26.5092 C   0  0  0  0  0  0  0  0  0  0  0  0
    7.4567   -6.9464   27.2858 C   0  0  0  0  0  0  0  0  0  0  0  0
    0.1921   -5.7592   27.1123 C   0  0  0  0  0  0  0  0  0  0  0  0
    3.5517   -7.7407   25.9711 C   0  0  0  0  0  0  0  0  0  0  0  0
  1  4  4  0
  1 22  4  0
  2 20  4  0
  2 27  4  0
  3 12  4  0
  3 23  4  0
  4 25  4  0
  4 28  1  0
  5  8  4  0
  5 17  4  0
  6  7  4  0
  6 16  4  0
  7 18  4  0
  8 27  4  0
  9 13  4  0
  9 23  4  0
 10 11  1  0
 11 14  2  0
 11 27  1  0
 12 19  1  0
 12 24  4  0
 13 24  4  0
 15 18  1  0
 16 25  4  0
 16 26  4  0
 17 20  4  0
 17 28  1  0
 18 21  4  0
 21 26  4  0
 22 26  4  0
M  END
$$$$

 Created by Python create_sdf_string function

 28 30  0  0  0  0  0  0  0  0999 V2000
    5.7174   -8.4529   26.7190 C   0  0  0  0  0  0  0  0  0  0  0  0
    0.3974   -7.0711   27.5149 C   0  0  0  0  0  0  0  0  0  0  0  0
    2.5338   -7.6891   16.0102 C   0  0  0  0  0  0  0  0  0  0  0  0
    4.8690   -7.4380   26.4151 C   0  0  0  0  0  0  0  0  0  0  0  0
    2.3021   -5.6726   26.0378 C   0  0  0  0  0  0  0  0  0  0  0  0
    7.0880   -4.6163   27.0010 C   0  0  0  0  0  0  0  0  0  0  0  0
    8.3117   -4.3698   27.4436 C   0  0  0  0  0  0  0  0  0  0  0  0
    1.1339   -5.0515   26.3541 C   0  0  0  0  0  0  0  0  0  0  0  0
    4.8080   -8.0362   16.7101 C   0  0  0  0  0  0  0  0  0  0  0  0
   -1.2173   -3.9294   26.9717 O   0  0  0  0  0  0  0  0  0  0  0  0
   -1.0025   -5.0942   27.4586 C   0  0  0  0  0  0  0  0  0  0  0  0
    2.2474   -8.9123   16.6273 C   0  0  0  0  0  0  0  0  0  0  0  0
    4.4957   -9.2636   17.3041 C   0  0  0  0  0  0  0  0  0  0  0  0
   -1.8070   -5.6086   28.1920 O   0  0  0  0  0  0  0  0  0  0  0  0
   10.4296   -5.1799   28.3140 C   0  0  0  0  0  0  0  0  0  0  0  0
    6.6017   -5.9004   26.9187 C   0  0  0  0  0  0  0  0  0  0  0  0
    2.4761   -6.9940   26.4111 N   0  0  0  0  0  0  0  0  0  0  0  0
    9.1353   -5.4053   27.8239 C   0  0  0  0  0  0  0  0  0  0  0  0
    0.9922   -9.3232   16.5995 O   0  0  0  0  0  0  0  0  0  0  0  0
    1.5232   -7.6869   27.1182 C   0  0  0  0  0  0  0  0  0  0  0  0
    8.6878   -6.6715   27.7262 N   0  0  0  0  0  0  0  0  0  0  0  0
    6.9911   -8.2423   27.1808 C   0  0  0  0  0  0  0  0  0  0  0  0
    3.8436   -7.2758   16.0578 C   0  0  0  0  0  0  0  0  0  0  0  0
    3.1882   -9.7190   17.2566 C   0  0  0  0  0  0  0  0  0  0  0  0
    5.3488   -6.1737   26.5092 C   0  0  0  0  0  0  0  0  0  0  0  0
    7.4567   -6.9464   27.2858 C   0  0  0  0  0  0  0  0  0  0  0  0
    0.1921   -5.7592   27.1123 C   0  0  0  0  0  0  0  0  0  0  0  0
    3.5517   -7.7407   25.9711 C   0  0  0  0  0  0  0  0  0  0  0  0
  1  4  4  0
  1 22  4  0
  2 20  4  0
  2 27  4  0
  3 12  4  0
  3 23  4  0
  4 25  4  0
  4 28  1  0
  5  8  4  0
  5 17  4  0
  6  7  4  0
  6 16  4  0
  7 18  4  0
  8 27  4  0
  9 13  4  0
  9 23  4  0
 10 11  1  0
 11 14  2  0
 11 27  1  0
 12 19  1  0
 12 24  4  0
 13 24  4  0
 15 18  1  0
 16 25  4  0
 16 26  4  0
 17 20  4  0
 17 28  1  0
 18 21  4  0
 21 26  4  0
 22 26  4  0
M  END
$$$$

 Created by Python create_sdf_string function

 28 30  0  0  0  0  0  0  0  0999 V2000
    5.7174   -8.4529   26.7190 C   0  0  0  0  0  0  0  0  0  0  0  0
    0.3974   -7.0711   27.5149 C   0  0  0  0  0  0  0  0  0  0  0  0
    2.5338   -7.6891   16.0102 C   0  0  0  0  0  0  0  0  0  0  0  0
    4.8690   -7.4380   26.4151 C   0  0  0  0  0  0  0  0  0  0  0  0
    2.3021   -5.6726   26.0378 C   0  0  0  0  0  0  0  0  0  0  0  0
    7.0880   -4.6163   27.0010 C   0  0  0  0  0  0  0  0  0  0  0  0
    8.3117   -4.3698   27.4436 C   0  0  0  0  0  0  0  0  0  0  0  0
    1.1339   -5.0515   26.3541 C   0  0  0  0  0  0  0  0  0  0  0  0
    4.8080   -8.0362   16.7101 C   0  0  0  0  0  0  0  0  0  0  0  0
   -1.2173   -3.9294   26.9717 O   0  0  0  0  0  0  0  0  0  0  0  0
   -1.0025   -5.0942   27.4586 C   0  0  0  0  0  0  0  0  0  0  0  0
    2.2474   -8.9123   16.6273 C   0  0  0  0  0  0  0  0  0  0  0  0
    4.4957   -9.2636   17.3041 C   0  0  0  0  0  0  0  0  0  0  0  0
   -1.8070   -5.6086   28.1920 O   0  0  0  0  0  0  0  0  0  0  0  0
   10.4296   -5.1799   28.3140 C   0  0  0  0  0  0  0  0  0  0  0  0
    6.6017   -5.9004   26.9187 C   0  0  0  0  0  0  0  0  0  0  0  0
    2.4761   -6.9940   26.4111 N   0  0  0  0  0  0  0  0  0  0  0  0
    9.1353   -5.4053   27.8239 C   0  0  0  0  0  0  0  0  0  0  0  0
    0.9922   -9.3232   16.5995 O   0  0  0  0  0  0  0  0  0  0  0  0
    1.5232   -7.6869   27.1182 C   0  0  0  0  0  0  0  0  0  0  0  0
    8.6878   -6.6715   27.7262 N   0  0  0  0  0  0  0  0  0  0  0  0
    6.9911   -8.2423   27.1808 C   0  0  0  0  0  0  0  0  0  0  0  0
    3.8436   -7.2758   16.0578 C   0  0  0  0  0  0  0  0  0  0  0  0
    3.1882   -9.7190   17.2566 C   0  0  0  0  0  0  0  0  0  0  0  0
    5.3488   -6.1737   26.5092 C   0  0  0  0  0  0  0  0  0  0  0  0
    7.4567   -6.9464   27.2858 C   0  0  0  0  0  0  0  0  0  0  0  0
    0.1921   -5.7592   27.1123 C   0  0  0  0  0  0  0  0  0  0  0  0
    3.5517   -7.7407   25.9711 C   0  0  0  0  0  0  0  0  0  0  0  0
  1  4  4  0
  1 22  4  0
  2 20  4  0
  2 27  4  0
  3 12  4  0
  3 23  4  0
  4 25  4  0
  4 28  1  0
  5  8  4  0
  5 17  4  0
  6  7  4  0
  6 16  4  0
  7 18  4  0
  8 27  4  0
  9 13  4  0
  9 23  4  0
 10 11  1  0
 11 14  2  0
 11 27  1  0
 12 19  1  0
 12 24  4  0
 13 24  4  0
 15 18  1  0
 16 25  4  0
 16 26  4  0
 17 20  4  0
 17 28  1  0
 18 21  4  0
 21 26  4  0
 22 26  4  0
M  END
$$$$

 Created by Python create_sdf_string function

 28 30  0  0  0  0  0  0  0  0999 V2000
    5.7174   -8.4529   26.7190 C   0  0  0  0  0  0  0  0  0  0  0  0
    0.3974   -7.0711   27.5149 C   0  0  0  0  0  0  0  0  0  0  0  0
    2.5338   -7.6891   16.0102 C   0  0  0  0  0  0  0  0  0  0  0  0
    4.8690   -7.4380   26.4151 C   0  0  0  0  0  0  0  0  0  0  0  0
    2.3021   -5.6726   26.0378 C   0  0  0  0  0  0  0  0  0  0  0  0
    7.0880   -4.6163   27.0010 C   0  0  0  0  0  0  0  0  0  0  0  0
    8.3117   -4.3698   27.4436 C   0  0  0  0  0  0  0  0  0  0  0  0
    1.1339   -5.0515   26.3541 C   0  0  0  0  0  0  0  0  0  0  0  0
    4.8080   -8.0362   16.7101 C   0  0  0  0  0  0  0  0  0  0  0  0
   -1.2173   -3.9294   26.9717 O   0  0  0  0  0  0  0  0  0  0  0  0
   -1.0025   -5.0942   27.4586 C   0  0  0  0  0  0  0  0  0  0  0  0
    2.2474   -8.9123   16.6273 C   0  0  0  0  0  0  0  0  0  0  0  0
    4.4957   -9.2636   17.3041 C   0  0  0  0  0  0  0  0  0  0  0  0
   -1.8070   -5.6086   28.1920 O   0  0  0  0  0  0  0  0  0  0  0  0
   10.4296   -5.1799   28.3140 C   0  0  0  0  0  0  0  0  0  0  0  0
    6.6017   -5.9004   26.9187 C   0  0  0  0  0  0  0  0  0  0  0  0
    2.4761   -6.9940   26.4111 N   0  0  0  0  0  0  0  0  0  0  0  0
    9.1353   -5.4053   27.8239 C   0  0  0  0  0  0  0  0  0  0  0  0
    0.9922   -9.3232   16.5995 O   0  0  0  0  0  0  0  0  0  0  0  0
    1.5232   -7.6869   27.1182 C   0  0  0  0  0  0  0  0  0  0  0  0
    8.6878   -6.6715   27.7262 N   0  0  0  0  0  0  0  0  0  0  0  0
    6.9911   -8.2423   27.1808 C   0  0  0  0  0  0  0  0  0  0  0  0
    3.8436   -7.2758   16.0578 C   0  0  0  0  0  0  0  0  0  0  0  0
    3.1882   -9.7190   17.2566 C   0  0  0  0  0  0  0  0  0  0  0  0
    5.3488   -6.1737   26.5092 C   0  0  0  0  0  0  0  0  0  0  0  0
    7.4567   -6.9464   27.2858 C   0  0  0  0  0  0  0  0  0  0  0  0
    0.1921   -5.7592   27.1123 C   0  0  0  0  0  0  0  0  0  0  0  0
    3.5517   -7.7407   25.9711 C   0  0  0  0  0  0  0  0  0  0  0  0
  1  4  4  0
  1 22  4  0
  2 20  4  0
  2 27  4  0
  3 12  4  0
  3 23  4  0
  4 25  4  0
  4 28  1  0
  5  8  4  0
  5 17  4  0
  6  7  4  0
  6 16  4  0
  7 18  4  0
  8 27  4  0
  9 13  4  0
  9 23  4  0
 10 11  1  0
 11 14  2  0
 11 27  1  0
 12 19  1  0
 12 24  4  0
 13 24  4  0
 15 18  1  0
 16 25  4  0
 16 26  4  0
 17 20  4  0
 17 28  1  0
 18 21  4  0
 21 26  4  0
 22 26  4  0
M  END
$$$$

 Created by Python create_sdf_string function

 28 30  0  0  0  0  0  0  0  0999 V2000
    5.7174   -8.4529   26.7190 C   0  0  0  0  0  0  0  0  0  0  0  0
    0.3974   -7.0711   27.5149 C   0  0  0  0  0  0  0  0  0  0  0  0
    2.5338   -7.6891   16.0102 C   0  0  0  0  0  0  0  0  0  0  0  0
    4.8690   -7.4380   26.4151 C   0  0  0  0  0  0  0  0  0  0  0  0
    2.3021   -5.6726   26.0378 C   0  0  0  0  0  0  0  0  0  0  0  0
    7.0880   -4.6163   27.0010 C   0  0  0  0  0  0  0  0  0  0  0  0
    8.3117   -4.3698   27.4436 C   0  0  0  0  0  0  0  0  0  0  0  0
    1.1339   -5.0515   26.3541 C   0  0  0  0  0  0  0  0  0  0  0  0
    4.8080   -8.0362   16.7101 C   0  0  0  0  0  0  0  0  0  0  0  0
   -1.2173   -3.9294   26.9717 O   0  0  0  0  0  0  0  0  0  0  0  0
   -1.0025   -5.0942   27.4586 C   0  0  0  0  0  0  0  0  0  0  0  0
    2.2474   -8.9123   16.6273 C   0  0  0  0  0  0  0  0  0  0  0  0
    4.4957   -9.2636   17.3041 C   0  0  0  0  0  0  0  0  0  0  0  0
   -1.8070   -5.6086   28.1920 O   0  0  0  0  0  0  0  0  0  0  0  0
   10.4296   -5.1799   28.3140 C   0  0  0  0  0  0  0  0  0  0  0  0
    6.6017   -5.9004   26.9187 C   0  0  0  0  0  0  0  0  0  0  0  0
    2.4761   -6.9940   26.4111 N   0  0  0  0  0  0  0  0  0  0  0  0
    9.1353   -5.4053   27.8239 C   0  0  0  0  0  0  0  0  0  0  0  0
    0.9922   -9.3232   16.5995 O   0  0  0  0  0  0  0  0  0  0  0  0
    1.5232   -7.6869   27.1182 C   0  0  0  0  0  0  0  0  0  0  0  0
    8.6878   -6.6715   27.7262 N   0  0  0  0  0  0  0  0  0  0  0  0
    6.9911   -8.2423   27.1808 C   0  0  0  0  0  0  0  0  0  0  0  0
    3.8436   -7.2758   16.0578 C   0  0  0  0  0  0  0  0  0  0  0  0
    3.1882   -9.7190   17.2566 C   0  0  0  0  0  0  0  0  0  0  0  0
    5.3488   -6.1737   26.5092 C   0  0  0  0  0  0  0  0  0  0  0  0
    7.4567   -6.9464   27.2858 C   0  0  0  0  0  0  0  0  0  0  0  0
    0.1921   -5.7592   27.1123 C   0  0  0  0  0  0  0  0  0  0  0  0
    3.5517   -7.7407   25.9711 C   0  0  0  0  0  0  0  0  0  0  0  0
  1  4  4  0
  1 22  4  0
  2 20  4  0
  2 27  4  0
  3 12  4  0
  3 23  4  0
  4 25  4  0
  4 28  1  0
  5  8  4  0
  5 17  4  0
  6  7  4  0
  6 16  4  0
  7 18  4  0
  8 27  4  0
  9 13  4  0
  9 23  4  0
 10 11  1  0
 11 14  2  0
 11 27  1  0
 12 19  1  0
 12 24  4  0
 13 24  4  0
 15 18  1  0
 16 25  4  0
 16 26  4  0
 17 20  4  0
 17 28  1  0
 18 21  4  0
 21 26  4  0
 22 26  4  0
M  END
$$$$

 Created by Python create_sdf_string function

 28 30  0  0  0  0  0  0  0  0999 V2000
    5.7174   -8.4529   26.7190 C   0  0  0  0  0  0  0  0  0  0  0  0
    0.3974   -7.0711   27.5149 C   0  0  0  0  0  0  0  0  0  0  0  0
    2.5338   -7.6891   16.0102 C   0  0  0  0  0  0  0  0  0  0  0  0
    4.8690   -7.4380   26.4151 C   0  0  0  0  0  0  0  0  0  0  0  0
    2.3021   -5.6726   26.0378 C   0  0  0  0  0  0  0  0  0  0  0  0
    7.0880   -4.6163   27.0010 C   0  0  0  0  0  0  0  0  0  0  0  0
    8.3117   -4.3698   27.4436 C   0  0  0  0  0  0  0  0  0  0  0  0
    1.1339   -5.0515   26.3541 C   0  0  0  0  0  0  0  0  0  0  0  0
    4.8080   -8.0362   16.7101 C   0  0  0  0  0  0  0  0  0  0  0  0
   -1.2173   -3.9294   26.9717 O   0  0  0  0  0  0  0  0  0  0  0  0
   -1.0025   -5.0942   27.4586 C   0  0  0  0  0  0  0  0  0  0  0  0
    2.2474   -8.9123   16.6273 C   0  0  0  0  0  0  0  0  0  0  0  0
    4.4957   -9.2636   17.3041 C   0  0  0  0  0  0  0  0  0  0  0  0
   -1.8070   -5.6086   28.1920 O   0  0  0  0  0  0  0  0  0  0  0  0
   10.4296   -5.1799   28.3140 C   0  0  0  0  0  0  0  0  0  0  0  0
    6.6017   -5.9004   26.9187 C   0  0  0  0  0  0  0  0  0  0  0  0
    2.4761   -6.9940   26.4111 N   0  0  0  0  0  0  0  0  0  0  0  0
    9.1353   -5.4053   27.8239 C   0  0  0  0  0  0  0  0  0  0  0  0
    0.9922   -9.3232   16.5995 O   0  0  0  0  0  0  0  0  0  0  0  0
    1.5232   -7.6869   27.1182 C   0  0  0  0  0  0  0  0  0  0  0  0
    8.6878   -6.6715   27.7262 N   0  0  0  0  0  0  0  0  0  0  0  0
    6.9911   -8.2423   27.1808 C   0  0  0  0  0  0  0  0  0  0  0  0
    3.8436   -7.2758   16.0578 C   0  0  0  0  0  0  0  0  0  0  0  0
    3.1882   -9.7190   17.2566 C   0  0  0  0  0  0  0  0  0  0  0  0
    5.3488   -6.1737   26.5092 C   0  0  0  0  0  0  0  0  0  0  0  0
    7.4567   -6.9464   27.2858 C   0  0  0  0  0  0  0  0  0  0  0  0
    0.1921   -5.7592   27.1123 C   0  0  0  0  0  0  0  0  0  0  0  0
    3.5517   -7.7407   25.9711 C   0  0  0  0  0  0  0  0  0  0  0  0
  1  4  4  0
  1 22  4  0
  2 20  4  0
  2 27  4  0
  3 12  4  0
  3 23  4  0
  4 25  4  0
  4 28  1  0
  5  8  4  0
  5 17  4  0
  6  7  4  0
  6 16  4  0
  7 18  4  0
  8 27  4  0
  9 13  4  0
  9 23  4  0
 10 11  1  0
 11 14  2  0
 11 27  1  0
 12 19  1  0
 12 24  4  0
 13 24  4  0
 15 18  1  0
 16 25  4  0
 16 26  4  0
 17 20  4  0
 17 28  1  0
 18 21  4  0
 21 26  4  0
 22 26  4  0
M  END
$$$$

 Created by Python create_sdf_string function

 28 30  0  0  0  0  0  0  0  0999 V2000
    5.7174   -8.4529   26.7190 C   0  0  0  0  0  0  0  0  0  0  0  0
    0.3974   -7.0711   27.5149 C   0  0  0  0  0  0  0  0  0  0  0  0
    2.5338   -7.6891   16.0102 C   0  0  0  0  0  0  0  0  0  0  0  0
    4.8690   -7.4380   26.4151 C   0  0  0  0  0  0  0  0  0  0  0  0
    2.3021   -5.6726   26.0378 C   0  0  0  0  0  0  0  0  0  0  0  0
    7.0880   -4.6163   27.0010 C   0  0  0  0  0  0  0  0  0  0  0  0
    8.3117   -4.3698   27.4436 C   0  0  0  0  0  0  0  0  0  0  0  0
    1.1339   -5.0515   26.3541 C   0  0  0  0  0  0  0  0  0  0  0  0
    4.8080   -8.0362   16.7101 C   0  0  0  0  0  0  0  0  0  0  0  0
   -1.2173   -3.9294   26.9717 O   0  0  0  0  0  0  0  0  0  0  0  0
   -1.0025   -5.0942   27.4586 C   0  0  0  0  0  0  0  0  0  0  0  0
    2.2474   -8.9123   16.6273 C   0  0  0  0  0  0  0  0  0  0  0  0
    4.4957   -9.2636   17.3041 C   0  0  0  0  0  0  0  0  0  0  0  0
   -1.8070   -5.6086   28.1920 O   0  0  0  0  0  0  0  0  0  0  0  0
   10.4296   -5.1799   28.3140 C   0  0  0  0  0  0  0  0  0  0  0  0
    6.6017   -5.9004   26.9187 C   0  0  0  0  0  0  0  0  0  0  0  0
    2.4761   -6.9940   26.4111 N   0  0  0  0  0  0  0  0  0  0  0  0
    9.1353   -5.4053   27.8239 C   0  0  0  0  0  0  0  0  0  0  0  0
    0.9922   -9.3232   16.5995 O   0  0  0  0  0  0  0  0  0  0  0  0
    1.5232   -7.6869   27.1182 C   0  0  0  0  0  0  0  0  0  0  0  0
    8.6878   -6.6715   27.7262 N   0  0  0  0  0  0  0  0  0  0  0  0
    6.9911   -8.2423   27.1808 C   0  0  0  0  0  0  0  0  0  0  0  0
    3.8436   -7.2758   16.0578 C   0  0  0  0  0  0  0  0  0  0  0  0
    3.1882   -9.7190   17.2566 C   0  0  0  0  0  0  0  0  0  0  0  0
    5.3488   -6.1737   26.5092 C   0  0  0  0  0  0  0  0  0  0  0  0
    7.4567   -6.9464   27.2858 C   0  0  0  0  0  0  0  0  0  0  0  0
    0.1921   -5.7592   27.1123 C   0  0  0  0  0  0  0  0  0  0  0  0
    3.5517   -7.7407   25.9711 C   0  0  0  0  0  0  0  0  0  0  0  0
  1  4  4  0
  1 22  4  0
  2 20  4  0
  2 27  4  0
  3 12  4  0
  3 23  4  0
  4 25  4  0
  4 28  1  0
  5  8  4  0
  5 17  4  0
  6  7  4  0
  6 16  4  0
  7 18  4  0
  8 27  4  0
  9 13  4  0
  9 23  4  0
 10 11  1  0
 11 14  2  0
 11 27  1  0
 12 19  1  0
 12 24  4  0
 13 24  4  0
 15 18  1  0
 16 25  4  0
 16 26  4  0
 17 20  4  0
 17 28  1  0
 18 21  4  0
 21 26  4  0
 22 26  4  0
M  END
$$$$

 Created by Python create_sdf_string function

 28 30  0  0  0  0  0  0  0  0999 V2000
    5.7174   -8.4529   26.7190 C   0  0  0  0  0  0  0  0  0  0  0  0
    0.3974   -7.0711   27.5149 C   0  0  0  0  0  0  0  0  0  0  0  0
    2.5338   -7.6891   16.0102 C   0  0  0  0  0  0  0  0  0  0  0  0
    4.8690   -7.4380   26.4151 C   0  0  0  0  0  0  0  0  0  0  0  0
    2.3021   -5.6726   26.0378 C   0  0  0  0  0  0  0  0  0  0  0  0
    7.0880   -4.6163   27.0010 C   0  0  0  0  0  0  0  0  0  0  0  0
    8.3117   -4.3698   27.4436 C   0  0  0  0  0  0  0  0  0  0  0  0
    1.1339   -5.0515   26.3541 C   0  0  0  0  0  0  0  0  0  0  0  0
    4.8080   -8.0362   16.7101 C   0  0  0  0  0  0  0  0  0  0  0  0
   -1.2173   -3.9294   26.9717 O   0  0  0  0  0  0  0  0  0  0  0  0
   -1.0025   -5.0942   27.4586 C   0  0  0  0  0  0  0  0  0  0  0  0
    2.2474   -8.9123   16.6273 C   0  0  0  0  0  0  0  0  0  0  0  0
    4.4957   -9.2636   17.3041 C   0  0  0  0  0  0  0  0  0  0  0  0
   -1.8070   -5.6086   28.1920 O   0  0  0  0  0  0  0  0  0  0  0  0
   10.4296   -5.1799   28.3140 C   0  0  0  0  0  0  0  0  0  0  0  0
    6.6017   -5.9004   26.9187 C   0  0  0  0  0  0  0  0  0  0  0  0
    2.4761   -6.9940   26.4111 N   0  0  0  0  0  0  0  0  0  0  0  0
    9.1353   -5.4053   27.8239 C   0  0  0  0  0  0  0  0  0  0  0  0
    0.9922   -9.3232   16.5995 O   0  0  0  0  0  0  0  0  0  0  0  0
    1.5232   -7.6869   27.1182 C   0  0  0  0  0  0  0  0  0  0  0  0
    8.6878   -6.6715   27.7262 N   0  0  0  0  0  0  0  0  0  0  0  0
    6.9911   -8.2423   27.1808 C   0  0  0  0  0  0  0  0  0  0  0  0
    3.8436   -7.2758   16.0578 C   0  0  0  0  0  0  0  0  0  0  0  0
    3.1882   -9.7190   17.2566 C   0  0  0  0  0  0  0  0  0  0  0  0
    5.3488   -6.1737   26.5092 C   0  0  0  0  0  0  0  0  0  0  0  0
    7.4567   -6.9464   27.2858 C   0  0  0  0  0  0  0  0  0  0  0  0
    0.1921   -5.7592   27.1123 C   0  0  0  0  0  0  0  0  0  0  0  0
    3.5517   -7.7407   25.9711 C   0  0  0  0  0  0  0  0  0  0  0  0
  1  4  4  0
  1 22  4  0
  2 20  4  0
  2 27  4  0
  3 12  4  0
  3 23  4  0
  4 25  4  0
  4 28  1  0
  5  8  4  0
  5 17  4  0
  6  7  4  0
  6 16  4  0
  7 18  4  0
  8 27  4  0
  9 13  4  0
  9 23  4  0
 10 11  1  0
 11 14  2  0
 11 27  1  0
 12 19  1  0
 12 24  4  0
 13 24  4  0
 15 18  1  0
 16 25  4  0
 16 26  4  0
 17 20  4  0
 17 28  1  0
 18 21  4  0
 21 26  4  0
 22 26  4  0
M  END
$$$$

 Created by Python create_sdf_string function

 28 30  0  0  0  0  0  0  0  0999 V2000
    5.7174   -8.4529   26.7190 C   0  0  0  0  0  0  0  0  0  0  0  0
    0.3974   -7.0711   27.5149 C   0  0  0  0  0  0  0  0  0  0  0  0
    2.5338   -7.6891   16.0102 C   0  0  0  0  0  0  0  0  0  0  0  0
    4.8690   -7.4380   26.4151 C   0  0  0  0  0  0  0  0  0  0  0  0
    2.3021   -5.6726   26.0378 C   0  0  0  0  0  0  0  0  0  0  0  0
    7.0880   -4.6163   27.0010 C   0  0  0  0  0  0  0  0  0  0  0  0
    8.3117   -4.3698   27.4436 C   0  0  0  0  0  0  0  0  0  0  0  0
    1.1339   -5.0515   26.3541 C   0  0  0  0  0  0  0  0  0  0  0  0
    4.8080   -8.0362   16.7101 C   0  0  0  0  0  0  0  0  0  0  0  0
   -1.2173   -3.9294   26.9717 O   0  0  0  0  0  0  0  0  0  0  0  0
   -1.0025   -5.0942   27.4586 C   0  0  0  0  0  0  0  0  0  0  0  0
    2.2474   -8.9123   16.6273 C   0  0  0  0  0  0  0  0  0  0  0  0
    4.4957   -9.2636   17.3041 C   0  0  0  0  0  0  0  0  0  0  0  0
   -1.8070   -5.6086   28.1920 O   0  0  0  0  0  0  0  0  0  0  0  0
   10.4296   -5.1799   28.3140 C   0  0  0  0  0  0  0  0  0  0  0  0
    6.6017   -5.9004   26.9187 C   0  0  0  0  0  0  0  0  0  0  0  0
    2.4761   -6.9940   26.4111 N   0  0  0  0  0  0  0  0  0  0  0  0
    9.1353   -5.4053   27.8239 C   0  0  0  0  0  0  0  0  0  0  0  0
    0.9922   -9.3232   16.5995 O   0  0  0  0  0  0  0  0  0  0  0  0
    1.5232   -7.6869   27.1182 C   0  0  0  0  0  0  0  0  0  0  0  0
    8.6878   -6.6715   27.7262 N   0  0  0  0  0  0  0  0  0  0  0  0
    6.9911   -8.2423   27.1808 C   0  0  0  0  0  0  0  0  0  0  0  0
    3.8436   -7.2758   16.0578 C   0  0  0  0  0  0  0  0  0  0  0  0
    3.1882   -9.7190   17.2566 C   0  0  0  0  0  0  0  0  0  0  0  0
    5.3488   -6.1737   26.5092 C   0  0  0  0  0  0  0  0  0  0  0  0
    7.4567   -6.9464   27.2858 C   0  0  0  0  0  0  0  0  0  0  0  0
    0.1921   -5.7592   27.1123 C   0  0  0  0  0  0  0  0  0  0  0  0
    3.5517   -7.7407   25.9711 C   0  0  0  0  0  0  0  0  0  0  0  0
  1  4  4  0
  1 22  4  0
  2 20  4  0
  2 27  4  0
  3 12  4  0
  3 23  4  0
  4 25  4  0
  4 28  1  0
  5  8  4  0
  5 17  4  0
  6  7  4  0
  6 16  4  0
  7 18  4  0
  8 27  4  0
  9 13  4  0
  9 23  4  0
 10 11  1  0
 11 14  2  0
 11 27  1  0
 12 19  1  0
 12 24  4  0
 13 24  4  0
 15 18  1  0
 16 25  4  0
 16 26  4  0
 17 20  4  0
 17 28  1  0
 18 21  4  0
 21 26  4  0
 22 26  4  0
M  END
$$$$

 Created by Python create_sdf_string function

 28 30  0  0  0  0  0  0  0  0999 V2000
    5.7174   -8.4529   26.7190 C   0  0  0  0  0  0  0  0  0  0  0  0
    0.3974   -7.0711   27.5149 C   0  0  0  0  0  0  0  0  0  0  0  0
    2.5338   -7.6891   16.0102 C   0  0  0  0  0  0  0  0  0  0  0  0
    4.8690   -7.4380   26.4151 C   0  0  0  0  0  0  0  0  0  0  0  0
    2.3021   -5.6726   26.0378 C   0  0  0  0  0  0  0  0  0  0  0  0
    7.0880   -4.6163   27.0010 C   0  0  0  0  0  0  0  0  0  0  0  0
    8.3117   -4.3698   27.4436 C   0  0  0  0  0  0  0  0  0  0  0  0
    1.1339   -5.0515   26.3541 C   0  0  0  0  0  0  0  0  0  0  0  0
    4.8080   -8.0362   16.7101 C   0  0  0  0  0  0  0  0  0  0  0  0
   -1.2173   -3.9294   26.9717 O   0  0  0  0  0  0  0  0  0  0  0  0
   -1.0025   -5.0942   27.4586 C   0  0  0  0  0  0  0  0  0  0  0  0
    2.2474   -8.9123   16.6273 C   0  0  0  0  0  0  0  0  0  0  0  0
    4.4957   -9.2636   17.3041 C   0  0  0  0  0  0  0  0  0  0  0  0
   -1.8070   -5.6086   28.1920 O   0  0  0  0  0  0  0  0  0  0  0  0
   10.4296   -5.1799   28.3140 C   0  0  0  0  0  0  0  0  0  0  0  0
    6.6017   -5.9004   26.9187 C   0  0  0  0  0  0  0  0  0  0  0  0
    2.4761   -6.9940   26.4111 N   0  0  0  0  0  0  0  0  0  0  0  0
    9.1353   -5.4053   27.8239 C   0  0  0  0  0  0  0  0  0  0  0  0
    0.9922   -9.3232   16.5995 O   0  0  0  0  0  0  0  0  0  0  0  0
    1.5232   -7.6869   27.1182 C   0  0  0  0  0  0  0  0  0  0  0  0
    8.6878   -6.6715   27.7262 N   0  0  0  0  0  0  0  0  0  0  0  0
    6.9911   -8.2423   27.1808 C   0  0  0  0  0  0  0  0  0  0  0  0
    3.8436   -7.2758   16.0578 C   0  0  0  0  0  0  0  0  0  0  0  0
    3.1882   -9.7190   17.2566 C   0  0  0  0  0  0  0  0  0  0  0  0
    5.3488   -6.1737   26.5092 C   0  0  0  0  0  0  0  0  0  0  0  0
    7.4567   -6.9464   27.2858 C   0  0  0  0  0  0  0  0  0  0  0  0
    0.1921   -5.7592   27.1123 C   0  0  0  0  0  0  0  0  0  0  0  0
    3.5517   -7.7407   25.9711 C   0  0  0  0  0  0  0  0  0  0  0  0
  1  4  4  0
  1 22  4  0
  2 20  4  0
  2 27  4  0
  3 12  4  0
  3 23  4  0
  4 25  4  0
  4 28  1  0
  5  8  4  0
  5 17  4  0
  6  7  4  0
  6 16  4  0
  7 18  4  0
  8 27  4  0
  9 13  4  0
  9 23  4  0
 10 11  1  0
 11 14  2  0
 11 27  1  0
 12 19  1  0
 12 24  4  0
 13 24  4  0
 15 18  1  0
 16 25  4  0
 16 26  4  0
 17 20  4  0
 17 28  1  0
 18 21  4  0
 21 26  4  0
 22 26  4  0
M  END
$$$$

 Created by Python create_sdf_string function

 28 30  0  0  0  0  0  0  0  0999 V2000
    5.7174   -8.4529   26.7190 C   0  0  0  0  0  0  0  0  0  0  0  0
    0.3974   -7.0711   27.5149 C   0  0  0  0  0  0  0  0  0  0  0  0
    2.5338   -7.6891   16.0102 C   0  0  0  0  0  0  0  0  0  0  0  0
    4.8690   -7.4380   26.4151 C   0  0  0  0  0  0  0  0  0  0  0  0
    2.3021   -5.6726   26.0378 C   0  0  0  0  0  0  0  0  0  0  0  0
    7.0880   -4.6163   27.0010 C   0  0  0  0  0  0  0  0  0  0  0  0
    8.3117   -4.3698   27.4436 C   0  0  0  0  0  0  0  0  0  0  0  0
    1.1339   -5.0515   26.3541 C   0  0  0  0  0  0  0  0  0  0  0  0
    4.8080   -8.0362   16.7101 C   0  0  0  0  0  0  0  0  0  0  0  0
   -1.2173   -3.9294   26.9717 O   0  0  0  0  0  0  0  0  0  0  0  0
   -1.0025   -5.0942   27.4586 C   0  0  0  0  0  0  0  0  0  0  0  0
    2.2474   -8.9123   16.6273 C   0  0  0  0  0  0  0  0  0  0  0  0
    4.4957   -9.2636   17.3041 C   0  0  0  0  0  0  0  0  0  0  0  0
   -1.8070   -5.6086   28.1920 O   0  0  0  0  0  0  0  0  0  0  0  0
   10.4296   -5.1799   28.3140 C   0  0  0  0  0  0  0  0  0  0  0  0
    6.6017   -5.9004   26.9187 C   0  0  0  0  0  0  0  0  0  0  0  0
    2.4761   -6.9940   26.4111 N   0  0  0  0  0  0  0  0  0  0  0  0
    9.1353   -5.4053   27.8239 C   0  0  0  0  0  0  0  0  0  0  0  0
    0.9922   -9.3232   16.5995 O   0  0  0  0  0  0  0  0  0  0  0  0
    1.5232   -7.6869   27.1182 C   0  0  0  0  0  0  0  0  0  0  0  0
    8.6878   -6.6715   27.7262 N   0  0  0  0  0  0  0  0  0  0  0  0
    6.9911   -8.2423   27.1808 C   0  0  0  0  0  0  0  0  0  0  0  0
    3.8436   -7.2758   16.0578 C   0  0  0  0  0  0  0  0  0  0  0  0
    3.1882   -9.7190   17.2566 C   0  0  0  0  0  0  0  0  0  0  0  0
    5.3488   -6.1737   26.5092 C   0  0  0  0  0  0  0  0  0  0  0  0
    7.4567   -6.9464   27.2858 C   0  0  0  0  0  0  0  0  0  0  0  0
    0.1921   -5.7592   27.1123 C   0  0  0  0  0  0  0  0  0  0  0  0
    3.5517   -7.7407   25.9711 C   0  0  0  0  0  0  0  0  0  0  0  0
  1  4  4  0
  1 22  4  0
  2 20  4  0
  2 27  4  0
  3 12  4  0
  3 23  4  0
  4 25  4  0
  4 28  1  0
  5  8  4  0
  5 17  4  0
  6  7  4  0
  6 16  4  0
  7 18  4  0
  8 27  4  0
  9 13  4  0
  9 23  4  0
 10 11  1  0
 11 14  2  0
 11 27  1  0
 12 19  1  0
 12 24  4  0
 13 24  4  0
 15 18  1  0
 16 25  4  0
 16 26  4  0
 17 20  4  0
 17 28  1  0
 18 21  4  0
 21 26  4  0
 22 26  4  0
M  END
$$$$

 Created by Python create_sdf_string function

 28 30  0  0  0  0  0  0  0  0999 V2000
    5.7174   -8.4529   26.7190 C   0  0  0  0  0  0  0  0  0  0  0  0
    0.3974   -7.0711   27.5149 C   0  0  0  0  0  0  0  0  0  0  0  0
    2.5338   -7.6891   16.0102 C   0  0  0  0  0  0  0  0  0  0  0  0
    4.8690   -7.4380   26.4151 C   0  0  0  0  0  0  0  0  0  0  0  0
    2.3021   -5.6726   26.0378 C   0  0  0  0  0  0  0  0  0  0  0  0
    7.0880   -4.6163   27.0010 C   0  0  0  0  0  0  0  0  0  0  0  0
    8.3117   -4.3698   27.4436 C   0  0  0  0  0  0  0  0  0  0  0  0
    1.1339   -5.0515   26.3541 C   0  0  0  0  0  0  0  0  0  0  0  0
    4.8080   -8.0362   16.7101 C   0  0  0  0  0  0  0  0  0  0  0  0
   -1.2173   -3.9294   26.9717 O   0  0  0  0  0  0  0  0  0  0  0  0
   -1.0025   -5.0942   27.4586 C   0  0  0  0  0  0  0  0  0  0  0  0
    2.2474   -8.9123   16.6273 C   0  0  0  0  0  0  0  0  0  0  0  0
    4.4957   -9.2636   17.3041 C   0  0  0  0  0  0  0  0  0  0  0  0
   -1.8070   -5.6086   28.1920 O   0  0  0  0  0  0  0  0  0  0  0  0
   10.4296   -5.1799   28.3140 C   0  0  0  0  0  0  0  0  0  0  0  0
    6.6017   -5.9004   26.9187 C   0  0  0  0  0  0  0  0  0  0  0  0
    2.4761   -6.9940   26.4111 N   0  0  0  0  0  0  0  0  0  0  0  0
    9.1353   -5.4053   27.8239 C   0  0  0  0  0  0  0  0  0  0  0  0
    0.9922   -9.3232   16.5995 O   0  0  0  0  0  0  0  0  0  0  0  0
    1.5232   -7.6869   27.1182 C   0  0  0  0  0  0  0  0  0  0  0  0
    8.6878   -6.6715   27.7262 N   0  0  0  0  0  0  0  0  0  0  0  0
    6.9911   -8.2423   27.1808 C   0  0  0  0  0  0  0  0  0  0  0  0
    3.8436   -7.2758   16.0578 C   0  0  0  0  0  0  0  0  0  0  0  0
    3.1882   -9.7190   17.2566 C   0  0  0  0  0  0  0  0  0  0  0  0
    5.3488   -6.1737   26.5092 C   0  0  0  0  0  0  0  0  0  0  0  0
    7.4567   -6.9464   27.2858 C   0  0  0  0  0  0  0  0  0  0  0  0
    0.1921   -5.7592   27.1123 C   0  0  0  0  0  0  0  0  0  0  0  0
    3.5517   -7.7407   25.9711 C   0  0  0  0  0  0  0  0  0  0  0  0
  1  4  4  0
  1 22  4  0
  2 20  4  0
  2 27  4  0
  3 12  4  0
  3 23  4  0
  4 25  4  0
  4 28  1  0
  5  8  4  0
  5 17  4  0
  6  7  4  0
  6 16  4  0
  7 18  4  0
  8 27  4  0
  9 13  4  0
  9 23  4  0
 10 11  1  0
 11 14  2  0
 11 27  1  0
 12 19  1  0
 12 24  4  0
 13 24  4  0
 15 18  1  0
 16 25  4  0
 16 26  4  0
 17 20  4  0
 17 28  1  0
 18 21  4  0
 21 26  4  0
 22 26  4  0
M  END
$$$$

 Created by Python create_sdf_string function

 28 30  0  0  0  0  0  0  0  0999 V2000
    5.7174   -8.4529   26.7190 C   0  0  0  0  0  0  0  0  0  0  0  0
    0.3974   -7.0711   27.5149 C   0  0  0  0  0  0  0  0  0  0  0  0
    2.5338   -7.6891   16.0102 C   0  0  0  0  0  0  0  0  0  0  0  0
    4.8690   -7.4380   26.4151 C   0  0  0  0  0  0  0  0  0  0  0  0
    2.3021   -5.6726   26.0378 C   0  0  0  0  0  0  0  0  0  0  0  0
    7.0880   -4.6163   27.0010 C   0  0  0  0  0  0  0  0  0  0  0  0
    8.3117   -4.3698   27.4436 C   0  0  0  0  0  0  0  0  0  0  0  0
    1.1339   -5.0515   26.3541 C   0  0  0  0  0  0  0  0  0  0  0  0
    4.8080   -8.0362   16.7101 C   0  0  0  0  0  0  0  0  0  0  0  0
   -1.2173   -3.9294   26.9717 O   0  0  0  0  0  0  0  0  0  0  0  0
   -1.0025   -5.0942   27.4586 C   0  0  0  0  0  0  0  0  0  0  0  0
    2.2474   -8.9123   16.6273 C   0  0  0  0  0  0  0  0  0  0  0  0
    4.4957   -9.2636   17.3041 C   0  0  0  0  0  0  0  0  0  0  0  0
   -1.8070   -5.6086   28.1920 O   0  0  0  0  0  0  0  0  0  0  0  0
   10.4296   -5.1799   28.3140 C   0  0  0  0  0  0  0  0  0  0  0  0
    6.6017   -5.9004   26.9187 C   0  0  0  0  0  0  0  0  0  0  0  0
    2.4761   -6.9940   26.4111 N   0  0  0  0  0  0  0  0  0  0  0  0
    9.1353   -5.4053   27.8239 C   0  0  0  0  0  0  0  0  0  0  0  0
    0.9922   -9.3232   16.5995 O   0  0  0  0  0  0  0  0  0  0  0  0
    1.5232   -7.6869   27.1182 C   0  0  0  0  0  0  0  0  0  0  0  0
    8.6878   -6.6715   27.7262 N   0  0  0  0  0  0  0  0  0  0  0  0
    6.9911   -8.2423   27.1808 C   0  0  0  0  0  0  0  0  0  0  0  0
    3.8436   -7.2758   16.0578 C   0  0  0  0  0  0  0  0  0  0  0  0
    3.1882   -9.7190   17.2566 C   0  0  0  0  0  0  0  0  0  0  0  0
    5.3488   -6.1737   26.5092 C   0  0  0  0  0  0  0  0  0  0  0  0
    7.4567   -6.9464   27.2858 C   0  0  0  0  0  0  0  0  0  0  0  0
    0.1921   -5.7592   27.1123 C   0  0  0  0  0  0  0  0  0  0  0  0
    3.5517   -7.7407   25.9711 C   0  0  0  0  0  0  0  0  0  0  0  0
  1  4  4  0
  1 22  4  0
  2 20  4  0
  2 27  4  0
  3 12  4  0
  3 23  4  0
  4 25  4  0
  4 28  1  0
  5  8  4  0
  5 17  4  0
  6  7  4  0
  6 16  4  0
  7 18  4  0
  8 27  4  0
  9 13  4  0
  9 23  4  0
 10 11  1  0
 11 14  2  0
 11 27  1  0
 12 19  1  0
 12 24  4  0
 13 24  4  0
 15 18  1  0
 16 25  4  0
 16 26  4  0
 17 20  4  0
 17 28  1  0
 18 21  4  0
 21 26  4  0
 22 26  4  0
M  END
$$$$

 Created by Python create_sdf_string function

 28 30  0  0  0  0  0  0  0  0999 V2000
    5.7174   -8.4529   26.7190 C   0  0  0  0  0  0  0  0  0  0  0  0
    0.3974   -7.0711   27.5149 C   0  0  0  0  0  0  0  0  0  0  0  0
    2.5338   -7.6891   16.0102 C   0  0  0  0  0  0  0  0  0  0  0  0
    4.8690   -7.4380   26.4151 C   0  0  0  0  0  0  0  0  0  0  0  0
    2.3021   -5.6726   26.0378 C   0  0  0  0  0  0  0  0  0  0  0  0
    7.0880   -4.6163   27.0010 C   0  0  0  0  0  0  0  0  0  0  0  0
    8.3117   -4.3698   27.4436 C   0  0  0  0  0  0  0  0  0  0  0  0
    1.1339   -5.0515   26.3541 C   0  0  0  0  0  0  0  0  0  0  0  0
    4.8080   -8.0362   16.7101 C   0  0  0  0  0  0  0  0  0  0  0  0
   -1.2173   -3.9294   26.9717 O   0  0  0  0  0  0  0  0  0  0  0  0
   -1.0025   -5.0942   27.4586 C   0  0  0  0  0  0  0  0  0  0  0  0
    2.2474   -8.9123   16.6273 C   0  0  0  0  0  0  0  0  0  0  0  0
    4.4957   -9.2636   17.3041 C   0  0  0  0  0  0  0  0  0  0  0  0
   -1.8070   -5.6086   28.1920 O   0  0  0  0  0  0  0  0  0  0  0  0
   10.4296   -5.1799   28.3140 C   0  0  0  0  0  0  0  0  0  0  0  0
    6.6017   -5.9004   26.9187 C   0  0  0  0  0  0  0  0  0  0  0  0
    2.4761   -6.9940   26.4111 N   0  0  0  0  0  0  0  0  0  0  0  0
    9.1353   -5.4053   27.8239 C   0  0  0  0  0  0  0  0  0  0  0  0
    0.9922   -9.3232   16.5995 O   0  0  0  0  0  0  0  0  0  0  0  0
    1.5232   -7.6869   27.1182 C   0  0  0  0  0  0  0  0  0  0  0  0
    8.6878   -6.6715   27.7262 N   0  0  0  0  0  0  0  0  0  0  0  0
    6.9911   -8.2423   27.1808 C   0  0  0  0  0  0  0  0  0  0  0  0
    3.8436   -7.2758   16.0578 C   0  0  0  0  0  0  0  0  0  0  0  0
    3.1882   -9.7190   17.2566 C   0  0  0  0  0  0  0  0  0  0  0  0
    5.3488   -6.1737   26.5092 C   0  0  0  0  0  0  0  0  0  0  0  0
    7.4567   -6.9464   27.2858 C   0  0  0  0  0  0  0  0  0  0  0  0
    0.1921   -5.7592   27.1123 C   0  0  0  0  0  0  0  0  0  0  0  0
    3.5517   -7.7407   25.9711 C   0  0  0  0  0  0  0  0  0  0  0  0
  1  4  4  0
  1 22  4  0
  2 20  4  0
  2 27  4  0
  3 12  4  0
  3 23  4  0
  4 25  4  0
  4 28  1  0
  5  8  4  0
  5 17  4  0
  6  7  4  0
  6 16  4  0
  7 18  4  0
  8 27  4  0
  9 13  4  0
  9 23  4  0
 10 11  1  0
 11 14  2  0
 11 27  1  0
 12 19  1  0
 12 24  4  0
 13 24  4  0
 15 18  1  0
 16 25  4  0
 16 26  4  0
 17 20  4  0
 17 28  1  0
 18 21  4  0
 21 26  4  0
 22 26  4  0
M  END
$$$$

 Created by Python create_sdf_string function

 28 30  0  0  0  0  0  0  0  0999 V2000
    5.7174   -8.4529   26.7190 C   0  0  0  0  0  0  0  0  0  0  0  0
    0.3974   -7.0711   27.5149 C   0  0  0  0  0  0  0  0  0  0  0  0
    2.5338   -7.6891   16.0102 C   0  0  0  0  0  0  0  0  0  0  0  0
    4.8690   -7.4380   26.4151 C   0  0  0  0  0  0  0  0  0  0  0  0
    2.3021   -5.6726   26.0378 C   0  0  0  0  0  0  0  0  0  0  0  0
    7.0880   -4.6163   27.0010 C   0  0  0  0  0  0  0  0  0  0  0  0
    8.3117   -4.3698   27.4436 C   0  0  0  0  0  0  0  0  0  0  0  0
    1.1339   -5.0515   26.3541 C   0  0  0  0  0  0  0  0  0  0  0  0
    4.8080   -8.0362   16.7101 C   0  0  0  0  0  0  0  0  0  0  0  0
   -1.2173   -3.9294   26.9717 O   0  0  0  0  0  0  0  0  0  0  0  0
   -1.0025   -5.0942   27.4586 C   0  0  0  0  0  0  0  0  0  0  0  0
    2.2474   -8.9123   16.6273 C   0  0  0  0  0  0  0  0  0  0  0  0
    4.4957   -9.2636   17.3041 C   0  0  0  0  0  0  0  0  0  0  0  0
   -1.8070   -5.6086   28.1920 O   0  0  0  0  0  0  0  0  0  0  0  0
   10.4296   -5.1799   28.3140 C   0  0  0  0  0  0  0  0  0  0  0  0
    6.6017   -5.9004   26.9187 C   0  0  0  0  0  0  0  0  0  0  0  0
    2.4761   -6.9940   26.4111 N   0  0  0  0  0  0  0  0  0  0  0  0
    9.1353   -5.4053   27.8239 C   0  0  0  0  0  0  0  0  0  0  0  0
    0.9922   -9.3232   16.5995 O   0  0  0  0  0  0  0  0  0  0  0  0
    1.5232   -7.6869   27.1182 C   0  0  0  0  0  0  0  0  0  0  0  0
    8.6878   -6.6715   27.7262 N   0  0  0  0  0  0  0  0  0  0  0  0
    6.9911   -8.2423   27.1808 C   0  0  0  0  0  0  0  0  0  0  0  0
    3.8436   -7.2758   16.0578 C   0  0  0  0  0  0  0  0  0  0  0  0
    3.1882   -9.7190   17.2566 C   0  0  0  0  0  0  0  0  0  0  0  0
    5.3488   -6.1737   26.5092 C   0  0  0  0  0  0  0  0  0  0  0  0
    7.4567   -6.9464   27.2858 C   0  0  0  0  0  0  0  0  0  0  0  0
    0.1921   -5.7592   27.1123 C   0  0  0  0  0  0  0  0  0  0  0  0
    3.5517   -7.7407   25.9711 C   0  0  0  0  0  0  0  0  0  0  0  0
  1  4  4  0
  1 22  4  0
  2 20  4  0
  2 27  4  0
  3 12  4  0
  3 23  4  0
  4 25  4  0
  4 28  1  0
  5  8  4  0
  5 17  4  0
  6  7  4  0
  6 16  4  0
  7 18  4  0
  8 27  4  0
  9 13  4  0
  9 23  4  0
 10 11  1  0
 11 14  2  0
 11 27  1  0
 12 19  1  0
 12 24  4  0
 13 24  4  0
 15 18  1  0
 16 25  4  0
 16 26  4  0
 17 20  4  0
 17 28  1  0
 18 21  4  0
 21 26  4  0
 22 26  4  0
M  END
$$$$

 Created by Python create_sdf_string function

 28 30  0  0  0  0  0  0  0  0999 V2000
    5.7174   -8.4529   26.7190 C   0  0  0  0  0  0  0  0  0  0  0  0
    0.3974   -7.0711   27.5149 C   0  0  0  0  0  0  0  0  0  0  0  0
    2.5338   -7.6891   16.0102 C   0  0  0  0  0  0  0  0  0  0  0  0
    4.8690   -7.4380   26.4151 C   0  0  0  0  0  0  0  0  0  0  0  0
    2.3021   -5.6726   26.0378 C   0  0  0  0  0  0  0  0  0  0  0  0
    7.0880   -4.6163   27.0010 C   0  0  0  0  0  0  0  0  0  0  0  0
    8.3117   -4.3698   27.4436 C   0  0  0  0  0  0  0  0  0  0  0  0
    1.1339   -5.0515   26.3541 C   0  0  0  0  0  0  0  0  0  0  0  0
    4.8080   -8.0362   16.7101 C   0  0  0  0  0  0  0  0  0  0  0  0
   -1.2173   -3.9294   26.9717 O   0  0  0  0  0  0  0  0  0  0  0  0
   -1.0025   -5.0942   27.4586 C   0  0  0  0  0  0  0  0  0  0  0  0
    2.2474   -8.9123   16.6273 C   0  0  0  0  0  0  0  0  0  0  0  0
    4.4957   -9.2636   17.3041 C   0  0  0  0  0  0  0  0  0  0  0  0
   -1.8070   -5.6086   28.1920 O   0  0  0  0  0  0  0  0  0  0  0  0
   10.4296   -5.1799   28.3140 C   0  0  0  0  0  0  0  0  0  0  0  0
    6.6017   -5.9004   26.9187 C   0  0  0  0  0  0  0  0  0  0  0  0
    2.4761   -6.9940   26.4111 N   0  0  0  0  0  0  0  0  0  0  0  0
    9.1353   -5.4053   27.8239 C   0  0  0  0  0  0  0  0  0  0  0  0
    0.9922   -9.3232   16.5995 O   0  0  0  0  0  0  0  0  0  0  0  0
    1.5232   -7.6869   27.1182 C   0  0  0  0  0  0  0  0  0  0  0  0
    8.6878   -6.6715   27.7262 N   0  0  0  0  0  0  0  0  0  0  0  0
    6.9911   -8.2423   27.1808 C   0  0  0  0  0  0  0  0  0  0  0  0
    3.8436   -7.2758   16.0578 C   0  0  0  0  0  0  0  0  0  0  0  0
    3.1882   -9.7190   17.2566 C   0  0  0  0  0  0  0  0  0  0  0  0
    5.3488   -6.1737   26.5092 C   0  0  0  0  0  0  0  0  0  0  0  0
    7.4567   -6.9464   27.2858 C   0  0  0  0  0  0  0  0  0  0  0  0
    0.1921   -5.7592   27.1123 C   0  0  0  0  0  0  0  0  0  0  0  0
    3.5517   -7.7407   25.9711 C   0  0  0  0  0  0  0  0  0  0  0  0
  1  4  4  0
  1 22  4  0
  2 20  4  0
  2 27  4  0
  3 12  4  0
  3 23  4  0
  4 25  4  0
  4 28  1  0
  5  8  4  0
  5 17  4  0
  6  7  4  0
  6 16  4  0
  7 18  4  0
  8 27  4  0
  9 13  4  0
  9 23  4  0
 10 11  1  0
 11 14  2  0
 11 27  1  0
 12 19  1  0
 12 24  4  0
 13 24  4  0
 15 18  1  0
 16 25  4  0
 16 26  4  0
 17 20  4  0
 17 28  1  0
 18 21  4  0
 21 26  4  0
 22 26  4  0
M  END
$$$$

 Created by Python create_sdf_string function

 28 30  0  0  0  0  0  0  0  0999 V2000
    5.7174   -8.4529   26.7190 C   0  0  0  0  0  0  0  0  0  0  0  0
    0.3974   -7.0711   27.5149 C   0  0  0  0  0  0  0  0  0  0  0  0
    2.5338   -7.6891   16.0102 C   0  0  0  0  0  0  0  0  0  0  0  0
    4.8690   -7.4380   26.4151 C   0  0  0  0  0  0  0  0  0  0  0  0
    2.3021   -5.6726   26.0378 C   0  0  0  0  0  0  0  0  0  0  0  0
    7.0880   -4.6163   27.0010 C   0  0  0  0  0  0  0  0  0  0  0  0
    8.3117   -4.3698   27.4436 C   0  0  0  0  0  0  0  0  0  0  0  0
    1.1339   -5.0515   26.3541 C   0  0  0  0  0  0  0  0  0  0  0  0
    4.8080   -8.0362   16.7101 C   0  0  0  0  0  0  0  0  0  0  0  0
   -1.2173   -3.9294   26.9717 O   0  0  0  0  0  0  0  0  0  0  0  0
   -1.0025   -5.0942   27.4586 C   0  0  0  0  0  0  0  0  0  0  0  0
    2.2474   -8.9123   16.6273 C   0  0  0  0  0  0  0  0  0  0  0  0
    4.4957   -9.2636   17.3041 C   0  0  0  0  0  0  0  0  0  0  0  0
   -1.8070   -5.6086   28.1920 O   0  0  0  0  0  0  0  0  0  0  0  0
   10.4296   -5.1799   28.3140 C   0  0  0  0  0  0  0  0  0  0  0  0
    6.6017   -5.9004   26.9187 C   0  0  0  0  0  0  0  0  0  0  0  0
    2.4761   -6.9940   26.4111 N   0  0  0  0  0  0  0  0  0  0  0  0
    9.1353   -5.4053   27.8239 C   0  0  0  0  0  0  0  0  0  0  0  0
    0.9922   -9.3232   16.5995 O   0  0  0  0  0  0  0  0  0  0  0  0
    1.5232   -7.6869   27.1182 C   0  0  0  0  0  0  0  0  0  0  0  0
    8.6878   -6.6715   27.7262 N   0  0  0  0  0  0  0  0  0  0  0  0
    6.9911   -8.2423   27.1808 C   0  0  0  0  0  0  0  0  0  0  0  0
    3.8436   -7.2758   16.0578 C   0  0  0  0  0  0  0  0  0  0  0  0
    3.1882   -9.7190   17.2566 C   0  0  0  0  0  0  0  0  0  0  0  0
    5.3488   -6.1737   26.5092 C   0  0  0  0  0  0  0  0  0  0  0  0
    7.4567   -6.9464   27.2858 C   0  0  0  0  0  0  0  0  0  0  0  0
    0.1921   -5.7592   27.1123 C   0  0  0  0  0  0  0  0  0  0  0  0
    3.5517   -7.7407   25.9711 C   0  0  0  0  0  0  0  0  0  0  0  0
  1  4  4  0
  1 22  4  0
  2 20  4  0
  2 27  4  0
  3 12  4  0
  3 23  4  0
  4 25  4  0
  4 28  1  0
  5  8  4  0
  5 17  4  0
  6  7  4  0
  6 16  4  0
  7 18  4  0
  8 27  4  0
  9 13  4  0
  9 23  4  0
 10 11  1  0
 11 14  2  0
 11 27  1  0
 12 19  1  0
 12 24  4  0
 13 24  4  0
 15 18  1  0
 16 25  4  0
 16 26  4  0
 17 20  4  0
 17 28  1  0
 18 21  4  0
 21 26  4  0
 22 26  4  0
M  END
$$$$

 Created by Python create_sdf_string function

 28 30  0  0  0  0  0  0  0  0999 V2000
    5.7174   -8.4529   26.7190 C   0  0  0  0  0  0  0  0  0  0  0  0
    0.3974   -7.0711   27.5149 C   0  0  0  0  0  0  0  0  0  0  0  0
    2.5338   -7.6891   16.0102 C   0  0  0  0  0  0  0  0  0  0  0  0
    4.8690   -7.4380   26.4151 C   0  0  0  0  0  0  0  0  0  0  0  0
    2.3021   -5.6726   26.0378 C   0  0  0  0  0  0  0  0  0  0  0  0
    7.0880   -4.6163   27.0010 C   0  0  0  0  0  0  0  0  0  0  0  0
    8.3117   -4.3698   27.4436 C   0  0  0  0  0  0  0  0  0  0  0  0
    1.1339   -5.0515   26.3541 C   0  0  0  0  0  0  0  0  0  0  0  0
    4.8080   -8.0362   16.7101 C   0  0  0  0  0  0  0  0  0  0  0  0
   -1.2173   -3.9294   26.9717 O   0  0  0  0  0  0  0  0  0  0  0  0
   -1.0025   -5.0942   27.4586 C   0  0  0  0  0  0  0  0  0  0  0  0
    2.2474   -8.9123   16.6273 C   0  0  0  0  0  0  0  0  0  0  0  0
    4.4957   -9.2636   17.3041 C   0  0  0  0  0  0  0  0  0  0  0  0
   -1.8070   -5.6086   28.1920 O   0  0  0  0  0  0  0  0  0  0  0  0
   10.4296   -5.1799   28.3140 C   0  0  0  0  0  0  0  0  0  0  0  0
    6.6017   -5.9004   26.9187 C   0  0  0  0  0  0  0  0  0  0  0  0
    2.4761   -6.9940   26.4111 N   0  0  0  0  0  0  0  0  0  0  0  0
    9.1353   -5.4053   27.8239 C   0  0  0  0  0  0  0  0  0  0  0  0
    0.9922   -9.3232   16.5995 O   0  0  0  0  0  0  0  0  0  0  0  0
    1.5232   -7.6869   27.1182 C   0  0  0  0  0  0  0  0  0  0  0  0
    8.6878   -6.6715   27.7262 N   0  0  0  0  0  0  0  0  0  0  0  0
    6.9911   -8.2423   27.1808 C   0  0  0  0  0  0  0  0  0  0  0  0
    3.8436   -7.2758   16.0578 C   0  0  0  0  0  0  0  0  0  0  0  0
    3.1882   -9.7190   17.2566 C   0  0  0  0  0  0  0  0  0  0  0  0
    5.3488   -6.1737   26.5092 C   0  0  0  0  0  0  0  0  0  0  0  0
    7.4567   -6.9464   27.2858 C   0  0  0  0  0  0  0  0  0  0  0  0
    0.1921   -5.7592   27.1123 C   0  0  0  0  0  0  0  0  0  0  0  0
    3.5517   -7.7407   25.9711 C   0  0  0  0  0  0  0  0  0  0  0  0
  1  4  4  0
  1 22  4  0
  2 20  4  0
  2 27  4  0
  3 12  4  0
  3 23  4  0
  4 25  4  0
  4 28  1  0
  5  8  4  0
  5 17  4  0
  6  7  4  0
  6 16  4  0
  7 18  4  0
  8 27  4  0
  9 13  4  0
  9 23  4  0
 10 11  1  0
 11 14  2  0
 11 27  1  0
 12 19  1  0
 12 24  4  0
 13 24  4  0
 15 18  1  0
 16 25  4  0
 16 26  4  0
 17 20  4  0
 17 28  1  0
 18 21  4  0
 21 26  4  0
 22 26  4  0
M  END
$$$$

 Created by Python create_sdf_string function

 28 30  0  0  0  0  0  0  0  0999 V2000
    5.7174   -8.4529   26.7190 C   0  0  0  0  0  0  0  0  0  0  0  0
    0.3974   -7.0711   27.5149 C   0  0  0  0  0  0  0  0  0  0  0  0
    2.5338   -7.6891   16.0102 C   0  0  0  0  0  0  0  0  0  0  0  0
    4.8690   -7.4380   26.4151 C   0  0  0  0  0  0  0  0  0  0  0  0
    2.3021   -5.6726   26.0378 C   0  0  0  0  0  0  0  0  0  0  0  0
    7.0880   -4.6163   27.0010 C   0  0  0  0  0  0  0  0  0  0  0  0
    8.3117   -4.3698   27.4436 C   0  0  0  0  0  0  0  0  0  0  0  0
    1.1339   -5.0515   26.3541 C   0  0  0  0  0  0  0  0  0  0  0  0
    4.8080   -8.0362   16.7101 C   0  0  0  0  0  0  0  0  0  0  0  0
   -1.2173   -3.9294   26.9717 O   0  0  0  0  0  0  0  0  0  0  0  0
   -1.0025   -5.0942   27.4586 C   0  0  0  0  0  0  0  0  0  0  0  0
    2.2474   -8.9123   16.6273 C   0  0  0  0  0  0  0  0  0  0  0  0
    4.4957   -9.2636   17.3041 C   0  0  0  0  0  0  0  0  0  0  0  0
   -1.8070   -5.6086   28.1920 O   0  0  0  0  0  0  0  0  0  0  0  0
   10.4296   -5.1799   28.3140 C   0  0  0  0  0  0  0  0  0  0  0  0
    6.6017   -5.9004   26.9187 C   0  0  0  0  0  0  0  0  0  0  0  0
    2.4761   -6.9940   26.4111 N   0  0  0  0  0  0  0  0  0  0  0  0
    9.1353   -5.4053   27.8239 C   0  0  0  0  0  0  0  0  0  0  0  0
    0.9922   -9.3232   16.5995 O   0  0  0  0  0  0  0  0  0  0  0  0
    1.5232   -7.6869   27.1182 C   0  0  0  0  0  0  0  0  0  0  0  0
    8.6878   -6.6715   27.7262 N   0  0  0  0  0  0  0  0  0  0  0  0
    6.9911   -8.2423   27.1808 C   0  0  0  0  0  0  0  0  0  0  0  0
    3.8436   -7.2758   16.0578 C   0  0  0  0  0  0  0  0  0  0  0  0
    3.1882   -9.7190   17.2566 C   0  0  0  0  0  0  0  0  0  0  0  0
    5.3488   -6.1737   26.5092 C   0  0  0  0  0  0  0  0  0  0  0  0
    7.4567   -6.9464   27.2858 C   0  0  0  0  0  0  0  0  0  0  0  0
    0.1921   -5.7592   27.1123 C   0  0  0  0  0  0  0  0  0  0  0  0
    3.5517   -7.7407   25.9711 C   0  0  0  0  0  0  0  0  0  0  0  0
  1  4  4  0
  1 22  4  0
  2 20  4  0
  2 27  4  0
  3 12  4  0
  3 23  4  0
  4 25  4  0
  4 28  1  0
  5  8  4  0
  5 17  4  0
  6  7  4  0
  6 16  4  0
  7 18  4  0
  8 27  4  0
  9 13  4  0
  9 23  4  0
 10 11  1  0
 11 14  2  0
 11 27  1  0
 12 19  1  0
 12 24  4  0
 13 24  4  0
 15 18  1  0
 16 25  4  0
 16 26  4  0
 17 20  4  0
 17 28  1  0
 18 21  4  0
 21 26  4  0
 22 26  4  0
M  END
$$$$

 Created by Python create_sdf_string function

 28 30  0  0  0  0  0  0  0  0999 V2000
    5.7174   -8.4529   26.7190 C   0  0  0  0  0  0  0  0  0  0  0  0
    0.3974   -7.0711   27.5149 C   0  0  0  0  0  0  0  0  0  0  0  0
    2.5338   -7.6891   16.0102 C   0  0  0  0  0  0  0  0  0  0  0  0
    4.8690   -7.4380   26.4151 C   0  0  0  0  0  0  0  0  0  0  0  0
    2.3021   -5.6726   26.0378 C   0  0  0  0  0  0  0  0  0  0  0  0
    7.0880   -4.6163   27.0010 C   0  0  0  0  0  0  0  0  0  0  0  0
    8.3117   -4.3698   27.4436 C   0  0  0  0  0  0  0  0  0  0  0  0
    1.1339   -5.0515   26.3541 C   0  0  0  0  0  0  0  0  0  0  0  0
    4.8080   -8.0362   16.7101 C   0  0  0  0  0  0  0  0  0  0  0  0
   -1.2173   -3.9294   26.9717 O   0  0  0  0  0  0  0  0  0  0  0  0
   -1.0025   -5.0942   27.4586 C   0  0  0  0  0  0  0  0  0  0  0  0
    2.2474   -8.9123   16.6273 C   0  0  0  0  0  0  0  0  0  0  0  0
    4.4957   -9.2636   17.3041 C   0  0  0  0  0  0  0  0  0  0  0  0
   -1.8070   -5.6086   28.1920 O   0  0  0  0  0  0  0  0  0  0  0  0
   10.4296   -5.1799   28.3140 C   0  0  0  0  0  0  0  0  0  0  0  0
    6.6017   -5.9004   26.9187 C   0  0  0  0  0  0  0  0  0  0  0  0
    2.4761   -6.9940   26.4111 N   0  0  0  0  0  0  0  0  0  0  0  0
    9.1353   -5.4053   27.8239 C   0  0  0  0  0  0  0  0  0  0  0  0
    0.9922   -9.3232   16.5995 O   0  0  0  0  0  0  0  0  0  0  0  0
    1.5232   -7.6869   27.1182 C   0  0  0  0  0  0  0  0  0  0  0  0
    8.6878   -6.6715   27.7262 N   0  0  0  0  0  0  0  0  0  0  0  0
    6.9911   -8.2423   27.1808 C   0  0  0  0  0  0  0  0  0  0  0  0
    3.8436   -7.2758   16.0578 C   0  0  0  0  0  0  0  0  0  0  0  0
    3.1882   -9.7190   17.2566 C   0  0  0  0  0  0  0  0  0  0  0  0
    5.3488   -6.1737   26.5092 C   0  0  0  0  0  0  0  0  0  0  0  0
    7.4567   -6.9464   27.2858 C   0  0  0  0  0  0  0  0  0  0  0  0
    0.1921   -5.7592   27.1123 C   0  0  0  0  0  0  0  0  0  0  0  0
    3.5517   -7.7407   25.9711 C   0  0  0  0  0  0  0  0  0  0  0  0
  1  4  4  0
  1 22  4  0
  2 20  4  0
  2 27  4  0
  3 12  4  0
  3 23  4  0
  4 25  4  0
  4 28  1  0
  5  8  4  0
  5 17  4  0
  6  7  4  0
  6 16  4  0
  7 18  4  0
  8 27  4  0
  9 13  4  0
  9 23  4  0
 10 11  1  0
 11 14  2  0
 11 27  1  0
 12 19  1  0
 12 24  4  0
 13 24  4  0
 15 18  1  0
 16 25  4  0
 16 26  4  0
 17 20  4  0
 17 28  1  0
 18 21  4  0
 21 26  4  0
 22 26  4  0
M  END
$$$$

 Created by Python create_sdf_string function

 28 30  0  0  0  0  0  0  0  0999 V2000
    5.7174   -8.4529   26.7190 C   0  0  0  0  0  0  0  0  0  0  0  0
    0.3974   -7.0711   27.5149 C   0  0  0  0  0  0  0  0  0  0  0  0
    2.5338   -7.6891   16.0102 C   0  0  0  0  0  0  0  0  0  0  0  0
    4.8690   -7.4380   26.4151 C   0  0  0  0  0  0  0  0  0  0  0  0
    2.3021   -5.6726   26.0378 C   0  0  0  0  0  0  0  0  0  0  0  0
    7.0880   -4.6163   27.0010 C   0  0  0  0  0  0  0  0  0  0  0  0
    8.3117   -4.3698   27.4436 C   0  0  0  0  0  0  0  0  0  0  0  0
    1.1339   -5.0515   26.3541 C   0  0  0  0  0  0  0  0  0  0  0  0
    4.8080   -8.0362   16.7101 C   0  0  0  0  0  0  0  0  0  0  0  0
   -1.2173   -3.9294   26.9717 O   0  0  0  0  0  0  0  0  0  0  0  0
   -1.0025   -5.0942   27.4586 C   0  0  0  0  0  0  0  0  0  0  0  0
    2.2474   -8.9123   16.6273 C   0  0  0  0  0  0  0  0  0  0  0  0
    4.4957   -9.2636   17.3041 C   0  0  0  0  0  0  0  0  0  0  0  0
   -1.8070   -5.6086   28.1920 O   0  0  0  0  0  0  0  0  0  0  0  0
   10.4296   -5.1799   28.3140 C   0  0  0  0  0  0  0  0  0  0  0  0
    6.6017   -5.9004   26.9187 C   0  0  0  0  0  0  0  0  0  0  0  0
    2.4761   -6.9940   26.4111 N   0  0  0  0  0  0  0  0  0  0  0  0
    9.1353   -5.4053   27.8239 C   0  0  0  0  0  0  0  0  0  0  0  0
    0.9922   -9.3232   16.5995 O   0  0  0  0  0  0  0  0  0  0  0  0
    1.5232   -7.6869   27.1182 C   0  0  0  0  0  0  0  0  0  0  0  0
    8.6878   -6.6715   27.7262 N   0  0  0  0  0  0  0  0  0  0  0  0
    6.9911   -8.2423   27.1808 C   0  0  0  0  0  0  0  0  0  0  0  0
    3.8436   -7.2758   16.0578 C   0  0  0  0  0  0  0  0  0  0  0  0
    3.1882   -9.7190   17.2566 C   0  0  0  0  0  0  0  0  0  0  0  0
    5.3488   -6.1737   26.5092 C   0  0  0  0  0  0  0  0  0  0  0  0
    7.4567   -6.9464   27.2858 C   0  0  0  0  0  0  0  0  0  0  0  0
    0.1921   -5.7592   27.1123 C   0  0  0  0  0  0  0  0  0  0  0  0
    3.5517   -7.7407   25.9711 C   0  0  0  0  0  0  0  0  0  0  0  0
  1  4  4  0
  1 22  4  0
  2 20  4  0
  2 27  4  0
  3 12  4  0
  3 23  4  0
  4 25  4  0
  4 28  1  0
  5  8  4  0
  5 17  4  0
  6  7  4  0
  6 16  4  0
  7 18  4  0
  8 27  4  0
  9 13  4  0
  9 23  4  0
 10 11  1  0
 11 14  2  0
 11 27  1  0
 12 19  1  0
 12 24  4  0
 13 24  4  0
 15 18  1  0
 16 25  4  0
 16 26  4  0
 17 20  4  0
 17 28  1  0
 18 21  4  0
 21 26  4  0
 22 26  4  0
M  END
$$$$

 Created by Python create_sdf_string function

 28 30  0  0  0  0  0  0  0  0999 V2000
    5.7174   -8.4529   26.7190 C   0  0  0  0  0  0  0  0  0  0  0  0
    0.3974   -7.0711   27.5149 C   0  0  0  0  0  0  0  0  0  0  0  0
    2.5338   -7.6891   16.0102 C   0  0  0  0  0  0  0  0  0  0  0  0
    4.8690   -7.4380   26.4151 C   0  0  0  0  0  0  0  0  0  0  0  0
    2.3021   -5.6726   26.0378 C   0  0  0  0  0  0  0  0  0  0  0  0
    7.0880   -4.6163   27.0010 C   0  0  0  0  0  0  0  0  0  0  0  0
    8.3117   -4.3698   27.4436 C   0  0  0  0  0  0  0  0  0  0  0  0
    1.1339   -5.0515   26.3541 C   0  0  0  0  0  0  0  0  0  0  0  0
    4.8080   -8.0362   16.7101 C   0  0  0  0  0  0  0  0  0  0  0  0
   -1.2173   -3.9294   26.9717 O   0  0  0  0  0  0  0  0  0  0  0  0
   -1.0025   -5.0942   27.4586 C   0  0  0  0  0  0  0  0  0  0  0  0
    2.2474   -8.9123   16.6273 C   0  0  0  0  0  0  0  0  0  0  0  0
    4.4957   -9.2636   17.3041 C   0  0  0  0  0  0  0  0  0  0  0  0
   -1.8070   -5.6086   28.1920 O   0  0  0  0  0  0  0  0  0  0  0  0
   10.4296   -5.1799   28.3140 C   0  0  0  0  0  0  0  0  0  0  0  0
    6.6017   -5.9004   26.9187 C   0  0  0  0  0  0  0  0  0  0  0  0
    2.4761   -6.9940   26.4111 N   0  0  0  0  0  0  0  0  0  0  0  0
    9.1353   -5.4053   27.8239 C   0  0  0  0  0  0  0  0  0  0  0  0
    0.9922   -9.3232   16.5995 O   0  0  0  0  0  0  0  0  0  0  0  0
    1.5232   -7.6869   27.1182 C   0  0  0  0  0  0  0  0  0  0  0  0
    8.6878   -6.6715   27.7262 N   0  0  0  0  0  0  0  0  0  0  0  0
    6.9911   -8.2423   27.1808 C   0  0  0  0  0  0  0  0  0  0  0  0
    3.8436   -7.2758   16.0578 C   0  0  0  0  0  0  0  0  0  0  0  0
    3.1882   -9.7190   17.2566 C   0  0  0  0  0  0  0  0  0  0  0  0
    5.3488   -6.1737   26.5092 C   0  0  0  0  0  0  0  0  0  0  0  0
    7.4567   -6.9464   27.2858 C   0  0  0  0  0  0  0  0  0  0  0  0
    0.1921   -5.7592   27.1123 C   0  0  0  0  0  0  0  0  0  0  0  0
    3.5517   -7.7407   25.9711 C   0  0  0  0  0  0  0  0  0  0  0  0
  1  4  4  0
  1 22  4  0
  2 20  4  0
  2 27  4  0
  3 12  4  0
  3 23  4  0
  4 25  4  0
  4 28  1  0
  5  8  4  0
  5 17  4  0
  6  7  4  0
  6 16  4  0
  7 18  4  0
  8 27  4  0
  9 13  4  0
  9 23  4  0
 10 11  1  0
 11 14  2  0
 11 27  1  0
 12 19  1  0
 12 24  4  0
 13 24  4  0
 15 18  1  0
 16 25  4  0
 16 26  4  0
 17 20  4  0
 17 28  1  0
 18 21  4  0
 21 26  4  0
 22 26  4  0
M  END
$$$$

 Created by Python create_sdf_string function

 28 30  0  0  0  0  0  0  0  0999 V2000
    5.7174   -8.4529   26.7190 C   0  0  0  0  0  0  0  0  0  0  0  0
    0.3974   -7.0711   27.5149 C   0  0  0  0  0  0  0  0  0  0  0  0
    2.5338   -7.6891   16.0102 C   0  0  0  0  0  0  0  0  0  0  0  0
    4.8690   -7.4380   26.4151 C   0  0  0  0  0  0  0  0  0  0  0  0
    2.3021   -5.6726   26.0378 C   0  0  0  0  0  0  0  0  0  0  0  0
    7.0880   -4.6163   27.0010 C   0  0  0  0  0  0  0  0  0  0  0  0
    8.3117   -4.3698   27.4436 C   0  0  0  0  0  0  0  0  0  0  0  0
    1.1339   -5.0515   26.3541 C   0  0  0  0  0  0  0  0  0  0  0  0
    4.8080   -8.0362   16.7101 C   0  0  0  0  0  0  0  0  0  0  0  0
   -1.2173   -3.9294   26.9717 O   0  0  0  0  0  0  0  0  0  0  0  0
   -1.0025   -5.0942   27.4586 C   0  0  0  0  0  0  0  0  0  0  0  0
    2.2474   -8.9123   16.6273 C   0  0  0  0  0  0  0  0  0  0  0  0
    4.4957   -9.2636   17.3041 C   0  0  0  0  0  0  0  0  0  0  0  0
   -1.8070   -5.6086   28.1920 O   0  0  0  0  0  0  0  0  0  0  0  0
   10.4296   -5.1799   28.3140 C   0  0  0  0  0  0  0  0  0  0  0  0
    6.6017   -5.9004   26.9187 C   0  0  0  0  0  0  0  0  0  0  0  0
    2.4761   -6.9940   26.4111 N   0  0  0  0  0  0  0  0  0  0  0  0
    9.1353   -5.4053   27.8239 C   0  0  0  0  0  0  0  0  0  0  0  0
    0.9922   -9.3232   16.5995 O   0  0  0  0  0  0  0  0  0  0  0  0
    1.5232   -7.6869   27.1182 C   0  0  0  0  0  0  0  0  0  0  0  0
    8.6878   -6.6715   27.7262 N   0  0  0  0  0  0  0  0  0  0  0  0
    6.9911   -8.2423   27.1808 C   0  0  0  0  0  0  0  0  0  0  0  0
    3.8436   -7.2758   16.0578 C   0  0  0  0  0  0  0  0  0  0  0  0
    3.1882   -9.7190   17.2566 C   0  0  0  0  0  0  0  0  0  0  0  0
    5.3488   -6.1737   26.5092 C   0  0  0  0  0  0  0  0  0  0  0  0
    7.4567   -6.9464   27.2858 C   0  0  0  0  0  0  0  0  0  0  0  0
    0.1921   -5.7592   27.1123 C   0  0  0  0  0  0  0  0  0  0  0  0
    3.5517   -7.7407   25.9711 C   0  0  0  0  0  0  0  0  0  0  0  0
  1  4  4  0
  1 22  4  0
  2 20  4  0
  2 27  4  0
  3 12  4  0
  3 23  4  0
  4 25  4  0
  4 28  1  0
  5  8  4  0
  5 17  4  0
  6  7  4  0
  6 16  4  0
  7 18  4  0
  8 27  4  0
  9 13  4  0
  9 23  4  0
 10 11  1  0
 11 14  2  0
 11 27  1  0
 12 19  1  0
 12 24  4  0
 13 24  4  0
 15 18  1  0
 16 25  4  0
 16 26  4  0
 17 20  4  0
 17 28  1  0
 18 21  4  0
 21 26  4  0
 22 26  4  0
M  END
$$$$

 Created by Python create_sdf_string function

 28 30  0  0  0  0  0  0  0  0999 V2000
    5.7174   -8.4529   26.7190 C   0  0  0  0  0  0  0  0  0  0  0  0
    0.3974   -7.0711   27.5149 C   0  0  0  0  0  0  0  0  0  0  0  0
    2.5338   -7.6891   16.0102 C   0  0  0  0  0  0  0  0  0  0  0  0
    4.8690   -7.4380   26.4151 C   0  0  0  0  0  0  0  0  0  0  0  0
    2.3021   -5.6726   26.0378 C   0  0  0  0  0  0  0  0  0  0  0  0
    7.0880   -4.6163   27.0010 C   0  0  0  0  0  0  0  0  0  0  0  0
    8.3117   -4.3698   27.4436 C   0  0  0  0  0  0  0  0  0  0  0  0
    1.1339   -5.0515   26.3541 C   0  0  0  0  0  0  0  0  0  0  0  0
    4.8080   -8.0362   16.7101 C   0  0  0  0  0  0  0  0  0  0  0  0
   -1.2173   -3.9294   26.9717 O   0  0  0  0  0  0  0  0  0  0  0  0
   -1.0025   -5.0942   27.4586 C   0  0  0  0  0  0  0  0  0  0  0  0
    2.2474   -8.9123   16.6273 C   0  0  0  0  0  0  0  0  0  0  0  0
    4.4957   -9.2636   17.3041 C   0  0  0  0  0  0  0  0  0  0  0  0
   -1.8070   -5.6086   28.1920 O   0  0  0  0  0  0  0  0  0  0  0  0
   10.4296   -5.1799   28.3140 C   0  0  0  0  0  0  0  0  0  0  0  0
    6.6017   -5.9004   26.9187 C   0  0  0  0  0  0  0  0  0  0  0  0
    2.4761   -6.9940   26.4111 N   0  0  0  0  0  0  0  0  0  0  0  0
    9.1353   -5.4053   27.8239 C   0  0  0  0  0  0  0  0  0  0  0  0
    0.9922   -9.3232   16.5995 O   0  0  0  0  0  0  0  0  0  0  0  0
    1.5232   -7.6869   27.1182 C   0  0  0  0  0  0  0  0  0  0  0  0
    8.6878   -6.6715   27.7262 N   0  0  0  0  0  0  0  0  0  0  0  0
    6.9911   -8.2423   27.1808 C   0  0  0  0  0  0  0  0  0  0  0  0
    3.8436   -7.2758   16.0578 C   0  0  0  0  0  0  0  0  0  0  0  0
    3.1882   -9.7190   17.2566 C   0  0  0  0  0  0  0  0  0  0  0  0
    5.3488   -6.1737   26.5092 C   0  0  0  0  0  0  0  0  0  0  0  0
    7.4567   -6.9464   27.2858 C   0  0  0  0  0  0  0  0  0  0  0  0
    0.1921   -5.7592   27.1123 C   0  0  0  0  0  0  0  0  0  0  0  0
    3.5517   -7.7407   25.9711 C   0  0  0  0  0  0  0  0  0  0  0  0
  1  4  4  0
  1 22  4  0
  2 20  4  0
  2 27  4  0
  3 12  4  0
  3 23  4  0
  4 25  4  0
  4 28  1  0
  5  8  4  0
  5 17  4  0
  6  7  4  0
  6 16  4  0
  7 18  4  0
  8 27  4  0
  9 13  4  0
  9 23  4  0
 10 11  1  0
 11 14  2  0
 11 27  1  0
 12 19  1  0
 12 24  4  0
 13 24  4  0
 15 18  1  0
 16 25  4  0
 16 26  4  0
 17 20  4  0
 17 28  1  0
 18 21  4  0
 21 26  4  0
 22 26  4  0
M  END
$$$$

 Created by Python create_sdf_string function

 28 30  0  0  0  0  0  0  0  0999 V2000
    5.7174   -8.4529   26.7190 C   0  0  0  0  0  0  0  0  0  0  0  0
    0.3974   -7.0711   27.5149 C   0  0  0  0  0  0  0  0  0  0  0  0
    2.5338   -7.6891   16.0102 C   0  0  0  0  0  0  0  0  0  0  0  0
    4.8690   -7.4380   26.4151 C   0  0  0  0  0  0  0  0  0  0  0  0
    2.3021   -5.6726   26.0378 C   0  0  0  0  0  0  0  0  0  0  0  0
    7.0880   -4.6163   27.0010 C   0  0  0  0  0  0  0  0  0  0  0  0
    8.3117   -4.3698   27.4436 C   0  0  0  0  0  0  0  0  0  0  0  0
    1.1339   -5.0515   26.3541 C   0  0  0  0  0  0  0  0  0  0  0  0
    4.8080   -8.0362   16.7101 C   0  0  0  0  0  0  0  0  0  0  0  0
   -1.2173   -3.9294   26.9717 O   0  0  0  0  0  0  0  0  0  0  0  0
   -1.0025   -5.0942   27.4586 C   0  0  0  0  0  0  0  0  0  0  0  0
    2.2474   -8.9123   16.6273 C   0  0  0  0  0  0  0  0  0  0  0  0
    4.4957   -9.2636   17.3041 C   0  0  0  0  0  0  0  0  0  0  0  0
   -1.8070   -5.6086   28.1920 O   0  0  0  0  0  0  0  0  0  0  0  0
   10.4296   -5.1799   28.3140 C   0  0  0  0  0  0  0  0  0  0  0  0
    6.6017   -5.9004   26.9187 C   0  0  0  0  0  0  0  0  0  0  0  0
    2.4761   -6.9940   26.4111 N   0  0  0  0  0  0  0  0  0  0  0  0
    9.1353   -5.4053   27.8239 C   0  0  0  0  0  0  0  0  0  0  0  0
    0.9922   -9.3232   16.5995 O   0  0  0  0  0  0  0  0  0  0  0  0
    1.5232   -7.6869   27.1182 C   0  0  0  0  0  0  0  0  0  0  0  0
    8.6878   -6.6715   27.7262 N   0  0  0  0  0  0  0  0  0  0  0  0
    6.9911   -8.2423   27.1808 C   0  0  0  0  0  0  0  0  0  0  0  0
    3.8436   -7.2758   16.0578 C   0  0  0  0  0  0  0  0  0  0  0  0
    3.1882   -9.7190   17.2566 C   0  0  0  0  0  0  0  0  0  0  0  0
    5.3488   -6.1737   26.5092 C   0  0  0  0  0  0  0  0  0  0  0  0
    7.4567   -6.9464   27.2858 C   0  0  0  0  0  0  0  0  0  0  0  0
    0.1921   -5.7592   27.1123 C   0  0  0  0  0  0  0  0  0  0  0  0
    3.5517   -7.7407   25.9711 C   0  0  0  0  0  0  0  0  0  0  0  0
  1  4  4  0
  1 22  4  0
  2 20  4  0
  2 27  4  0
  3 12  4  0
  3 23  4  0
  4 25  4  0
  4 28  1  0
  5  8  4  0
  5 17  4  0
  6  7  4  0
  6 16  4  0
  7 18  4  0
  8 27  4  0
  9 13  4  0
  9 23  4  0
 10 11  1  0
 11 14  2  0
 11 27  1  0
 12 19  1  0
 12 24  4  0
 13 24  4  0
 15 18  1  0
 16 25  4  0
 16 26  4  0
 17 20  4  0
 17 28  1  0
 18 21  4  0
 21 26  4  0
 22 26  4  0
M  END
$$$$

 Created by Python create_sdf_string function

 28 30  0  0  0  0  0  0  0  0999 V2000
    5.7174   -8.4529   26.7190 C   0  0  0  0  0  0  0  0  0  0  0  0
    0.3974   -7.0711   27.5149 C   0  0  0  0  0  0  0  0  0  0  0  0
    2.5338   -7.6891   16.0102 C   0  0  0  0  0  0  0  0  0  0  0  0
    4.8690   -7.4380   26.4151 C   0  0  0  0  0  0  0  0  0  0  0  0
    2.3021   -5.6726   26.0378 C   0  0  0  0  0  0  0  0  0  0  0  0
    7.0880   -4.6163   27.0010 C   0  0  0  0  0  0  0  0  0  0  0  0
    8.3117   -4.3698   27.4436 C   0  0  0  0  0  0  0  0  0  0  0  0
    1.1339   -5.0515   26.3541 C   0  0  0  0  0  0  0  0  0  0  0  0
    4.8080   -8.0362   16.7101 C   0  0  0  0  0  0  0  0  0  0  0  0
   -1.2173   -3.9294   26.9717 O   0  0  0  0  0  0  0  0  0  0  0  0
   -1.0025   -5.0942   27.4586 C   0  0  0  0  0  0  0  0  0  0  0  0
    2.2474   -8.9123   16.6273 C   0  0  0  0  0  0  0  0  0  0  0  0
    4.4957   -9.2636   17.3041 C   0  0  0  0  0  0  0  0  0  0  0  0
   -1.8070   -5.6086   28.1920 O   0  0  0  0  0  0  0  0  0  0  0  0
   10.4296   -5.1799   28.3140 C   0  0  0  0  0  0  0  0  0  0  0  0
    6.6017   -5.9004   26.9187 C   0  0  0  0  0  0  0  0  0  0  0  0
    2.4761   -6.9940   26.4111 N   0  0  0  0  0  0  0  0  0  0  0  0
    9.1353   -5.4053   27.8239 C   0  0  0  0  0  0  0  0  0  0  0  0
    0.9922   -9.3232   16.5995 O   0  0  0  0  0  0  0  0  0  0  0  0
    1.5232   -7.6869   27.1182 C   0  0  0  0  0  0  0  0  0  0  0  0
    8.6878   -6.6715   27.7262 N   0  0  0  0  0  0  0  0  0  0  0  0
    6.9911   -8.2423   27.1808 C   0  0  0  0  0  0  0  0  0  0  0  0
    3.8436   -7.2758   16.0578 C   0  0  0  0  0  0  0  0  0  0  0  0
    3.1882   -9.7190   17.2566 C   0  0  0  0  0  0  0  0  0  0  0  0
    5.3488   -6.1737   26.5092 C   0  0  0  0  0  0  0  0  0  0  0  0
    7.4567   -6.9464   27.2858 C   0  0  0  0  0  0  0  0  0  0  0  0
    0.1921   -5.7592   27.1123 C   0  0  0  0  0  0  0  0  0  0  0  0
    3.5517   -7.7407   25.9711 C   0  0  0  0  0  0  0  0  0  0  0  0
  1  4  4  0
  1 22  4  0
  2 20  4  0
  2 27  4  0
  3 12  4  0
  3 23  4  0
  4 25  4  0
  4 28  1  0
  5  8  4  0
  5 17  4  0
  6  7  4  0
  6 16  4  0
  7 18  4  0
  8 27  4  0
  9 13  4  0
  9 23  4  0
 10 11  1  0
 11 14  2  0
 11 27  1  0
 12 19  1  0
 12 24  4  0
 13 24  4  0
 15 18  1  0
 16 25  4  0
 16 26  4  0
 17 20  4  0
 17 28  1  0
 18 21  4  0
 21 26  4  0
 22 26  4  0
M  END
$$$$

 Created by Python create_sdf_string function

 28 30  0  0  0  0  0  0  0  0999 V2000
    5.7174   -8.4529   26.7190 C   0  0  0  0  0  0  0  0  0  0  0  0
    0.3974   -7.0711   27.5149 C   0  0  0  0  0  0  0  0  0  0  0  0
    2.5338   -7.6891   16.0102 C   0  0  0  0  0  0  0  0  0  0  0  0
    4.8690   -7.4380   26.4151 C   0  0  0  0  0  0  0  0  0  0  0  0
    2.3021   -5.6726   26.0378 C   0  0  0  0  0  0  0  0  0  0  0  0
    7.0880   -4.6163   27.0010 C   0  0  0  0  0  0  0  0  0  0  0  0
    8.3117   -4.3698   27.4436 C   0  0  0  0  0  0  0  0  0  0  0  0
    1.1339   -5.0515   26.3541 C   0  0  0  0  0  0  0  0  0  0  0  0
    4.8080   -8.0362   16.7101 C   0  0  0  0  0  0  0  0  0  0  0  0
   -1.2173   -3.9294   26.9717 O   0  0  0  0  0  0  0  0  0  0  0  0
   -1.0025   -5.0942   27.4586 C   0  0  0  0  0  0  0  0  0  0  0  0
    2.2474   -8.9123   16.6273 C   0  0  0  0  0  0  0  0  0  0  0  0
    4.4957   -9.2636   17.3041 C   0  0  0  0  0  0  0  0  0  0  0  0
   -1.8070   -5.6086   28.1920 O   0  0  0  0  0  0  0  0  0  0  0  0
   10.4296   -5.1799   28.3140 C   0  0  0  0  0  0  0  0  0  0  0  0
    6.6017   -5.9004   26.9187 C   0  0  0  0  0  0  0  0  0  0  0  0
    2.4761   -6.9940   26.4111 N   0  0  0  0  0  0  0  0  0  0  0  0
    9.1353   -5.4053   27.8239 C   0  0  0  0  0  0  0  0  0  0  0  0
    0.9922   -9.3232   16.5995 O   0  0  0  0  0  0  0  0  0  0  0  0
    1.5232   -7.6869   27.1182 C   0  0  0  0  0  0  0  0  0  0  0  0
    8.6878   -6.6715   27.7262 N   0  0  0  0  0  0  0  0  0  0  0  0
    6.9911   -8.2423   27.1808 C   0  0  0  0  0  0  0  0  0  0  0  0
    3.8436   -7.2758   16.0578 C   0  0  0  0  0  0  0  0  0  0  0  0
    3.1882   -9.7190   17.2566 C   0  0  0  0  0  0  0  0  0  0  0  0
    5.3488   -6.1737   26.5092 C   0  0  0  0  0  0  0  0  0  0  0  0
    7.4567   -6.9464   27.2858 C   0  0  0  0  0  0  0  0  0  0  0  0
    0.1921   -5.7592   27.1123 C   0  0  0  0  0  0  0  0  0  0  0  0
    3.5517   -7.7407   25.9711 C   0  0  0  0  0  0  0  0  0  0  0  0
  1  4  4  0
  1 22  4  0
  2 20  4  0
  2 27  4  0
  3 12  4  0
  3 23  4  0
  4 25  4  0
  4 28  1  0
  5  8  4  0
  5 17  4  0
  6  7  4  0
  6 16  4  0
  7 18  4  0
  8 27  4  0
  9 13  4  0
  9 23  4  0
 10 11  1  0
 11 14  2  0
 11 27  1  0
 12 19  1  0
 12 24  4  0
 13 24  4  0
 15 18  1  0
 16 25  4  0
 16 26  4  0
 17 20  4  0
 17 28  1  0
 18 21  4  0
 21 26  4  0
 22 26  4  0
M  END
$$$$

 Created by Python create_sdf_string function

 28 30  0  0  0  0  0  0  0  0999 V2000
    5.7174   -8.4529   26.7190 C   0  0  0  0  0  0  0  0  0  0  0  0
    0.3974   -7.0711   27.5149 C   0  0  0  0  0  0  0  0  0  0  0  0
    2.5338   -7.6891   16.0102 C   0  0  0  0  0  0  0  0  0  0  0  0
    4.8690   -7.4380   26.4151 C   0  0  0  0  0  0  0  0  0  0  0  0
    2.3021   -5.6726   26.0378 C   0  0  0  0  0  0  0  0  0  0  0  0
    7.0880   -4.6163   27.0010 C   0  0  0  0  0  0  0  0  0  0  0  0
    8.3117   -4.3698   27.4436 C   0  0  0  0  0  0  0  0  0  0  0  0
    1.1339   -5.0515   26.3541 C   0  0  0  0  0  0  0  0  0  0  0  0
    4.8080   -8.0362   16.7101 C   0  0  0  0  0  0  0  0  0  0  0  0
   -1.2173   -3.9294   26.9717 O   0  0  0  0  0  0  0  0  0  0  0  0
   -1.0025   -5.0942   27.4586 C   0  0  0  0  0  0  0  0  0  0  0  0
    2.2474   -8.9123   16.6273 C   0  0  0  0  0  0  0  0  0  0  0  0
    4.4957   -9.2636   17.3041 C   0  0  0  0  0  0  0  0  0  0  0  0
   -1.8070   -5.6086   28.1920 O   0  0  0  0  0  0  0  0  0  0  0  0
   10.4296   -5.1799   28.3140 C   0  0  0  0  0  0  0  0  0  0  0  0
    6.6017   -5.9004   26.9187 C   0  0  0  0  0  0  0  0  0  0  0  0
    2.4761   -6.9940   26.4111 N   0  0  0  0  0  0  0  0  0  0  0  0
    9.1353   -5.4053   27.8239 C   0  0  0  0  0  0  0  0  0  0  0  0
    0.9922   -9.3232   16.5995 O   0  0  0  0  0  0  0  0  0  0  0  0
    1.5232   -7.6869   27.1182 C   0  0  0  0  0  0  0  0  0  0  0  0
    8.6878   -6.6715   27.7262 N   0  0  0  0  0  0  0  0  0  0  0  0
    6.9911   -8.2423   27.1808 C   0  0  0  0  0  0  0  0  0  0  0  0
    3.8436   -7.2758   16.0578 C   0  0  0  0  0  0  0  0  0  0  0  0
    3.1882   -9.7190   17.2566 C   0  0  0  0  0  0  0  0  0  0  0  0
    5.3488   -6.1737   26.5092 C   0  0  0  0  0  0  0  0  0  0  0  0
    7.4567   -6.9464   27.2858 C   0  0  0  0  0  0  0  0  0  0  0  0
    0.1921   -5.7592   27.1123 C   0  0  0  0  0  0  0  0  0  0  0  0
    3.5517   -7.7407   25.9711 C   0  0  0  0  0  0  0  0  0  0  0  0
  1  4  4  0
  1 22  4  0
  2 20  4  0
  2 27  4  0
  3 12  4  0
  3 23  4  0
  4 25  4  0
  4 28  1  0
  5  8  4  0
  5 17  4  0
  6  7  4  0
  6 16  4  0
  7 18  4  0
  8 27  4  0
  9 13  4  0
  9 23  4  0
 10 11  1  0
 11 14  2  0
 11 27  1  0
 12 19  1  0
 12 24  4  0
 13 24  4  0
 15 18  1  0
 16 25  4  0
 16 26  4  0
 17 20  4  0
 17 28  1  0
 18 21  4  0
 21 26  4  0
 22 26  4  0
M  END
$$$$

 Created by Python create_sdf_string function

 28 30  0  0  0  0  0  0  0  0999 V2000
    5.7174   -8.4529   26.7190 C   0  0  0  0  0  0  0  0  0  0  0  0
    0.3974   -7.0711   27.5149 C   0  0  0  0  0  0  0  0  0  0  0  0
    2.5338   -7.6891   16.0102 C   0  0  0  0  0  0  0  0  0  0  0  0
    4.8690   -7.4380   26.4151 C   0  0  0  0  0  0  0  0  0  0  0  0
    2.3021   -5.6726   26.0378 C   0  0  0  0  0  0  0  0  0  0  0  0
    7.0880   -4.6163   27.0010 C   0  0  0  0  0  0  0  0  0  0  0  0
    8.3117   -4.3698   27.4436 C   0  0  0  0  0  0  0  0  0  0  0  0
    1.1339   -5.0515   26.3541 C   0  0  0  0  0  0  0  0  0  0  0  0
    4.8080   -8.0362   16.7101 C   0  0  0  0  0  0  0  0  0  0  0  0
   -1.2173   -3.9294   26.9717 O   0  0  0  0  0  0  0  0  0  0  0  0
   -1.0025   -5.0942   27.4586 C   0  0  0  0  0  0  0  0  0  0  0  0
    2.2474   -8.9123   16.6273 C   0  0  0  0  0  0  0  0  0  0  0  0
    4.4957   -9.2636   17.3041 C   0  0  0  0  0  0  0  0  0  0  0  0
   -1.8070   -5.6086   28.1920 O   0  0  0  0  0  0  0  0  0  0  0  0
   10.4296   -5.1799   28.3140 C   0  0  0  0  0  0  0  0  0  0  0  0
    6.6017   -5.9004   26.9187 C   0  0  0  0  0  0  0  0  0  0  0  0
    2.4761   -6.9940   26.4111 N   0  0  0  0  0  0  0  0  0  0  0  0
    9.1353   -5.4053   27.8239 C   0  0  0  0  0  0  0  0  0  0  0  0
    0.9922   -9.3232   16.5995 O   0  0  0  0  0  0  0  0  0  0  0  0
    1.5232   -7.6869   27.1182 C   0  0  0  0  0  0  0  0  0  0  0  0
    8.6878   -6.6715   27.7262 N   0  0  0  0  0  0  0  0  0  0  0  0
    6.9911   -8.2423   27.1808 C   0  0  0  0  0  0  0  0  0  0  0  0
    3.8436   -7.2758   16.0578 C   0  0  0  0  0  0  0  0  0  0  0  0
    3.1882   -9.7190   17.2566 C   0  0  0  0  0  0  0  0  0  0  0  0
    5.3488   -6.1737   26.5092 C   0  0  0  0  0  0  0  0  0  0  0  0
    7.4567   -6.9464   27.2858 C   0  0  0  0  0  0  0  0  0  0  0  0
    0.1921   -5.7592   27.1123 C   0  0  0  0  0  0  0  0  0  0  0  0
    3.5517   -7.7407   25.9711 C   0  0  0  0  0  0  0  0  0  0  0  0
  1  4  4  0
  1 22  4  0
  2 20  4  0
  2 27  4  0
  3 12  4  0
  3 23  4  0
  4 25  4  0
  4 28  1  0
  5  8  4  0
  5 17  4  0
  6  7  4  0
  6 16  4  0
  7 18  4  0
  8 27  4  0
  9 13  4  0
  9 23  4  0
 10 11  1  0
 11 14  2  0
 11 27  1  0
 12 19  1  0
 12 24  4  0
 13 24  4  0
 15 18  1  0
 16 25  4  0
 16 26  4  0
 17 20  4  0
 17 28  1  0
 18 21  4  0
 21 26  4  0
 22 26  4  0
M  END
$$$$

 Created by Python create_sdf_string function

 28 30  0  0  0  0  0  0  0  0999 V2000
    5.7174   -8.4529   26.7190 C   0  0  0  0  0  0  0  0  0  0  0  0
    0.3974   -7.0711   27.5149 C   0  0  0  0  0  0  0  0  0  0  0  0
    2.5338   -7.6891   16.0102 C   0  0  0  0  0  0  0  0  0  0  0  0
    4.8690   -7.4380   26.4151 C   0  0  0  0  0  0  0  0  0  0  0  0
    2.3021   -5.6726   26.0378 C   0  0  0  0  0  0  0  0  0  0  0  0
    7.0880   -4.6163   27.0010 C   0  0  0  0  0  0  0  0  0  0  0  0
    8.3117   -4.3698   27.4436 C   0  0  0  0  0  0  0  0  0  0  0  0
    1.1339   -5.0515   26.3541 C   0  0  0  0  0  0  0  0  0  0  0  0
    4.8080   -8.0362   16.7101 C   0  0  0  0  0  0  0  0  0  0  0  0
   -1.2173   -3.9294   26.9717 O   0  0  0  0  0  0  0  0  0  0  0  0
   -1.0025   -5.0942   27.4586 C   0  0  0  0  0  0  0  0  0  0  0  0
    2.2474   -8.9123   16.6273 C   0  0  0  0  0  0  0  0  0  0  0  0
    4.4957   -9.2636   17.3041 C   0  0  0  0  0  0  0  0  0  0  0  0
   -1.8070   -5.6086   28.1920 O   0  0  0  0  0  0  0  0  0  0  0  0
   10.4296   -5.1799   28.3140 C   0  0  0  0  0  0  0  0  0  0  0  0
    6.6017   -5.9004   26.9187 C   0  0  0  0  0  0  0  0  0  0  0  0
    2.4761   -6.9940   26.4111 N   0  0  0  0  0  0  0  0  0  0  0  0
    9.1353   -5.4053   27.8239 C   0  0  0  0  0  0  0  0  0  0  0  0
    0.9922   -9.3232   16.5995 O   0  0  0  0  0  0  0  0  0  0  0  0
    1.5232   -7.6869   27.1182 C   0  0  0  0  0  0  0  0  0  0  0  0
    8.6878   -6.6715   27.7262 N   0  0  0  0  0  0  0  0  0  0  0  0
    6.9911   -8.2423   27.1808 C   0  0  0  0  0  0  0  0  0  0  0  0
    3.8436   -7.2758   16.0578 C   0  0  0  0  0  0  0  0  0  0  0  0
    3.1882   -9.7190   17.2566 C   0  0  0  0  0  0  0  0  0  0  0  0
    5.3488   -6.1737   26.5092 C   0  0  0  0  0  0  0  0  0  0  0  0
    7.4567   -6.9464   27.2858 C   0  0  0  0  0  0  0  0  0  0  0  0
    0.1921   -5.7592   27.1123 C   0  0  0  0  0  0  0  0  0  0  0  0
    3.5517   -7.7407   25.9711 C   0  0  0  0  0  0  0  0  0  0  0  0
  1  4  4  0
  1 22  4  0
  2 20  4  0
  2 27  4  0
  3 12  4  0
  3 23  4  0
  4 25  4  0
  4 28  1  0
  5  8  4  0
  5 17  4  0
  6  7  4  0
  6 16  4  0
  7 18  4  0
  8 27  4  0
  9 13  4  0
  9 23  4  0
 10 11  1  0
 11 14  2  0
 11 27  1  0
 12 19  1  0
 12 24  4  0
 13 24  4  0
 15 18  1  0
 16 25  4  0
 16 26  4  0
 17 20  4  0
 17 28  1  0
 18 21  4  0
 21 26  4  0
 22 26  4  0
M  END
$$$$

 Created by Python create_sdf_string function

 28 30  0  0  0  0  0  0  0  0999 V2000
    5.7174   -8.4529   26.7190 C   0  0  0  0  0  0  0  0  0  0  0  0
    0.3974   -7.0711   27.5149 C   0  0  0  0  0  0  0  0  0  0  0  0
    2.5338   -7.6891   16.0102 C   0  0  0  0  0  0  0  0  0  0  0  0
    4.8690   -7.4380   26.4151 C   0  0  0  0  0  0  0  0  0  0  0  0
    2.3021   -5.6726   26.0378 C   0  0  0  0  0  0  0  0  0  0  0  0
    7.0880   -4.6163   27.0010 C   0  0  0  0  0  0  0  0  0  0  0  0
    8.3117   -4.3698   27.4436 C   0  0  0  0  0  0  0  0  0  0  0  0
    1.1339   -5.0515   26.3541 C   0  0  0  0  0  0  0  0  0  0  0  0
    4.8080   -8.0362   16.7101 C   0  0  0  0  0  0  0  0  0  0  0  0
   -1.2173   -3.9294   26.9717 O   0  0  0  0  0  0  0  0  0  0  0  0
   -1.0025   -5.0942   27.4586 C   0  0  0  0  0  0  0  0  0  0  0  0
    2.2474   -8.9123   16.6273 C   0  0  0  0  0  0  0  0  0  0  0  0
    4.4957   -9.2636   17.3041 C   0  0  0  0  0  0  0  0  0  0  0  0
   -1.8070   -5.6086   28.1920 O   0  0  0  0  0  0  0  0  0  0  0  0
   10.4296   -5.1799   28.3140 C   0  0  0  0  0  0  0  0  0  0  0  0
    6.6017   -5.9004   26.9187 C   0  0  0  0  0  0  0  0  0  0  0  0
    2.4761   -6.9940   26.4111 N   0  0  0  0  0  0  0  0  0  0  0  0
    9.1353   -5.4053   27.8239 C   0  0  0  0  0  0  0  0  0  0  0  0
    0.9922   -9.3232   16.5995 O   0  0  0  0  0  0  0  0  0  0  0  0
    1.5232   -7.6869   27.1182 C   0  0  0  0  0  0  0  0  0  0  0  0
    8.6878   -6.6715   27.7262 N   0  0  0  0  0  0  0  0  0  0  0  0
    6.9911   -8.2423   27.1808 C   0  0  0  0  0  0  0  0  0  0  0  0
    3.8436   -7.2758   16.0578 C   0  0  0  0  0  0  0  0  0  0  0  0
    3.1882   -9.7190   17.2566 C   0  0  0  0  0  0  0  0  0  0  0  0
    5.3488   -6.1737   26.5092 C   0  0  0  0  0  0  0  0  0  0  0  0
    7.4567   -6.9464   27.2858 C   0  0  0  0  0  0  0  0  0  0  0  0
    0.1921   -5.7592   27.1123 C   0  0  0  0  0  0  0  0  0  0  0  0
    3.5517   -7.7407   25.9711 C   0  0  0  0  0  0  0  0  0  0  0  0
  1  4  4  0
  1 22  4  0
  2 20  4  0
  2 27  4  0
  3 12  4  0
  3 23  4  0
  4 25  4  0
  4 28  1  0
  5  8  4  0
  5 17  4  0
  6  7  4  0
  6 16  4  0
  7 18  4  0
  8 27  4  0
  9 13  4  0
  9 23  4  0
 10 11  1  0
 11 14  2  0
 11 27  1  0
 12 19  1  0
 12 24  4  0
 13 24  4  0
 15 18  1  0
 16 25  4  0
 16 26  4  0
 17 20  4  0
 17 28  1  0
 18 21  4  0
 21 26  4  0
 22 26  4  0
M  END
$$$$

 Created by Python create_sdf_string function

 28 30  0  0  0  0  0  0  0  0999 V2000
    5.7174   -8.4529   26.7190 C   0  0  0  0  0  0  0  0  0  0  0  0
    0.3974   -7.0711   27.5149 C   0  0  0  0  0  0  0  0  0  0  0  0
    2.5338   -7.6891   16.0102 C   0  0  0  0  0  0  0  0  0  0  0  0
    4.8690   -7.4380   26.4151 C   0  0  0  0  0  0  0  0  0  0  0  0
    2.3021   -5.6726   26.0378 C   0  0  0  0  0  0  0  0  0  0  0  0
    7.0880   -4.6163   27.0010 C   0  0  0  0  0  0  0  0  0  0  0  0
    8.3117   -4.3698   27.4436 C   0  0  0  0  0  0  0  0  0  0  0  0
    1.1339   -5.0515   26.3541 C   0  0  0  0  0  0  0  0  0  0  0  0
    4.8080   -8.0362   16.7101 C   0  0  0  0  0  0  0  0  0  0  0  0
   -1.2173   -3.9294   26.9717 O   0  0  0  0  0  0  0  0  0  0  0  0
   -1.0025   -5.0942   27.4586 C   0  0  0  0  0  0  0  0  0  0  0  0
    2.2474   -8.9123   16.6273 C   0  0  0  0  0  0  0  0  0  0  0  0
    4.4957   -9.2636   17.3041 C   0  0  0  0  0  0  0  0  0  0  0  0
   -1.8070   -5.6086   28.1920 O   0  0  0  0  0  0  0  0  0  0  0  0
   10.4296   -5.1799   28.3140 C   0  0  0  0  0  0  0  0  0  0  0  0
    6.6017   -5.9004   26.9187 C   0  0  0  0  0  0  0  0  0  0  0  0
    2.4761   -6.9940   26.4111 N   0  0  0  0  0  0  0  0  0  0  0  0
    9.1353   -5.4053   27.8239 C   0  0  0  0  0  0  0  0  0  0  0  0
    0.9922   -9.3232   16.5995 O   0  0  0  0  0  0  0  0  0  0  0  0
    1.5232   -7.6869   27.1182 C   0  0  0  0  0  0  0  0  0  0  0  0
    8.6878   -6.6715   27.7262 N   0  0  0  0  0  0  0  0  0  0  0  0
    6.9911   -8.2423   27.1808 C   0  0  0  0  0  0  0  0  0  0  0  0
    3.8436   -7.2758   16.0578 C   0  0  0  0  0  0  0  0  0  0  0  0
    3.1882   -9.7190   17.2566 C   0  0  0  0  0  0  0  0  0  0  0  0
    5.3488   -6.1737   26.5092 C   0  0  0  0  0  0  0  0  0  0  0  0
    7.4567   -6.9464   27.2858 C   0  0  0  0  0  0  0  0  0  0  0  0
    0.1921   -5.7592   27.1123 C   0  0  0  0  0  0  0  0  0  0  0  0
    3.5517   -7.7407   25.9711 C   0  0  0  0  0  0  0  0  0  0  0  0
  1  4  4  0
  1 22  4  0
  2 20  4  0
  2 27  4  0
  3 12  4  0
  3 23  4  0
  4 25  4  0
  4 28  1  0
  5  8  4  0
  5 17  4  0
  6  7  4  0
  6 16  4  0
  7 18  4  0
  8 27  4  0
  9 13  4  0
  9 23  4  0
 10 11  1  0
 11 14  2  0
 11 27  1  0
 12 19  1  0
 12 24  4  0
 13 24  4  0
 15 18  1  0
 16 25  4  0
 16 26  4  0
 17 20  4  0
 17 28  1  0
 18 21  4  0
 21 26  4  0
 22 26  4  0
M  END
$$$$

 Created by Python create_sdf_string function

 28 30  0  0  0  0  0  0  0  0999 V2000
    5.7174   -8.4529   26.7190 C   0  0  0  0  0  0  0  0  0  0  0  0
    0.3974   -7.0711   27.5149 C   0  0  0  0  0  0  0  0  0  0  0  0
    2.5338   -7.6891   16.0102 C   0  0  0  0  0  0  0  0  0  0  0  0
    4.8690   -7.4380   26.4151 C   0  0  0  0  0  0  0  0  0  0  0  0
    2.3021   -5.6726   26.0378 C   0  0  0  0  0  0  0  0  0  0  0  0
    7.0880   -4.6163   27.0010 C   0  0  0  0  0  0  0  0  0  0  0  0
    8.3117   -4.3698   27.4436 C   0  0  0  0  0  0  0  0  0  0  0  0
    1.1339   -5.0515   26.3541 C   0  0  0  0  0  0  0  0  0  0  0  0
    4.8080   -8.0362   16.7101 C   0  0  0  0  0  0  0  0  0  0  0  0
   -1.2173   -3.9294   26.9717 O   0  0  0  0  0  0  0  0  0  0  0  0
   -1.0025   -5.0942   27.4586 C   0  0  0  0  0  0  0  0  0  0  0  0
    2.2474   -8.9123   16.6273 C   0  0  0  0  0  0  0  0  0  0  0  0
    4.4957   -9.2636   17.3041 C   0  0  0  0  0  0  0  0  0  0  0  0
   -1.8070   -5.6086   28.1920 O   0  0  0  0  0  0  0  0  0  0  0  0
   10.4296   -5.1799   28.3140 C   0  0  0  0  0  0  0  0  0  0  0  0
    6.6017   -5.9004   26.9187 C   0  0  0  0  0  0  0  0  0  0  0  0
    2.4761   -6.9940   26.4111 N   0  0  0  0  0  0  0  0  0  0  0  0
    9.1353   -5.4053   27.8239 C   0  0  0  0  0  0  0  0  0  0  0  0
    0.9922   -9.3232   16.5995 O   0  0  0  0  0  0  0  0  0  0  0  0
    1.5232   -7.6869   27.1182 C   0  0  0  0  0  0  0  0  0  0  0  0
    8.6878   -6.6715   27.7262 N   0  0  0  0  0  0  0  0  0  0  0  0
    6.9911   -8.2423   27.1808 C   0  0  0  0  0  0  0  0  0  0  0  0
    3.8436   -7.2758   16.0578 C   0  0  0  0  0  0  0  0  0  0  0  0
    3.1882   -9.7190   17.2566 C   0  0  0  0  0  0  0  0  0  0  0  0
    5.3488   -6.1737   26.5092 C   0  0  0  0  0  0  0  0  0  0  0  0
    7.4567   -6.9464   27.2858 C   0  0  0  0  0  0  0  0  0  0  0  0
    0.1921   -5.7592   27.1123 C   0  0  0  0  0  0  0  0  0  0  0  0
    3.5517   -7.7407   25.9711 C   0  0  0  0  0  0  0  0  0  0  0  0
  1  4  4  0
  1 22  4  0
  2 20  4  0
  2 27  4  0
  3 12  4  0
  3 23  4  0
  4 25  4  0
  4 28  1  0
  5  8  4  0
  5 17  4  0
  6  7  4  0
  6 16  4  0
  7 18  4  0
  8 27  4  0
  9 13  4  0
  9 23  4  0
 10 11  1  0
 11 14  2  0
 11 27  1  0
 12 19  1  0
 12 24  4  0
 13 24  4  0
 15 18  1  0
 16 25  4  0
 16 26  4  0
 17 20  4  0
 17 28  1  0
 18 21  4  0
 21 26  4  0
 22 26  4  0
M  END
$$$$

 Created by Python create_sdf_string function

 28 30  0  0  0  0  0  0  0  0999 V2000
    5.7174   -8.4529   26.7190 C   0  0  0  0  0  0  0  0  0  0  0  0
    0.3974   -7.0711   27.5149 C   0  0  0  0  0  0  0  0  0  0  0  0
    2.5338   -7.6891   16.0102 C   0  0  0  0  0  0  0  0  0  0  0  0
    4.8690   -7.4380   26.4151 C   0  0  0  0  0  0  0  0  0  0  0  0
    2.3021   -5.6726   26.0378 C   0  0  0  0  0  0  0  0  0  0  0  0
    7.0880   -4.6163   27.0010 C   0  0  0  0  0  0  0  0  0  0  0  0
    8.3117   -4.3698   27.4436 C   0  0  0  0  0  0  0  0  0  0  0  0
    1.1339   -5.0515   26.3541 C   0  0  0  0  0  0  0  0  0  0  0  0
    4.8080   -8.0362   16.7101 C   0  0  0  0  0  0  0  0  0  0  0  0
   -1.2173   -3.9294   26.9717 O   0  0  0  0  0  0  0  0  0  0  0  0
   -1.0025   -5.0942   27.4586 C   0  0  0  0  0  0  0  0  0  0  0  0
    2.2474   -8.9123   16.6273 C   0  0  0  0  0  0  0  0  0  0  0  0
    4.4957   -9.2636   17.3041 C   0  0  0  0  0  0  0  0  0  0  0  0
   -1.8070   -5.6086   28.1920 O   0  0  0  0  0  0  0  0  0  0  0  0
   10.4296   -5.1799   28.3140 C   0  0  0  0  0  0  0  0  0  0  0  0
    6.6017   -5.9004   26.9187 C   0  0  0  0  0  0  0  0  0  0  0  0
    2.4761   -6.9940   26.4111 N   0  0  0  0  0  0  0  0  0  0  0  0
    9.1353   -5.4053   27.8239 C   0  0  0  0  0  0  0  0  0  0  0  0
    0.9922   -9.3232   16.5995 O   0  0  0  0  0  0  0  0  0  0  0  0
    1.5232   -7.6869   27.1182 C   0  0  0  0  0  0  0  0  0  0  0  0
    8.6878   -6.6715   27.7262 N   0  0  0  0  0  0  0  0  0  0  0  0
    6.9911   -8.2423   27.1808 C   0  0  0  0  0  0  0  0  0  0  0  0
    3.8436   -7.2758   16.0578 C   0  0  0  0  0  0  0  0  0  0  0  0
    3.1882   -9.7190   17.2566 C   0  0  0  0  0  0  0  0  0  0  0  0
    5.3488   -6.1737   26.5092 C   0  0  0  0  0  0  0  0  0  0  0  0
    7.4567   -6.9464   27.2858 C   0  0  0  0  0  0  0  0  0  0  0  0
    0.1921   -5.7592   27.1123 C   0  0  0  0  0  0  0  0  0  0  0  0
    3.5517   -7.7407   25.9711 C   0  0  0  0  0  0  0  0  0  0  0  0
  1  4  4  0
  1 22  4  0
  2 20  4  0
  2 27  4  0
  3 12  4  0
  3 23  4  0
  4 25  4  0
  4 28  1  0
  5  8  4  0
  5 17  4  0
  6  7  4  0
  6 16  4  0
  7 18  4  0
  8 27  4  0
  9 13  4  0
  9 23  4  0
 10 11  1  0
 11 14  2  0
 11 27  1  0
 12 19  1  0
 12 24  4  0
 13 24  4  0
 15 18  1  0
 16 25  4  0
 16 26  4  0
 17 20  4  0
 17 28  1  0
 18 21  4  0
 21 26  4  0
 22 26  4  0
M  END
$$$$

 Created by Python create_sdf_string function

 28 30  0  0  0  0  0  0  0  0999 V2000
    5.7174   -8.4529   26.7190 C   0  0  0  0  0  0  0  0  0  0  0  0
    0.3974   -7.0711   27.5149 C   0  0  0  0  0  0  0  0  0  0  0  0
    2.5338   -7.6891   16.0102 C   0  0  0  0  0  0  0  0  0  0  0  0
    4.8690   -7.4380   26.4151 C   0  0  0  0  0  0  0  0  0  0  0  0
    2.3021   -5.6726   26.0378 C   0  0  0  0  0  0  0  0  0  0  0  0
    7.0880   -4.6163   27.0010 C   0  0  0  0  0  0  0  0  0  0  0  0
    8.3117   -4.3698   27.4436 C   0  0  0  0  0  0  0  0  0  0  0  0
    1.1339   -5.0515   26.3541 C   0  0  0  0  0  0  0  0  0  0  0  0
    4.8080   -8.0362   16.7101 C   0  0  0  0  0  0  0  0  0  0  0  0
   -1.2173   -3.9294   26.9717 O   0  0  0  0  0  0  0  0  0  0  0  0
   -1.0025   -5.0942   27.4586 C   0  0  0  0  0  0  0  0  0  0  0  0
    2.2474   -8.9123   16.6273 C   0  0  0  0  0  0  0  0  0  0  0  0
    4.4957   -9.2636   17.3041 C   0  0  0  0  0  0  0  0  0  0  0  0
   -1.8070   -5.6086   28.1920 O   0  0  0  0  0  0  0  0  0  0  0  0
   10.4296   -5.1799   28.3140 C   0  0  0  0  0  0  0  0  0  0  0  0
    6.6017   -5.9004   26.9187 C   0  0  0  0  0  0  0  0  0  0  0  0
    2.4761   -6.9940   26.4111 N   0  0  0  0  0  0  0  0  0  0  0  0
    9.1353   -5.4053   27.8239 C   0  0  0  0  0  0  0  0  0  0  0  0
    0.9922   -9.3232   16.5995 O   0  0  0  0  0  0  0  0  0  0  0  0
    1.5232   -7.6869   27.1182 C   0  0  0  0  0  0  0  0  0  0  0  0
    8.6878   -6.6715   27.7262 N   0  0  0  0  0  0  0  0  0  0  0  0
    6.9911   -8.2423   27.1808 C   0  0  0  0  0  0  0  0  0  0  0  0
    3.8436   -7.2758   16.0578 C   0  0  0  0  0  0  0  0  0  0  0  0
    3.1882   -9.7190   17.2566 C   0  0  0  0  0  0  0  0  0  0  0  0
    5.3488   -6.1737   26.5092 C   0  0  0  0  0  0  0  0  0  0  0  0
    7.4567   -6.9464   27.2858 C   0  0  0  0  0  0  0  0  0  0  0  0
    0.1921   -5.7592   27.1123 C   0  0  0  0  0  0  0  0  0  0  0  0
    3.5517   -7.7407   25.9711 C   0  0  0  0  0  0  0  0  0  0  0  0
  1  4  4  0
  1 22  4  0
  2 20  4  0
  2 27  4  0
  3 12  4  0
  3 23  4  0
  4 25  4  0
  4 28  1  0
  5  8  4  0
  5 17  4  0
  6  7  4  0
  6 16  4  0
  7 18  4  0
  8 27  4  0
  9 13  4  0
  9 23  4  0
 10 11  1  0
 11 14  2  0
 11 27  1  0
 12 19  1  0
 12 24  4  0
 13 24  4  0
 15 18  1  0
 16 25  4  0
 16 26  4  0
 17 20  4  0
 17 28  1  0
 18 21  4  0
 21 26  4  0
 22 26  4  0
M  END
$$$$

 Created by Python create_sdf_string function

 28 30  0  0  0  0  0  0  0  0999 V2000
    5.7174   -8.4529   26.7190 C   0  0  0  0  0  0  0  0  0  0  0  0
    0.3974   -7.0711   27.5149 C   0  0  0  0  0  0  0  0  0  0  0  0
    2.5338   -7.6891   16.0102 C   0  0  0  0  0  0  0  0  0  0  0  0
    4.8690   -7.4380   26.4151 C   0  0  0  0  0  0  0  0  0  0  0  0
    2.3021   -5.6726   26.0378 C   0  0  0  0  0  0  0  0  0  0  0  0
    7.0880   -4.6163   27.0010 C   0  0  0  0  0  0  0  0  0  0  0  0
    8.3117   -4.3698   27.4436 C   0  0  0  0  0  0  0  0  0  0  0  0
    1.1339   -5.0515   26.3541 C   0  0  0  0  0  0  0  0  0  0  0  0
    4.8080   -8.0362   16.7101 C   0  0  0  0  0  0  0  0  0  0  0  0
   -1.2173   -3.9294   26.9717 O   0  0  0  0  0  0  0  0  0  0  0  0
   -1.0025   -5.0942   27.4586 C   0  0  0  0  0  0  0  0  0  0  0  0
    2.2474   -8.9123   16.6273 C   0  0  0  0  0  0  0  0  0  0  0  0
    4.4957   -9.2636   17.3041 C   0  0  0  0  0  0  0  0  0  0  0  0
   -1.8070   -5.6086   28.1920 O   0  0  0  0  0  0  0  0  0  0  0  0
   10.4296   -5.1799   28.3140 C   0  0  0  0  0  0  0  0  0  0  0  0
    6.6017   -5.9004   26.9187 C   0  0  0  0  0  0  0  0  0  0  0  0
    2.4761   -6.9940   26.4111 N   0  0  0  0  0  0  0  0  0  0  0  0
    9.1353   -5.4053   27.8239 C   0  0  0  0  0  0  0  0  0  0  0  0
    0.9922   -9.3232   16.5995 O   0  0  0  0  0  0  0  0  0  0  0  0
    1.5232   -7.6869   27.1182 C   0  0  0  0  0  0  0  0  0  0  0  0
    8.6878   -6.6715   27.7262 N   0  0  0  0  0  0  0  0  0  0  0  0
    6.9911   -8.2423   27.1808 C   0  0  0  0  0  0  0  0  0  0  0  0
    3.8436   -7.2758   16.0578 C   0  0  0  0  0  0  0  0  0  0  0  0
    3.1882   -9.7190   17.2566 C   0  0  0  0  0  0  0  0  0  0  0  0
    5.3488   -6.1737   26.5092 C   0  0  0  0  0  0  0  0  0  0  0  0
    7.4567   -6.9464   27.2858 C   0  0  0  0  0  0  0  0  0  0  0  0
    0.1921   -5.7592   27.1123 C   0  0  0  0  0  0  0  0  0  0  0  0
    3.5517   -7.7407   25.9711 C   0  0  0  0  0  0  0  0  0  0  0  0
  1  4  4  0
  1 22  4  0
  2 20  4  0
  2 27  4  0
  3 12  4  0
  3 23  4  0
  4 25  4  0
  4 28  1  0
  5  8  4  0
  5 17  4  0
  6  7  4  0
  6 16  4  0
  7 18  4  0
  8 27  4  0
  9 13  4  0
  9 23  4  0
 10 11  1  0
 11 14  2  0
 11 27  1  0
 12 19  1  0
 12 24  4  0
 13 24  4  0
 15 18  1  0
 16 25  4  0
 16 26  4  0
 17 20  4  0
 17 28  1  0
 18 21  4  0
 21 26  4  0
 22 26  4  0
M  END
$$$$

 Created by Python create_sdf_string function

 28 30  0  0  0  0  0  0  0  0999 V2000
    5.7174   -8.4529   26.7190 C   0  0  0  0  0  0  0  0  0  0  0  0
    0.3974   -7.0711   27.5149 C   0  0  0  0  0  0  0  0  0  0  0  0
    2.5338   -7.6891   16.0102 C   0  0  0  0  0  0  0  0  0  0  0  0
    4.8690   -7.4380   26.4151 C   0  0  0  0  0  0  0  0  0  0  0  0
    2.3021   -5.6726   26.0378 C   0  0  0  0  0  0  0  0  0  0  0  0
    7.0880   -4.6163   27.0010 C   0  0  0  0  0  0  0  0  0  0  0  0
    8.3117   -4.3698   27.4436 C   0  0  0  0  0  0  0  0  0  0  0  0
    1.1339   -5.0515   26.3541 C   0  0  0  0  0  0  0  0  0  0  0  0
    4.8080   -8.0362   16.7101 C   0  0  0  0  0  0  0  0  0  0  0  0
   -1.2173   -3.9294   26.9717 O   0  0  0  0  0  0  0  0  0  0  0  0
   -1.0025   -5.0942   27.4586 C   0  0  0  0  0  0  0  0  0  0  0  0
    2.2474   -8.9123   16.6273 C   0  0  0  0  0  0  0  0  0  0  0  0
    4.4957   -9.2636   17.3041 C   0  0  0  0  0  0  0  0  0  0  0  0
   -1.8070   -5.6086   28.1920 O   0  0  0  0  0  0  0  0  0  0  0  0
   10.4296   -5.1799   28.3140 C   0  0  0  0  0  0  0  0  0  0  0  0
    6.6017   -5.9004   26.9187 C   0  0  0  0  0  0  0  0  0  0  0  0
    2.4761   -6.9940   26.4111 N   0  0  0  0  0  0  0  0  0  0  0  0
    9.1353   -5.4053   27.8239 C   0  0  0  0  0  0  0  0  0  0  0  0
    0.9922   -9.3232   16.5995 O   0  0  0  0  0  0  0  0  0  0  0  0
    1.5232   -7.6869   27.1182 C   0  0  0  0  0  0  0  0  0  0  0  0
    8.6878   -6.6715   27.7262 N   0  0  0  0  0  0  0  0  0  0  0  0
    6.9911   -8.2423   27.1808 C   0  0  0  0  0  0  0  0  0  0  0  0
    3.8436   -7.2758   16.0578 C   0  0  0  0  0  0  0  0  0  0  0  0
    3.1882   -9.7190   17.2566 C   0  0  0  0  0  0  0  0  0  0  0  0
    5.3488   -6.1737   26.5092 C   0  0  0  0  0  0  0  0  0  0  0  0
    7.4567   -6.9464   27.2858 C   0  0  0  0  0  0  0  0  0  0  0  0
    0.1921   -5.7592   27.1123 C   0  0  0  0  0  0  0  0  0  0  0  0
    3.5517   -7.7407   25.9711 C   0  0  0  0  0  0  0  0  0  0  0  0
  1  4  4  0
  1 22  4  0
  2 20  4  0
  2 27  4  0
  3 12  4  0
  3 23  4  0
  4 25  4  0
  4 28  1  0
  5  8  4  0
  5 17  4  0
  6  7  4  0
  6 16  4  0
  7 18  4  0
  8 27  4  0
  9 13  4  0
  9 23  4  0
 10 11  1  0
 11 14  2  0
 11 27  1  0
 12 19  1  0
 12 24  4  0
 13 24  4  0
 15 18  1  0
 16 25  4  0
 16 26  4  0
 17 20  4  0
 17 28  1  0
 18 21  4  0
 21 26  4  0
 22 26  4  0
M  END
$$$$

 Created by Python create_sdf_string function

 28 30  0  0  0  0  0  0  0  0999 V2000
    5.7174   -8.4529   26.7190 C   0  0  0  0  0  0  0  0  0  0  0  0
    0.3974   -7.0711   27.5149 C   0  0  0  0  0  0  0  0  0  0  0  0
    2.5338   -7.6891   16.0102 C   0  0  0  0  0  0  0  0  0  0  0  0
    4.8690   -7.4380   26.4151 C   0  0  0  0  0  0  0  0  0  0  0  0
    2.3021   -5.6726   26.0378 C   0  0  0  0  0  0  0  0  0  0  0  0
    7.0880   -4.6163   27.0010 C   0  0  0  0  0  0  0  0  0  0  0  0
    8.3117   -4.3698   27.4436 C   0  0  0  0  0  0  0  0  0  0  0  0
    1.1339   -5.0515   26.3541 C   0  0  0  0  0  0  0  0  0  0  0  0
    4.8080   -8.0362   16.7101 C   0  0  0  0  0  0  0  0  0  0  0  0
   -1.2173   -3.9294   26.9717 O   0  0  0  0  0  0  0  0  0  0  0  0
   -1.0025   -5.0942   27.4586 C   0  0  0  0  0  0  0  0  0  0  0  0
    2.2474   -8.9123   16.6273 C   0  0  0  0  0  0  0  0  0  0  0  0
    4.4957   -9.2636   17.3041 C   0  0  0  0  0  0  0  0  0  0  0  0
   -1.8070   -5.6086   28.1920 O   0  0  0  0  0  0  0  0  0  0  0  0
   10.4296   -5.1799   28.3140 C   0  0  0  0  0  0  0  0  0  0  0  0
    6.6017   -5.9004   26.9187 C   0  0  0  0  0  0  0  0  0  0  0  0
    2.4761   -6.9940   26.4111 N   0  0  0  0  0  0  0  0  0  0  0  0
    9.1353   -5.4053   27.8239 C   0  0  0  0  0  0  0  0  0  0  0  0
    0.9922   -9.3232   16.5995 O   0  0  0  0  0  0  0  0  0  0  0  0
    1.5232   -7.6869   27.1182 C   0  0  0  0  0  0  0  0  0  0  0  0
    8.6878   -6.6715   27.7262 N   0  0  0  0  0  0  0  0  0  0  0  0
    6.9911   -8.2423   27.1808 C   0  0  0  0  0  0  0  0  0  0  0  0
    3.8436   -7.2758   16.0578 C   0  0  0  0  0  0  0  0  0  0  0  0
    3.1882   -9.7190   17.2566 C   0  0  0  0  0  0  0  0  0  0  0  0
    5.3488   -6.1737   26.5092 C   0  0  0  0  0  0  0  0  0  0  0  0
    7.4567   -6.9464   27.2858 C   0  0  0  0  0  0  0  0  0  0  0  0
    0.1921   -5.7592   27.1123 C   0  0  0  0  0  0  0  0  0  0  0  0
    3.5517   -7.7407   25.9711 C   0  0  0  0  0  0  0  0  0  0  0  0
  1  4  4  0
  1 22  4  0
  2 20  4  0
  2 27  4  0
  3 12  4  0
  3 23  4  0
  4 25  4  0
  4 28  1  0
  5  8  4  0
  5 17  4  0
  6  7  4  0
  6 16  4  0
  7 18  4  0
  8 27  4  0
  9 13  4  0
  9 23  4  0
 10 11  1  0
 11 14  2  0
 11 27  1  0
 12 19  1  0
 12 24  4  0
 13 24  4  0
 15 18  1  0
 16 25  4  0
 16 26  4  0
 17 20  4  0
 17 28  1  0
 18 21  4  0
 21 26  4  0
 22 26  4  0
M  END
$$$$

 Created by Python create_sdf_string function

 28 30  0  0  0  0  0  0  0  0999 V2000
    5.7174   -8.4529   26.7190 C   0  0  0  0  0  0  0  0  0  0  0  0
    0.3974   -7.0711   27.5149 C   0  0  0  0  0  0  0  0  0  0  0  0
    2.5338   -7.6891   16.0102 C   0  0  0  0  0  0  0  0  0  0  0  0
    4.8690   -7.4380   26.4151 C   0  0  0  0  0  0  0  0  0  0  0  0
    2.3021   -5.6726   26.0378 C   0  0  0  0  0  0  0  0  0  0  0  0
    7.0880   -4.6163   27.0010 C   0  0  0  0  0  0  0  0  0  0  0  0
    8.3117   -4.3698   27.4436 C   0  0  0  0  0  0  0  0  0  0  0  0
    1.1339   -5.0515   26.3541 C   0  0  0  0  0  0  0  0  0  0  0  0
    4.8080   -8.0362   16.7101 C   0  0  0  0  0  0  0  0  0  0  0  0
   -1.2173   -3.9294   26.9717 O   0  0  0  0  0  0  0  0  0  0  0  0
   -1.0025   -5.0942   27.4586 C   0  0  0  0  0  0  0  0  0  0  0  0
    2.2474   -8.9123   16.6273 C   0  0  0  0  0  0  0  0  0  0  0  0
    4.4957   -9.2636   17.3041 C   0  0  0  0  0  0  0  0  0  0  0  0
   -1.8070   -5.6086   28.1920 O   0  0  0  0  0  0  0  0  0  0  0  0
   10.4296   -5.1799   28.3140 C   0  0  0  0  0  0  0  0  0  0  0  0
    6.6017   -5.9004   26.9187 C   0  0  0  0  0  0  0  0  0  0  0  0
    2.4761   -6.9940   26.4111 N   0  0  0  0  0  0  0  0  0  0  0  0
    9.1353   -5.4053   27.8239 C   0  0  0  0  0  0  0  0  0  0  0  0
    0.9922   -9.3232   16.5995 O   0  0  0  0  0  0  0  0  0  0  0  0
    1.5232   -7.6869   27.1182 C   0  0  0  0  0  0  0  0  0  0  0  0
    8.6878   -6.6715   27.7262 N   0  0  0  0  0  0  0  0  0  0  0  0
    6.9911   -8.2423   27.1808 C   0  0  0  0  0  0  0  0  0  0  0  0
    3.8436   -7.2758   16.0578 C   0  0  0  0  0  0  0  0  0  0  0  0
    3.1882   -9.7190   17.2566 C   0  0  0  0  0  0  0  0  0  0  0  0
    5.3488   -6.1737   26.5092 C   0  0  0  0  0  0  0  0  0  0  0  0
    7.4567   -6.9464   27.2858 C   0  0  0  0  0  0  0  0  0  0  0  0
    0.1921   -5.7592   27.1123 C   0  0  0  0  0  0  0  0  0  0  0  0
    3.5517   -7.7407   25.9711 C   0  0  0  0  0  0  0  0  0  0  0  0
  1  4  4  0
  1 22  4  0
  2 20  4  0
  2 27  4  0
  3 12  4  0
  3 23  4  0
  4 25  4  0
  4 28  1  0
  5  8  4  0
  5 17  4  0
  6  7  4  0
  6 16  4  0
  7 18  4  0
  8 27  4  0
  9 13  4  0
  9 23  4  0
 10 11  1  0
 11 14  2  0
 11 27  1  0
 12 19  1  0
 12 24  4  0
 13 24  4  0
 15 18  1  0
 16 25  4  0
 16 26  4  0
 17 20  4  0
 17 28  1  0
 18 21  4  0
 21 26  4  0
 22 26  4  0
M  END
$$$$

 Created by Python create_sdf_string function

 28 30  0  0  0  0  0  0  0  0999 V2000
    5.7174   -8.4529   26.7190 C   0  0  0  0  0  0  0  0  0  0  0  0
    0.3974   -7.0711   27.5149 C   0  0  0  0  0  0  0  0  0  0  0  0
    2.5338   -7.6891   16.0102 C   0  0  0  0  0  0  0  0  0  0  0  0
    4.8690   -7.4380   26.4151 C   0  0  0  0  0  0  0  0  0  0  0  0
    2.3021   -5.6726   26.0378 C   0  0  0  0  0  0  0  0  0  0  0  0
    7.0880   -4.6163   27.0010 C   0  0  0  0  0  0  0  0  0  0  0  0
    8.3117   -4.3698   27.4436 C   0  0  0  0  0  0  0  0  0  0  0  0
    1.1339   -5.0515   26.3541 C   0  0  0  0  0  0  0  0  0  0  0  0
    4.8080   -8.0362   16.7101 C   0  0  0  0  0  0  0  0  0  0  0  0
   -1.2173   -3.9294   26.9717 O   0  0  0  0  0  0  0  0  0  0  0  0
   -1.0025   -5.0942   27.4586 C   0  0  0  0  0  0  0  0  0  0  0  0
    2.2474   -8.9123   16.6273 C   0  0  0  0  0  0  0  0  0  0  0  0
    4.4957   -9.2636   17.3041 C   0  0  0  0  0  0  0  0  0  0  0  0
   -1.8070   -5.6086   28.1920 O   0  0  0  0  0  0  0  0  0  0  0  0
   10.4296   -5.1799   28.3140 C   0  0  0  0  0  0  0  0  0  0  0  0
    6.6017   -5.9004   26.9187 C   0  0  0  0  0  0  0  0  0  0  0  0
    2.4761   -6.9940   26.4111 N   0  0  0  0  0  0  0  0  0  0  0  0
    9.1353   -5.4053   27.8239 C   0  0  0  0  0  0  0  0  0  0  0  0
    0.9922   -9.3232   16.5995 O   0  0  0  0  0  0  0  0  0  0  0  0
    1.5232   -7.6869   27.1182 C   0  0  0  0  0  0  0  0  0  0  0  0
    8.6878   -6.6715   27.7262 N   0  0  0  0  0  0  0  0  0  0  0  0
    6.9911   -8.2423   27.1808 C   0  0  0  0  0  0  0  0  0  0  0  0
    3.8436   -7.2758   16.0578 C   0  0  0  0  0  0  0  0  0  0  0  0
    3.1882   -9.7190   17.2566 C   0  0  0  0  0  0  0  0  0  0  0  0
    5.3488   -6.1737   26.5092 C   0  0  0  0  0  0  0  0  0  0  0  0
    7.4567   -6.9464   27.2858 C   0  0  0  0  0  0  0  0  0  0  0  0
    0.1921   -5.7592   27.1123 C   0  0  0  0  0  0  0  0  0  0  0  0
    3.5517   -7.7407   25.9711 C   0  0  0  0  0  0  0  0  0  0  0  0
  1  4  4  0
  1 22  4  0
  2 20  4  0
  2 27  4  0
  3 12  4  0
  3 23  4  0
  4 25  4  0
  4 28  1  0
  5  8  4  0
  5 17  4  0
  6  7  4  0
  6 16  4  0
  7 18  4  0
  8 27  4  0
  9 13  4  0
  9 23  4  0
 10 11  1  0
 11 14  2  0
 11 27  1  0
 12 19  1  0
 12 24  4  0
 13 24  4  0
 15 18  1  0
 16 25  4  0
 16 26  4  0
 17 20  4  0
 17 28  1  0
 18 21  4  0
 21 26  4  0
 22 26  4  0
M  END
$$$$

 Created by Python create_sdf_string function

 28 30  0  0  0  0  0  0  0  0999 V2000
    5.7174   -8.4529   26.7190 C   0  0  0  0  0  0  0  0  0  0  0  0
    0.3974   -7.0711   27.5149 C   0  0  0  0  0  0  0  0  0  0  0  0
    2.5338   -7.6891   16.0102 C   0  0  0  0  0  0  0  0  0  0  0  0
    4.8690   -7.4380   26.4151 C   0  0  0  0  0  0  0  0  0  0  0  0
    2.3021   -5.6726   26.0378 C   0  0  0  0  0  0  0  0  0  0  0  0
    7.0880   -4.6163   27.0010 C   0  0  0  0  0  0  0  0  0  0  0  0
    8.3117   -4.3698   27.4436 C   0  0  0  0  0  0  0  0  0  0  0  0
    1.1339   -5.0515   26.3541 C   0  0  0  0  0  0  0  0  0  0  0  0
    4.8080   -8.0362   16.7101 C   0  0  0  0  0  0  0  0  0  0  0  0
   -1.2173   -3.9294   26.9717 O   0  0  0  0  0  0  0  0  0  0  0  0
   -1.0025   -5.0942   27.4586 C   0  0  0  0  0  0  0  0  0  0  0  0
    2.2474   -8.9123   16.6273 C   0  0  0  0  0  0  0  0  0  0  0  0
    4.4957   -9.2636   17.3041 C   0  0  0  0  0  0  0  0  0  0  0  0
   -1.8070   -5.6086   28.1920 O   0  0  0  0  0  0  0  0  0  0  0  0
   10.4296   -5.1799   28.3140 C   0  0  0  0  0  0  0  0  0  0  0  0
    6.6017   -5.9004   26.9187 C   0  0  0  0  0  0  0  0  0  0  0  0
    2.4761   -6.9940   26.4111 N   0  0  0  0  0  0  0  0  0  0  0  0
    9.1353   -5.4053   27.8239 C   0  0  0  0  0  0  0  0  0  0  0  0
    0.9922   -9.3232   16.5995 O   0  0  0  0  0  0  0  0  0  0  0  0
    1.5232   -7.6869   27.1182 C   0  0  0  0  0  0  0  0  0  0  0  0
    8.6878   -6.6715   27.7262 N   0  0  0  0  0  0  0  0  0  0  0  0
    6.9911   -8.2423   27.1808 C   0  0  0  0  0  0  0  0  0  0  0  0
    3.8436   -7.2758   16.0578 C   0  0  0  0  0  0  0  0  0  0  0  0
    3.1882   -9.7190   17.2566 C   0  0  0  0  0  0  0  0  0  0  0  0
    5.3488   -6.1737   26.5092 C   0  0  0  0  0  0  0  0  0  0  0  0
    7.4567   -6.9464   27.2858 C   0  0  0  0  0  0  0  0  0  0  0  0
    0.1921   -5.7592   27.1123 C   0  0  0  0  0  0  0  0  0  0  0  0
    3.5517   -7.7407   25.9711 C   0  0  0  0  0  0  0  0  0  0  0  0
  1  4  4  0
  1 22  4  0
  2 20  4  0
  2 27  4  0
  3 12  4  0
  3 23  4  0
  4 25  4  0
  4 28  1  0
  5  8  4  0
  5 17  4  0
  6  7  4  0
  6 16  4  0
  7 18  4  0
  8 27  4  0
  9 13  4  0
  9 23  4  0
 10 11  1  0
 11 14  2  0
 11 27  1  0
 12 19  1  0
 12 24  4  0
 13 24  4  0
 15 18  1  0
 16 25  4  0
 16 26  4  0
 17 20  4  0
 17 28  1  0
 18 21  4  0
 21 26  4  0
 22 26  4  0
M  END
$$$$

 Created by Python create_sdf_string function

 28 30  0  0  0  0  0  0  0  0999 V2000
    5.7174   -8.4529   26.7190 C   0  0  0  0  0  0  0  0  0  0  0  0
    0.3974   -7.0711   27.5149 C   0  0  0  0  0  0  0  0  0  0  0  0
    2.5338   -7.6891   16.0102 C   0  0  0  0  0  0  0  0  0  0  0  0
    4.8690   -7.4380   26.4151 C   0  0  0  0  0  0  0  0  0  0  0  0
    2.3021   -5.6726   26.0378 C   0  0  0  0  0  0  0  0  0  0  0  0
    7.0880   -4.6163   27.0010 C   0  0  0  0  0  0  0  0  0  0  0  0
    8.3117   -4.3698   27.4436 C   0  0  0  0  0  0  0  0  0  0  0  0
    1.1339   -5.0515   26.3541 C   0  0  0  0  0  0  0  0  0  0  0  0
    4.8080   -8.0362   16.7101 C   0  0  0  0  0  0  0  0  0  0  0  0
   -1.2173   -3.9294   26.9717 O   0  0  0  0  0  0  0  0  0  0  0  0
   -1.0025   -5.0942   27.4586 C   0  0  0  0  0  0  0  0  0  0  0  0
    2.2474   -8.9123   16.6273 C   0  0  0  0  0  0  0  0  0  0  0  0
    4.4957   -9.2636   17.3041 C   0  0  0  0  0  0  0  0  0  0  0  0
   -1.8070   -5.6086   28.1920 O   0  0  0  0  0  0  0  0  0  0  0  0
   10.4296   -5.1799   28.3140 C   0  0  0  0  0  0  0  0  0  0  0  0
    6.6017   -5.9004   26.9187 C   0  0  0  0  0  0  0  0  0  0  0  0
    2.4761   -6.9940   26.4111 N   0  0  0  0  0  0  0  0  0  0  0  0
    9.1353   -5.4053   27.8239 C   0  0  0  0  0  0  0  0  0  0  0  0
    0.9922   -9.3232   16.5995 O   0  0  0  0  0  0  0  0  0  0  0  0
    1.5232   -7.6869   27.1182 C   0  0  0  0  0  0  0  0  0  0  0  0
    8.6878   -6.6715   27.7262 N   0  0  0  0  0  0  0  0  0  0  0  0
    6.9911   -8.2423   27.1808 C   0  0  0  0  0  0  0  0  0  0  0  0
    3.8436   -7.2758   16.0578 C   0  0  0  0  0  0  0  0  0  0  0  0
    3.1882   -9.7190   17.2566 C   0  0  0  0  0  0  0  0  0  0  0  0
    5.3488   -6.1737   26.5092 C   0  0  0  0  0  0  0  0  0  0  0  0
    7.4567   -6.9464   27.2858 C   0  0  0  0  0  0  0  0  0  0  0  0
    0.1921   -5.7592   27.1123 C   0  0  0  0  0  0  0  0  0  0  0  0
    3.5517   -7.7407   25.9711 C   0  0  0  0  0  0  0  0  0  0  0  0
  1  4  4  0
  1 22  4  0
  2 20  4  0
  2 27  4  0
  3 12  4  0
  3 23  4  0
  4 25  4  0
  4 28  1  0
  5  8  4  0
  5 17  4  0
  6  7  4  0
  6 16  4  0
  7 18  4  0
  8 27  4  0
  9 13  4  0
  9 23  4  0
 10 11  1  0
 11 14  2  0
 11 27  1  0
 12 19  1  0
 12 24  4  0
 13 24  4  0
 15 18  1  0
 16 25  4  0
 16 26  4  0
 17 20  4  0
 17 28  1  0
 18 21  4  0
 21 26  4  0
 22 26  4  0
M  END
$$$$

 Created by Python create_sdf_string function

 28 30  0  0  0  0  0  0  0  0999 V2000
    5.7174   -8.4529   26.7190 C   0  0  0  0  0  0  0  0  0  0  0  0
    0.3974   -7.0711   27.5149 C   0  0  0  0  0  0  0  0  0  0  0  0
    2.5338   -7.6891   16.0102 C   0  0  0  0  0  0  0  0  0  0  0  0
    4.8690   -7.4380   26.4151 C   0  0  0  0  0  0  0  0  0  0  0  0
    2.3021   -5.6726   26.0378 C   0  0  0  0  0  0  0  0  0  0  0  0
    7.0880   -4.6163   27.0010 C   0  0  0  0  0  0  0  0  0  0  0  0
    8.3117   -4.3698   27.4436 C   0  0  0  0  0  0  0  0  0  0  0  0
    1.1339   -5.0515   26.3541 C   0  0  0  0  0  0  0  0  0  0  0  0
    4.8080   -8.0362   16.7101 C   0  0  0  0  0  0  0  0  0  0  0  0
   -1.2173   -3.9294   26.9717 O   0  0  0  0  0  0  0  0  0  0  0  0
   -1.0025   -5.0942   27.4586 C   0  0  0  0  0  0  0  0  0  0  0  0
    2.2474   -8.9123   16.6273 C   0  0  0  0  0  0  0  0  0  0  0  0
    4.4957   -9.2636   17.3041 C   0  0  0  0  0  0  0  0  0  0  0  0
   -1.8070   -5.6086   28.1920 O   0  0  0  0  0  0  0  0  0  0  0  0
   10.4296   -5.1799   28.3140 C   0  0  0  0  0  0  0  0  0  0  0  0
    6.6017   -5.9004   26.9187 C   0  0  0  0  0  0  0  0  0  0  0  0
    2.4761   -6.9940   26.4111 N   0  0  0  0  0  0  0  0  0  0  0  0
    9.1353   -5.4053   27.8239 C   0  0  0  0  0  0  0  0  0  0  0  0
    0.9922   -9.3232   16.5995 O   0  0  0  0  0  0  0  0  0  0  0  0
    1.5232   -7.6869   27.1182 C   0  0  0  0  0  0  0  0  0  0  0  0
    8.6878   -6.6715   27.7262 N   0  0  0  0  0  0  0  0  0  0  0  0
    6.9911   -8.2423   27.1808 C   0  0  0  0  0  0  0  0  0  0  0  0
    3.8436   -7.2758   16.0578 C   0  0  0  0  0  0  0  0  0  0  0  0
    3.1882   -9.7190   17.2566 C   0  0  0  0  0  0  0  0  0  0  0  0
    5.3488   -6.1737   26.5092 C   0  0  0  0  0  0  0  0  0  0  0  0
    7.4567   -6.9464   27.2858 C   0  0  0  0  0  0  0  0  0  0  0  0
    0.1921   -5.7592   27.1123 C   0  0  0  0  0  0  0  0  0  0  0  0
    3.5517   -7.7407   25.9711 C   0  0  0  0  0  0  0  0  0  0  0  0
  1  4  4  0
  1 22  4  0
  2 20  4  0
  2 27  4  0
  3 12  4  0
  3 23  4  0
  4 25  4  0
  4 28  1  0
  5  8  4  0
  5 17  4  0
  6  7  4  0
  6 16  4  0
  7 18  4  0
  8 27  4  0
  9 13  4  0
  9 23  4  0
 10 11  1  0
 11 14  2  0
 11 27  1  0
 12 19  1  0
 12 24  4  0
 13 24  4  0
 15 18  1  0
 16 25  4  0
 16 26  4  0
 17 20  4  0
 17 28  1  0
 18 21  4  0
 21 26  4  0
 22 26  4  0
M  END
$$$$

 Created by Python create_sdf_string function

 28 30  0  0  0  0  0  0  0  0999 V2000
    5.7174   -8.4529   26.7190 C   0  0  0  0  0  0  0  0  0  0  0  0
    0.3974   -7.0711   27.5149 C   0  0  0  0  0  0  0  0  0  0  0  0
    2.5338   -7.6891   16.0102 C   0  0  0  0  0  0  0  0  0  0  0  0
    4.8690   -7.4380   26.4151 C   0  0  0  0  0  0  0  0  0  0  0  0
    2.3021   -5.6726   26.0378 C   0  0  0  0  0  0  0  0  0  0  0  0
    7.0880   -4.6163   27.0010 C   0  0  0  0  0  0  0  0  0  0  0  0
    8.3117   -4.3698   27.4436 C   0  0  0  0  0  0  0  0  0  0  0  0
    1.1339   -5.0515   26.3541 C   0  0  0  0  0  0  0  0  0  0  0  0
    4.8080   -8.0362   16.7101 C   0  0  0  0  0  0  0  0  0  0  0  0
   -1.2173   -3.9294   26.9717 O   0  0  0  0  0  0  0  0  0  0  0  0
   -1.0025   -5.0942   27.4586 C   0  0  0  0  0  0  0  0  0  0  0  0
    2.2474   -8.9123   16.6273 C   0  0  0  0  0  0  0  0  0  0  0  0
    4.4957   -9.2636   17.3041 C   0  0  0  0  0  0  0  0  0  0  0  0
   -1.8070   -5.6086   28.1920 O   0  0  0  0  0  0  0  0  0  0  0  0
   10.4296   -5.1799   28.3140 C   0  0  0  0  0  0  0  0  0  0  0  0
    6.6017   -5.9004   26.9187 C   0  0  0  0  0  0  0  0  0  0  0  0
    2.4761   -6.9940   26.4111 N   0  0  0  0  0  0  0  0  0  0  0  0
    9.1353   -5.4053   27.8239 C   0  0  0  0  0  0  0  0  0  0  0  0
    0.9922   -9.3232   16.5995 O   0  0  0  0  0  0  0  0  0  0  0  0
    1.5232   -7.6869   27.1182 C   0  0  0  0  0  0  0  0  0  0  0  0
    8.6878   -6.6715   27.7262 N   0  0  0  0  0  0  0  0  0  0  0  0
    6.9911   -8.2423   27.1808 C   0  0  0  0  0  0  0  0  0  0  0  0
    3.8436   -7.2758   16.0578 C   0  0  0  0  0  0  0  0  0  0  0  0
    3.1882   -9.7190   17.2566 C   0  0  0  0  0  0  0  0  0  0  0  0
    5.3488   -6.1737   26.5092 C   0  0  0  0  0  0  0  0  0  0  0  0
    7.4567   -6.9464   27.2858 C   0  0  0  0  0  0  0  0  0  0  0  0
    0.1921   -5.7592   27.1123 C   0  0  0  0  0  0  0  0  0  0  0  0
    3.5517   -7.7407   25.9711 C   0  0  0  0  0  0  0  0  0  0  0  0
  1  4  4  0
  1 22  4  0
  2 20  4  0
  2 27  4  0
  3 12  4  0
  3 23  4  0
  4 25  4  0
  4 28  1  0
  5  8  4  0
  5 17  4  0
  6  7  4  0
  6 16  4  0
  7 18  4  0
  8 27  4  0
  9 13  4  0
  9 23  4  0
 10 11  1  0
 11 14  2  0
 11 27  1  0
 12 19  1  0
 12 24  4  0
 13 24  4  0
 15 18  1  0
 16 25  4  0
 16 26  4  0
 17 20  4  0
 17 28  1  0
 18 21  4  0
 21 26  4  0
 22 26  4  0
M  END
$$$$

 Created by Python create_sdf_string function

 28 30  0  0  0  0  0  0  0  0999 V2000
    5.7174   -8.4529   26.7190 C   0  0  0  0  0  0  0  0  0  0  0  0
    0.3974   -7.0711   27.5149 C   0  0  0  0  0  0  0  0  0  0  0  0
    2.5338   -7.6891   16.0102 C   0  0  0  0  0  0  0  0  0  0  0  0
    4.8690   -7.4380   26.4151 C   0  0  0  0  0  0  0  0  0  0  0  0
    2.3021   -5.6726   26.0378 C   0  0  0  0  0  0  0  0  0  0  0  0
    7.0880   -4.6163   27.0010 C   0  0  0  0  0  0  0  0  0  0  0  0
    8.3117   -4.3698   27.4436 C   0  0  0  0  0  0  0  0  0  0  0  0
    1.1339   -5.0515   26.3541 C   0  0  0  0  0  0  0  0  0  0  0  0
    4.8080   -8.0362   16.7101 C   0  0  0  0  0  0  0  0  0  0  0  0
   -1.2173   -3.9294   26.9717 O   0  0  0  0  0  0  0  0  0  0  0  0
   -1.0025   -5.0942   27.4586 C   0  0  0  0  0  0  0  0  0  0  0  0
    2.2474   -8.9123   16.6273 C   0  0  0  0  0  0  0  0  0  0  0  0
    4.4957   -9.2636   17.3041 C   0  0  0  0  0  0  0  0  0  0  0  0
   -1.8070   -5.6086   28.1920 O   0  0  0  0  0  0  0  0  0  0  0  0
   10.4296   -5.1799   28.3140 C   0  0  0  0  0  0  0  0  0  0  0  0
    6.6017   -5.9004   26.9187 C   0  0  0  0  0  0  0  0  0  0  0  0
    2.4761   -6.9940   26.4111 N   0  0  0  0  0  0  0  0  0  0  0  0
    9.1353   -5.4053   27.8239 C   0  0  0  0  0  0  0  0  0  0  0  0
    0.9922   -9.3232   16.5995 O   0  0  0  0  0  0  0  0  0  0  0  0
    1.5232   -7.6869   27.1182 C   0  0  0  0  0  0  0  0  0  0  0  0
    8.6878   -6.6715   27.7262 N   0  0  0  0  0  0  0  0  0  0  0  0
    6.9911   -8.2423   27.1808 C   0  0  0  0  0  0  0  0  0  0  0  0
    3.8436   -7.2758   16.0578 C   0  0  0  0  0  0  0  0  0  0  0  0
    3.1882   -9.7190   17.2566 C   0  0  0  0  0  0  0  0  0  0  0  0
    5.3488   -6.1737   26.5092 C   0  0  0  0  0  0  0  0  0  0  0  0
    7.4567   -6.9464   27.2858 C   0  0  0  0  0  0  0  0  0  0  0  0
    0.1921   -5.7592   27.1123 C   0  0  0  0  0  0  0  0  0  0  0  0
    3.5517   -7.7407   25.9711 C   0  0  0  0  0  0  0  0  0  0  0  0
  1  4  4  0
  1 22  4  0
  2 20  4  0
  2 27  4  0
  3 12  4  0
  3 23  4  0
  4 25  4  0
  4 28  1  0
  5  8  4  0
  5 17  4  0
  6  7  4  0
  6 16  4  0
  7 18  4  0
  8 27  4  0
  9 13  4  0
  9 23  4  0
 10 11  1  0
 11 14  2  0
 11 27  1  0
 12 19  1  0
 12 24  4  0
 13 24  4  0
 15 18  1  0
 16 25  4  0
 16 26  4  0
 17 20  4  0
 17 28  1  0
 18 21  4  0
 21 26  4  0
 22 26  4  0
M  END
$$$$

 Created by Python create_sdf_string function

 28 30  0  0  0  0  0  0  0  0999 V2000
    5.7174   -8.4529   26.7190 C   0  0  0  0  0  0  0  0  0  0  0  0
    0.3974   -7.0711   27.5149 C   0  0  0  0  0  0  0  0  0  0  0  0
    2.5338   -7.6891   16.0102 C   0  0  0  0  0  0  0  0  0  0  0  0
    4.8690   -7.4380   26.4151 C   0  0  0  0  0  0  0  0  0  0  0  0
    2.3021   -5.6726   26.0378 C   0  0  0  0  0  0  0  0  0  0  0  0
    7.0880   -4.6163   27.0010 C   0  0  0  0  0  0  0  0  0  0  0  0
    8.3117   -4.3698   27.4436 C   0  0  0  0  0  0  0  0  0  0  0  0
    1.1339   -5.0515   26.3541 C   0  0  0  0  0  0  0  0  0  0  0  0
    4.8080   -8.0362   16.7101 C   0  0  0  0  0  0  0  0  0  0  0  0
   -1.2173   -3.9294   26.9717 O   0  0  0  0  0  0  0  0  0  0  0  0
   -1.0025   -5.0942   27.4586 C   0  0  0  0  0  0  0  0  0  0  0  0
    2.2474   -8.9123   16.6273 C   0  0  0  0  0  0  0  0  0  0  0  0
    4.4957   -9.2636   17.3041 C   0  0  0  0  0  0  0  0  0  0  0  0
   -1.8070   -5.6086   28.1920 O   0  0  0  0  0  0  0  0  0  0  0  0
   10.4296   -5.1799   28.3140 C   0  0  0  0  0  0  0  0  0  0  0  0
    6.6017   -5.9004   26.9187 C   0  0  0  0  0  0  0  0  0  0  0  0
    2.4761   -6.9940   26.4111 N   0  0  0  0  0  0  0  0  0  0  0  0
    9.1353   -5.4053   27.8239 C   0  0  0  0  0  0  0  0  0  0  0  0
    0.9922   -9.3232   16.5995 O   0  0  0  0  0  0  0  0  0  0  0  0
    1.5232   -7.6869   27.1182 C   0  0  0  0  0  0  0  0  0  0  0  0
    8.6878   -6.6715   27.7262 N   0  0  0  0  0  0  0  0  0  0  0  0
    6.9911   -8.2423   27.1808 C   0  0  0  0  0  0  0  0  0  0  0  0
    3.8436   -7.2758   16.0578 C   0  0  0  0  0  0  0  0  0  0  0  0
    3.1882   -9.7190   17.2566 C   0  0  0  0  0  0  0  0  0  0  0  0
    5.3488   -6.1737   26.5092 C   0  0  0  0  0  0  0  0  0  0  0  0
    7.4567   -6.9464   27.2858 C   0  0  0  0  0  0  0  0  0  0  0  0
    0.1921   -5.7592   27.1123 C   0  0  0  0  0  0  0  0  0  0  0  0
    3.5517   -7.7407   25.9711 C   0  0  0  0  0  0  0  0  0  0  0  0
  1  4  4  0
  1 22  4  0
  2 20  4  0
  2 27  4  0
  3 12  4  0
  3 23  4  0
  4 25  4  0
  4 28  1  0
  5  8  4  0
  5 17  4  0
  6  7  4  0
  6 16  4  0
  7 18  4  0
  8 27  4  0
  9 13  4  0
  9 23  4  0
 10 11  1  0
 11 14  2  0
 11 27  1  0
 12 19  1  0
 12 24  4  0
 13 24  4  0
 15 18  1  0
 16 25  4  0
 16 26  4  0
 17 20  4  0
 17 28  1  0
 18 21  4  0
 21 26  4  0
 22 26  4  0
M  END
$$$$

 Created by Python create_sdf_string function

 28 30  0  0  0  0  0  0  0  0999 V2000
    5.7174   -8.4529   26.7190 C   0  0  0  0  0  0  0  0  0  0  0  0
    0.3974   -7.0711   27.5149 C   0  0  0  0  0  0  0  0  0  0  0  0
    2.5338   -7.6891   16.0102 C   0  0  0  0  0  0  0  0  0  0  0  0
    4.8690   -7.4380   26.4151 C   0  0  0  0  0  0  0  0  0  0  0  0
    2.3021   -5.6726   26.0378 C   0  0  0  0  0  0  0  0  0  0  0  0
    7.0880   -4.6163   27.0010 C   0  0  0  0  0  0  0  0  0  0  0  0
    8.3117   -4.3698   27.4436 C   0  0  0  0  0  0  0  0  0  0  0  0
    1.1339   -5.0515   26.3541 C   0  0  0  0  0  0  0  0  0  0  0  0
    4.8080   -8.0362   16.7101 C   0  0  0  0  0  0  0  0  0  0  0  0
   -1.2173   -3.9294   26.9717 O   0  0  0  0  0  0  0  0  0  0  0  0
   -1.0025   -5.0942   27.4586 C   0  0  0  0  0  0  0  0  0  0  0  0
    2.2474   -8.9123   16.6273 C   0  0  0  0  0  0  0  0  0  0  0  0
    4.4957   -9.2636   17.3041 C   0  0  0  0  0  0  0  0  0  0  0  0
   -1.8070   -5.6086   28.1920 O   0  0  0  0  0  0  0  0  0  0  0  0
   10.4296   -5.1799   28.3140 C   0  0  0  0  0  0  0  0  0  0  0  0
    6.6017   -5.9004   26.9187 C   0  0  0  0  0  0  0  0  0  0  0  0
    2.4761   -6.9940   26.4111 N   0  0  0  0  0  0  0  0  0  0  0  0
    9.1353   -5.4053   27.8239 C   0  0  0  0  0  0  0  0  0  0  0  0
    0.9922   -9.3232   16.5995 O   0  0  0  0  0  0  0  0  0  0  0  0
    1.5232   -7.6869   27.1182 C   0  0  0  0  0  0  0  0  0  0  0  0
    8.6878   -6.6715   27.7262 N   0  0  0  0  0  0  0  0  0  0  0  0
    6.9911   -8.2423   27.1808 C   0  0  0  0  0  0  0  0  0  0  0  0
    3.8436   -7.2758   16.0578 C   0  0  0  0  0  0  0  0  0  0  0  0
    3.1882   -9.7190   17.2566 C   0  0  0  0  0  0  0  0  0  0  0  0
    5.3488   -6.1737   26.5092 C   0  0  0  0  0  0  0  0  0  0  0  0
    7.4567   -6.9464   27.2858 C   0  0  0  0  0  0  0  0  0  0  0  0
    0.1921   -5.7592   27.1123 C   0  0  0  0  0  0  0  0  0  0  0  0
    3.5517   -7.7407   25.9711 C   0  0  0  0  0  0  0  0  0  0  0  0
  1  4  4  0
  1 22  4  0
  2 20  4  0
  2 27  4  0
  3 12  4  0
  3 23  4  0
  4 25  4  0
  4 28  1  0
  5  8  4  0
  5 17  4  0
  6  7  4  0
  6 16  4  0
  7 18  4  0
  8 27  4  0
  9 13  4  0
  9 23  4  0
 10 11  1  0
 11 14  2  0
 11 27  1  0
 12 19  1  0
 12 24  4  0
 13 24  4  0
 15 18  1  0
 16 25  4  0
 16 26  4  0
 17 20  4  0
 17 28  1  0
 18 21  4  0
 21 26  4  0
 22 26  4  0
M  END
$$$$

 Created by Python create_sdf_string function

 28 30  0  0  0  0  0  0  0  0999 V2000
    5.7174   -8.4529   26.7190 C   0  0  0  0  0  0  0  0  0  0  0  0
    0.3974   -7.0711   27.5149 C   0  0  0  0  0  0  0  0  0  0  0  0
    2.5338   -7.6891   16.0102 C   0  0  0  0  0  0  0  0  0  0  0  0
    4.8690   -7.4380   26.4151 C   0  0  0  0  0  0  0  0  0  0  0  0
    2.3021   -5.6726   26.0378 C   0  0  0  0  0  0  0  0  0  0  0  0
    7.0880   -4.6163   27.0010 C   0  0  0  0  0  0  0  0  0  0  0  0
    8.3117   -4.3698   27.4436 C   0  0  0  0  0  0  0  0  0  0  0  0
    1.1339   -5.0515   26.3541 C   0  0  0  0  0  0  0  0  0  0  0  0
    4.8080   -8.0362   16.7101 C   0  0  0  0  0  0  0  0  0  0  0  0
   -1.2173   -3.9294   26.9717 O   0  0  0  0  0  0  0  0  0  0  0  0
   -1.0025   -5.0942   27.4586 C   0  0  0  0  0  0  0  0  0  0  0  0
    2.2474   -8.9123   16.6273 C   0  0  0  0  0  0  0  0  0  0  0  0
    4.4957   -9.2636   17.3041 C   0  0  0  0  0  0  0  0  0  0  0  0
   -1.8070   -5.6086   28.1920 O   0  0  0  0  0  0  0  0  0  0  0  0
   10.4296   -5.1799   28.3140 C   0  0  0  0  0  0  0  0  0  0  0  0
    6.6017   -5.9004   26.9187 C   0  0  0  0  0  0  0  0  0  0  0  0
    2.4761   -6.9940   26.4111 N   0  0  0  0  0  0  0  0  0  0  0  0
    9.1353   -5.4053   27.8239 C   0  0  0  0  0  0  0  0  0  0  0  0
    0.9922   -9.3232   16.5995 O   0  0  0  0  0  0  0  0  0  0  0  0
    1.5232   -7.6869   27.1182 C   0  0  0  0  0  0  0  0  0  0  0  0
    8.6878   -6.6715   27.7262 N   0  0  0  0  0  0  0  0  0  0  0  0
    6.9911   -8.2423   27.1808 C   0  0  0  0  0  0  0  0  0  0  0  0
    3.8436   -7.2758   16.0578 C   0  0  0  0  0  0  0  0  0  0  0  0
    3.1882   -9.7190   17.2566 C   0  0  0  0  0  0  0  0  0  0  0  0
    5.3488   -6.1737   26.5092 C   0  0  0  0  0  0  0  0  0  0  0  0
    7.4567   -6.9464   27.2858 C   0  0  0  0  0  0  0  0  0  0  0  0
    0.1921   -5.7592   27.1123 C   0  0  0  0  0  0  0  0  0  0  0  0
    3.5517   -7.7407   25.9711 C   0  0  0  0  0  0  0  0  0  0  0  0
  1  4  4  0
  1 22  4  0
  2 20  4  0
  2 27  4  0
  3 12  4  0
  3 23  4  0
  4 25  4  0
  4 28  1  0
  5  8  4  0
  5 17  4  0
  6  7  4  0
  6 16  4  0
  7 18  4  0
  8 27  4  0
  9 13  4  0
  9 23  4  0
 10 11  1  0
 11 14  2  0
 11 27  1  0
 12 19  1  0
 12 24  4  0
 13 24  4  0
 15 18  1  0
 16 25  4  0
 16 26  4  0
 17 20  4  0
 17 28  1  0
 18 21  4  0
 21 26  4  0
 22 26  4  0
M  END
$$$$

 Created by Python create_sdf_string function

 28 30  0  0  0  0  0  0  0  0999 V2000
    5.7174   -8.4529   26.7190 C   0  0  0  0  0  0  0  0  0  0  0  0
    0.3974   -7.0711   27.5149 C   0  0  0  0  0  0  0  0  0  0  0  0
    2.5338   -7.6891   16.0102 C   0  0  0  0  0  0  0  0  0  0  0  0
    4.8690   -7.4380   26.4151 C   0  0  0  0  0  0  0  0  0  0  0  0
    2.3021   -5.6726   26.0378 C   0  0  0  0  0  0  0  0  0  0  0  0
    7.0880   -4.6163   27.0010 C   0  0  0  0  0  0  0  0  0  0  0  0
    8.3117   -4.3698   27.4436 C   0  0  0  0  0  0  0  0  0  0  0  0
    1.1339   -5.0515   26.3541 C   0  0  0  0  0  0  0  0  0  0  0  0
    4.8080   -8.0362   16.7101 C   0  0  0  0  0  0  0  0  0  0  0  0
   -1.2173   -3.9294   26.9717 O   0  0  0  0  0  0  0  0  0  0  0  0
   -1.0025   -5.0942   27.4586 C   0  0  0  0  0  0  0  0  0  0  0  0
    2.2474   -8.9123   16.6273 C   0  0  0  0  0  0  0  0  0  0  0  0
    4.4957   -9.2636   17.3041 C   0  0  0  0  0  0  0  0  0  0  0  0
   -1.8070   -5.6086   28.1920 O   0  0  0  0  0  0  0  0  0  0  0  0
   10.4296   -5.1799   28.3140 C   0  0  0  0  0  0  0  0  0  0  0  0
    6.6017   -5.9004   26.9187 C   0  0  0  0  0  0  0  0  0  0  0  0
    2.4761   -6.9940   26.4111 N   0  0  0  0  0  0  0  0  0  0  0  0
    9.1353   -5.4053   27.8239 C   0  0  0  0  0  0  0  0  0  0  0  0
    0.9922   -9.3232   16.5995 O   0  0  0  0  0  0  0  0  0  0  0  0
    1.5232   -7.6869   27.1182 C   0  0  0  0  0  0  0  0  0  0  0  0
    8.6878   -6.6715   27.7262 N   0  0  0  0  0  0  0  0  0  0  0  0
    6.9911   -8.2423   27.1808 C   0  0  0  0  0  0  0  0  0  0  0  0
    3.8436   -7.2758   16.0578 C   0  0  0  0  0  0  0  0  0  0  0  0
    3.1882   -9.7190   17.2566 C   0  0  0  0  0  0  0  0  0  0  0  0
    5.3488   -6.1737   26.5092 C   0  0  0  0  0  0  0  0  0  0  0  0
    7.4567   -6.9464   27.2858 C   0  0  0  0  0  0  0  0  0  0  0  0
    0.1921   -5.7592   27.1123 C   0  0  0  0  0  0  0  0  0  0  0  0
    3.5517   -7.7407   25.9711 C   0  0  0  0  0  0  0  0  0  0  0  0
  1  4  4  0
  1 22  4  0
  2 20  4  0
  2 27  4  0
  3 12  4  0
  3 23  4  0
  4 25  4  0
  4 28  1  0
  5  8  4  0
  5 17  4  0
  6  7  4  0
  6 16  4  0
  7 18  4  0
  8 27  4  0
  9 13  4  0
  9 23  4  0
 10 11  1  0
 11 14  2  0
 11 27  1  0
 12 19  1  0
 12 24  4  0
 13 24  4  0
 15 18  1  0
 16 25  4  0
 16 26  4  0
 17 20  4  0
 17 28  1  0
 18 21  4  0
 21 26  4  0
 22 26  4  0
M  END
$$$$

 Created by Python create_sdf_string function

 28 30  0  0  0  0  0  0  0  0999 V2000
    5.7174   -8.4529   26.7190 C   0  0  0  0  0  0  0  0  0  0  0  0
    0.3974   -7.0711   27.5149 C   0  0  0  0  0  0  0  0  0  0  0  0
    2.5338   -7.6891   16.0102 C   0  0  0  0  0  0  0  0  0  0  0  0
    4.8690   -7.4380   26.4151 C   0  0  0  0  0  0  0  0  0  0  0  0
    2.3021   -5.6726   26.0378 C   0  0  0  0  0  0  0  0  0  0  0  0
    7.0880   -4.6163   27.0010 C   0  0  0  0  0  0  0  0  0  0  0  0
    8.3117   -4.3698   27.4436 C   0  0  0  0  0  0  0  0  0  0  0  0
    1.1339   -5.0515   26.3541 C   0  0  0  0  0  0  0  0  0  0  0  0
    4.8080   -8.0362   16.7101 C   0  0  0  0  0  0  0  0  0  0  0  0
   -1.2173   -3.9294   26.9717 O   0  0  0  0  0  0  0  0  0  0  0  0
   -1.0025   -5.0942   27.4586 C   0  0  0  0  0  0  0  0  0  0  0  0
    2.2474   -8.9123   16.6273 C   0  0  0  0  0  0  0  0  0  0  0  0
    4.4957   -9.2636   17.3041 C   0  0  0  0  0  0  0  0  0  0  0  0
   -1.8070   -5.6086   28.1920 O   0  0  0  0  0  0  0  0  0  0  0  0
   10.4296   -5.1799   28.3140 C   0  0  0  0  0  0  0  0  0  0  0  0
    6.6017   -5.9004   26.9187 C   0  0  0  0  0  0  0  0  0  0  0  0
    2.4761   -6.9940   26.4111 N   0  0  0  0  0  0  0  0  0  0  0  0
    9.1353   -5.4053   27.8239 C   0  0  0  0  0  0  0  0  0  0  0  0
    0.9922   -9.3232   16.5995 O   0  0  0  0  0  0  0  0  0  0  0  0
    1.5232   -7.6869   27.1182 C   0  0  0  0  0  0  0  0  0  0  0  0
    8.6878   -6.6715   27.7262 N   0  0  0  0  0  0  0  0  0  0  0  0
    6.9911   -8.2423   27.1808 C   0  0  0  0  0  0  0  0  0  0  0  0
    3.8436   -7.2758   16.0578 C   0  0  0  0  0  0  0  0  0  0  0  0
    3.1882   -9.7190   17.2566 C   0  0  0  0  0  0  0  0  0  0  0  0
    5.3488   -6.1737   26.5092 C   0  0  0  0  0  0  0  0  0  0  0  0
    7.4567   -6.9464   27.2858 C   0  0  0  0  0  0  0  0  0  0  0  0
    0.1921   -5.7592   27.1123 C   0  0  0  0  0  0  0  0  0  0  0  0
    3.5517   -7.7407   25.9711 C   0  0  0  0  0  0  0  0  0  0  0  0
  1  4  4  0
  1 22  4  0
  2 20  4  0
  2 27  4  0
  3 12  4  0
  3 23  4  0
  4 25  4  0
  4 28  1  0
  5  8  4  0
  5 17  4  0
  6  7  4  0
  6 16  4  0
  7 18  4  0
  8 27  4  0
  9 13  4  0
  9 23  4  0
 10 11  1  0
 11 14  2  0
 11 27  1  0
 12 19  1  0
 12 24  4  0
 13 24  4  0
 15 18  1  0
 16 25  4  0
 16 26  4  0
 17 20  4  0
 17 28  1  0
 18 21  4  0
 21 26  4  0
 22 26  4  0
M  END
$$$$

 Created by Python create_sdf_string function

 28 30  0  0  0  0  0  0  0  0999 V2000
    5.7174   -8.4529   26.7190 C   0  0  0  0  0  0  0  0  0  0  0  0
    0.3974   -7.0711   27.5149 C   0  0  0  0  0  0  0  0  0  0  0  0
    2.5338   -7.6891   16.0102 C   0  0  0  0  0  0  0  0  0  0  0  0
    4.8690   -7.4380   26.4151 C   0  0  0  0  0  0  0  0  0  0  0  0
    2.3021   -5.6726   26.0378 C   0  0  0  0  0  0  0  0  0  0  0  0
    7.0880   -4.6163   27.0010 C   0  0  0  0  0  0  0  0  0  0  0  0
    8.3117   -4.3698   27.4436 C   0  0  0  0  0  0  0  0  0  0  0  0
    1.1339   -5.0515   26.3541 C   0  0  0  0  0  0  0  0  0  0  0  0
    4.8080   -8.0362   16.7101 C   0  0  0  0  0  0  0  0  0  0  0  0
   -1.2173   -3.9294   26.9717 O   0  0  0  0  0  0  0  0  0  0  0  0
   -1.0025   -5.0942   27.4586 C   0  0  0  0  0  0  0  0  0  0  0  0
    2.2474   -8.9123   16.6273 C   0  0  0  0  0  0  0  0  0  0  0  0
    4.4957   -9.2636   17.3041 C   0  0  0  0  0  0  0  0  0  0  0  0
   -1.8070   -5.6086   28.1920 O   0  0  0  0  0  0  0  0  0  0  0  0
   10.4296   -5.1799   28.3140 C   0  0  0  0  0  0  0  0  0  0  0  0
    6.6017   -5.9004   26.9187 C   0  0  0  0  0  0  0  0  0  0  0  0
    2.4761   -6.9940   26.4111 N   0  0  0  0  0  0  0  0  0  0  0  0
    9.1353   -5.4053   27.8239 C   0  0  0  0  0  0  0  0  0  0  0  0
    0.9922   -9.3232   16.5995 O   0  0  0  0  0  0  0  0  0  0  0  0
    1.5232   -7.6869   27.1182 C   0  0  0  0  0  0  0  0  0  0  0  0
    8.6878   -6.6715   27.7262 N   0  0  0  0  0  0  0  0  0  0  0  0
    6.9911   -8.2423   27.1808 C   0  0  0  0  0  0  0  0  0  0  0  0
    3.8436   -7.2758   16.0578 C   0  0  0  0  0  0  0  0  0  0  0  0
    3.1882   -9.7190   17.2566 C   0  0  0  0  0  0  0  0  0  0  0  0
    5.3488   -6.1737   26.5092 C   0  0  0  0  0  0  0  0  0  0  0  0
    7.4567   -6.9464   27.2858 C   0  0  0  0  0  0  0  0  0  0  0  0
    0.1921   -5.7592   27.1123 C   0  0  0  0  0  0  0  0  0  0  0  0
    3.5517   -7.7407   25.9711 C   0  0  0  0  0  0  0  0  0  0  0  0
  1  4  4  0
  1 22  4  0
  2 20  4  0
  2 27  4  0
  3 12  4  0
  3 23  4  0
  4 25  4  0
  4 28  1  0
  5  8  4  0
  5 17  4  0
  6  7  4  0
  6 16  4  0
  7 18  4  0
  8 27  4  0
  9 13  4  0
  9 23  4  0
 10 11  1  0
 11 14  2  0
 11 27  1  0
 12 19  1  0
 12 24  4  0
 13 24  4  0
 15 18  1  0
 16 25  4  0
 16 26  4  0
 17 20  4  0
 17 28  1  0
 18 21  4  0
 21 26  4  0
 22 26  4  0
M  END
$$$$

 Created by Python create_sdf_string function

 28 30  0  0  0  0  0  0  0  0999 V2000
    5.7174   -8.4529   26.7190 C   0  0  0  0  0  0  0  0  0  0  0  0
    0.3974   -7.0711   27.5149 C   0  0  0  0  0  0  0  0  0  0  0  0
    2.5338   -7.6891   16.0102 C   0  0  0  0  0  0  0  0  0  0  0  0
    4.8690   -7.4380   26.4151 C   0  0  0  0  0  0  0  0  0  0  0  0
    2.3021   -5.6726   26.0378 C   0  0  0  0  0  0  0  0  0  0  0  0
    7.0880   -4.6163   27.0010 C   0  0  0  0  0  0  0  0  0  0  0  0
    8.3117   -4.3698   27.4436 C   0  0  0  0  0  0  0  0  0  0  0  0
    1.1339   -5.0515   26.3541 C   0  0  0  0  0  0  0  0  0  0  0  0
    4.8080   -8.0362   16.7101 C   0  0  0  0  0  0  0  0  0  0  0  0
   -1.2173   -3.9294   26.9717 O   0  0  0  0  0  0  0  0  0  0  0  0
   -1.0025   -5.0942   27.4586 C   0  0  0  0  0  0  0  0  0  0  0  0
    2.2474   -8.9123   16.6273 C   0  0  0  0  0  0  0  0  0  0  0  0
    4.4957   -9.2636   17.3041 C   0  0  0  0  0  0  0  0  0  0  0  0
   -1.8070   -5.6086   28.1920 O   0  0  0  0  0  0  0  0  0  0  0  0
   10.4296   -5.1799   28.3140 C   0  0  0  0  0  0  0  0  0  0  0  0
    6.6017   -5.9004   26.9187 C   0  0  0  0  0  0  0  0  0  0  0  0
    2.4761   -6.9940   26.4111 N   0  0  0  0  0  0  0  0  0  0  0  0
    9.1353   -5.4053   27.8239 C   0  0  0  0  0  0  0  0  0  0  0  0
    0.9922   -9.3232   16.5995 O   0  0  0  0  0  0  0  0  0  0  0  0
    1.5232   -7.6869   27.1182 C   0  0  0  0  0  0  0  0  0  0  0  0
    8.6878   -6.6715   27.7262 N   0  0  0  0  0  0  0  0  0  0  0  0
    6.9911   -8.2423   27.1808 C   0  0  0  0  0  0  0  0  0  0  0  0
    3.8436   -7.2758   16.0578 C   0  0  0  0  0  0  0  0  0  0  0  0
    3.1882   -9.7190   17.2566 C   0  0  0  0  0  0  0  0  0  0  0  0
    5.3488   -6.1737   26.5092 C   0  0  0  0  0  0  0  0  0  0  0  0
    7.4567   -6.9464   27.2858 C   0  0  0  0  0  0  0  0  0  0  0  0
    0.1921   -5.7592   27.1123 C   0  0  0  0  0  0  0  0  0  0  0  0
    3.5517   -7.7407   25.9711 C   0  0  0  0  0  0  0  0  0  0  0  0
  1  4  4  0
  1 22  4  0
  2 20  4  0
  2 27  4  0
  3 12  4  0
  3 23  4  0
  4 25  4  0
  4 28  1  0
  5  8  4  0
  5 17  4  0
  6  7  4  0
  6 16  4  0
  7 18  4  0
  8 27  4  0
  9 13  4  0
  9 23  4  0
 10 11  1  0
 11 14  2  0
 11 27  1  0
 12 19  1  0
 12 24  4  0
 13 24  4  0
 15 18  1  0
 16 25  4  0
 16 26  4  0
 17 20  4  0
 17 28  1  0
 18 21  4  0
 21 26  4  0
 22 26  4  0
M  END
$$$$

 Created by Python create_sdf_string function

 28 30  0  0  0  0  0  0  0  0999 V2000
    5.7174   -8.4529   26.7190 C   0  0  0  0  0  0  0  0  0  0  0  0
    0.3974   -7.0711   27.5149 C   0  0  0  0  0  0  0  0  0  0  0  0
    2.5338   -7.6891   16.0102 C   0  0  0  0  0  0  0  0  0  0  0  0
    4.8690   -7.4380   26.4151 C   0  0  0  0  0  0  0  0  0  0  0  0
    2.3021   -5.6726   26.0378 C   0  0  0  0  0  0  0  0  0  0  0  0
    7.0880   -4.6163   27.0010 C   0  0  0  0  0  0  0  0  0  0  0  0
    8.3117   -4.3698   27.4436 C   0  0  0  0  0  0  0  0  0  0  0  0
    1.1339   -5.0515   26.3541 C   0  0  0  0  0  0  0  0  0  0  0  0
    4.8080   -8.0362   16.7101 C   0  0  0  0  0  0  0  0  0  0  0  0
   -1.2173   -3.9294   26.9717 O   0  0  0  0  0  0  0  0  0  0  0  0
   -1.0025   -5.0942   27.4586 C   0  0  0  0  0  0  0  0  0  0  0  0
    2.2474   -8.9123   16.6273 C   0  0  0  0  0  0  0  0  0  0  0  0
    4.4957   -9.2636   17.3041 C   0  0  0  0  0  0  0  0  0  0  0  0
   -1.8070   -5.6086   28.1920 O   0  0  0  0  0  0  0  0  0  0  0  0
   10.4296   -5.1799   28.3140 C   0  0  0  0  0  0  0  0  0  0  0  0
    6.6017   -5.9004   26.9187 C   0  0  0  0  0  0  0  0  0  0  0  0
    2.4761   -6.9940   26.4111 N   0  0  0  0  0  0  0  0  0  0  0  0
    9.1353   -5.4053   27.8239 C   0  0  0  0  0  0  0  0  0  0  0  0
    0.9922   -9.3232   16.5995 O   0  0  0  0  0  0  0  0  0  0  0  0
    1.5232   -7.6869   27.1182 C   0  0  0  0  0  0  0  0  0  0  0  0
    8.6878   -6.6715   27.7262 N   0  0  0  0  0  0  0  0  0  0  0  0
    6.9911   -8.2423   27.1808 C   0  0  0  0  0  0  0  0  0  0  0  0
    3.8436   -7.2758   16.0578 C   0  0  0  0  0  0  0  0  0  0  0  0
    3.1882   -9.7190   17.2566 C   0  0  0  0  0  0  0  0  0  0  0  0
    5.3488   -6.1737   26.5092 C   0  0  0  0  0  0  0  0  0  0  0  0
    7.4567   -6.9464   27.2858 C   0  0  0  0  0  0  0  0  0  0  0  0
    0.1921   -5.7592   27.1123 C   0  0  0  0  0  0  0  0  0  0  0  0
    3.5517   -7.7407   25.9711 C   0  0  0  0  0  0  0  0  0  0  0  0
  1  4  4  0
  1 22  4  0
  2 20  4  0
  2 27  4  0
  3 12  4  0
  3 23  4  0
  4 25  4  0
  4 28  1  0
  5  8  4  0
  5 17  4  0
  6  7  4  0
  6 16  4  0
  7 18  4  0
  8 27  4  0
  9 13  4  0
  9 23  4  0
 10 11  1  0
 11 14  2  0
 11 27  1  0
 12 19  1  0
 12 24  4  0
 13 24  4  0
 15 18  1  0
 16 25  4  0
 16 26  4  0
 17 20  4  0
 17 28  1  0
 18 21  4  0
 21 26  4  0
 22 26  4  0
M  END
$$$$

 Created by Python create_sdf_string function

 28 30  0  0  0  0  0  0  0  0999 V2000
    5.7174   -8.4529   26.7190 C   0  0  0  0  0  0  0  0  0  0  0  0
    0.3974   -7.0711   27.5149 C   0  0  0  0  0  0  0  0  0  0  0  0
    2.5338   -7.6891   16.0102 C   0  0  0  0  0  0  0  0  0  0  0  0
    4.8690   -7.4380   26.4151 C   0  0  0  0  0  0  0  0  0  0  0  0
    2.3021   -5.6726   26.0378 C   0  0  0  0  0  0  0  0  0  0  0  0
    7.0880   -4.6163   27.0010 C   0  0  0  0  0  0  0  0  0  0  0  0
    8.3117   -4.3698   27.4436 C   0  0  0  0  0  0  0  0  0  0  0  0
    1.1339   -5.0515   26.3541 C   0  0  0  0  0  0  0  0  0  0  0  0
    4.8080   -8.0362   16.7101 C   0  0  0  0  0  0  0  0  0  0  0  0
   -1.2173   -3.9294   26.9717 O   0  0  0  0  0  0  0  0  0  0  0  0
   -1.0025   -5.0942   27.4586 C   0  0  0  0  0  0  0  0  0  0  0  0
    2.2474   -8.9123   16.6273 C   0  0  0  0  0  0  0  0  0  0  0  0
    4.4957   -9.2636   17.3041 C   0  0  0  0  0  0  0  0  0  0  0  0
   -1.8070   -5.6086   28.1920 O   0  0  0  0  0  0  0  0  0  0  0  0
   10.4296   -5.1799   28.3140 C   0  0  0  0  0  0  0  0  0  0  0  0
    6.6017   -5.9004   26.9187 C   0  0  0  0  0  0  0  0  0  0  0  0
    2.4761   -6.9940   26.4111 N   0  0  0  0  0  0  0  0  0  0  0  0
    9.1353   -5.4053   27.8239 C   0  0  0  0  0  0  0  0  0  0  0  0
    0.9922   -9.3232   16.5995 O   0  0  0  0  0  0  0  0  0  0  0  0
    1.5232   -7.6869   27.1182 C   0  0  0  0  0  0  0  0  0  0  0  0
    8.6878   -6.6715   27.7262 N   0  0  0  0  0  0  0  0  0  0  0  0
    6.9911   -8.2423   27.1808 C   0  0  0  0  0  0  0  0  0  0  0  0
    3.8436   -7.2758   16.0578 C   0  0  0  0  0  0  0  0  0  0  0  0
    3.1882   -9.7190   17.2566 C   0  0  0  0  0  0  0  0  0  0  0  0
    5.3488   -6.1737   26.5092 C   0  0  0  0  0  0  0  0  0  0  0  0
    7.4567   -6.9464   27.2858 C   0  0  0  0  0  0  0  0  0  0  0  0
    0.1921   -5.7592   27.1123 C   0  0  0  0  0  0  0  0  0  0  0  0
    3.5517   -7.7407   25.9711 C   0  0  0  0  0  0  0  0  0  0  0  0
  1  4  4  0
  1 22  4  0
  2 20  4  0
  2 27  4  0
  3 12  4  0
  3 23  4  0
  4 25  4  0
  4 28  1  0
  5  8  4  0
  5 17  4  0
  6  7  4  0
  6 16  4  0
  7 18  4  0
  8 27  4  0
  9 13  4  0
  9 23  4  0
 10 11  1  0
 11 14  2  0
 11 27  1  0
 12 19  1  0
 12 24  4  0
 13 24  4  0
 15 18  1  0
 16 25  4  0
 16 26  4  0
 17 20  4  0
 17 28  1  0
 18 21  4  0
 21 26  4  0
 22 26  4  0
M  END
$$$$

 Created by Python create_sdf_string function

 28 30  0  0  0  0  0  0  0  0999 V2000
    5.7174   -8.4529   26.7190 C   0  0  0  0  0  0  0  0  0  0  0  0
    0.3974   -7.0711   27.5149 C   0  0  0  0  0  0  0  0  0  0  0  0
    2.5338   -7.6891   16.0102 C   0  0  0  0  0  0  0  0  0  0  0  0
    4.8690   -7.4380   26.4151 C   0  0  0  0  0  0  0  0  0  0  0  0
    2.3021   -5.6726   26.0378 C   0  0  0  0  0  0  0  0  0  0  0  0
    7.0880   -4.6163   27.0010 C   0  0  0  0  0  0  0  0  0  0  0  0
    8.3117   -4.3698   27.4436 C   0  0  0  0  0  0  0  0  0  0  0  0
    1.1339   -5.0515   26.3541 C   0  0  0  0  0  0  0  0  0  0  0  0
    4.8080   -8.0362   16.7101 C   0  0  0  0  0  0  0  0  0  0  0  0
   -1.2173   -3.9294   26.9717 O   0  0  0  0  0  0  0  0  0  0  0  0
   -1.0025   -5.0942   27.4586 C   0  0  0  0  0  0  0  0  0  0  0  0
    2.2474   -8.9123   16.6273 C   0  0  0  0  0  0  0  0  0  0  0  0
    4.4957   -9.2636   17.3041 C   0  0  0  0  0  0  0  0  0  0  0  0
   -1.8070   -5.6086   28.1920 O   0  0  0  0  0  0  0  0  0  0  0  0
   10.4296   -5.1799   28.3140 C   0  0  0  0  0  0  0  0  0  0  0  0
    6.6017   -5.9004   26.9187 C   0  0  0  0  0  0  0  0  0  0  0  0
    2.4761   -6.9940   26.4111 N   0  0  0  0  0  0  0  0  0  0  0  0
    9.1353   -5.4053   27.8239 C   0  0  0  0  0  0  0  0  0  0  0  0
    0.9922   -9.3232   16.5995 O   0  0  0  0  0  0  0  0  0  0  0  0
    1.5232   -7.6869   27.1182 C   0  0  0  0  0  0  0  0  0  0  0  0
    8.6878   -6.6715   27.7262 N   0  0  0  0  0  0  0  0  0  0  0  0
    6.9911   -8.2423   27.1808 C   0  0  0  0  0  0  0  0  0  0  0  0
    3.8436   -7.2758   16.0578 C   0  0  0  0  0  0  0  0  0  0  0  0
    3.1882   -9.7190   17.2566 C   0  0  0  0  0  0  0  0  0  0  0  0
    5.3488   -6.1737   26.5092 C   0  0  0  0  0  0  0  0  0  0  0  0
    7.4567   -6.9464   27.2858 C   0  0  0  0  0  0  0  0  0  0  0  0
    0.1921   -5.7592   27.1123 C   0  0  0  0  0  0  0  0  0  0  0  0
    3.5517   -7.7407   25.9711 C   0  0  0  0  0  0  0  0  0  0  0  0
  1  4  4  0
  1 22  4  0
  2 20  4  0
  2 27  4  0
  3 12  4  0
  3 23  4  0
  4 25  4  0
  4 28  1  0
  5  8  4  0
  5 17  4  0
  6  7  4  0
  6 16  4  0
  7 18  4  0
  8 27  4  0
  9 13  4  0
  9 23  4  0
 10 11  1  0
 11 14  2  0
 11 27  1  0
 12 19  1  0
 12 24  4  0
 13 24  4  0
 15 18  1  0
 16 25  4  0
 16 26  4  0
 17 20  4  0
 17 28  1  0
 18 21  4  0
 21 26  4  0
 22 26  4  0
M  END
$$$$

 Created by Python create_sdf_string function

 28 30  0  0  0  0  0  0  0  0999 V2000
    5.7174   -8.4529   26.7190 C   0  0  0  0  0  0  0  0  0  0  0  0
    0.3974   -7.0711   27.5149 C   0  0  0  0  0  0  0  0  0  0  0  0
    2.5338   -7.6891   16.0102 C   0  0  0  0  0  0  0  0  0  0  0  0
    4.8690   -7.4380   26.4151 C   0  0  0  0  0  0  0  0  0  0  0  0
    2.3021   -5.6726   26.0378 C   0  0  0  0  0  0  0  0  0  0  0  0
    7.0880   -4.6163   27.0010 C   0  0  0  0  0  0  0  0  0  0  0  0
    8.3117   -4.3698   27.4436 C   0  0  0  0  0  0  0  0  0  0  0  0
    1.1339   -5.0515   26.3541 C   0  0  0  0  0  0  0  0  0  0  0  0
    4.8080   -8.0362   16.7101 C   0  0  0  0  0  0  0  0  0  0  0  0
   -1.2173   -3.9294   26.9717 O   0  0  0  0  0  0  0  0  0  0  0  0
   -1.0025   -5.0942   27.4586 C   0  0  0  0  0  0  0  0  0  0  0  0
    2.2474   -8.9123   16.6273 C   0  0  0  0  0  0  0  0  0  0  0  0
    4.4957   -9.2636   17.3041 C   0  0  0  0  0  0  0  0  0  0  0  0
   -1.8070   -5.6086   28.1920 O   0  0  0  0  0  0  0  0  0  0  0  0
   10.4296   -5.1799   28.3140 C   0  0  0  0  0  0  0  0  0  0  0  0
    6.6017   -5.9004   26.9187 C   0  0  0  0  0  0  0  0  0  0  0  0
    2.4761   -6.9940   26.4111 N   0  0  0  0  0  0  0  0  0  0  0  0
    9.1353   -5.4053   27.8239 C   0  0  0  0  0  0  0  0  0  0  0  0
    0.9922   -9.3232   16.5995 O   0  0  0  0  0  0  0  0  0  0  0  0
    1.5232   -7.6869   27.1182 C   0  0  0  0  0  0  0  0  0  0  0  0
    8.6878   -6.6715   27.7262 N   0  0  0  0  0  0  0  0  0  0  0  0
    6.9911   -8.2423   27.1808 C   0  0  0  0  0  0  0  0  0  0  0  0
    3.8436   -7.2758   16.0578 C   0  0  0  0  0  0  0  0  0  0  0  0
    3.1882   -9.7190   17.2566 C   0  0  0  0  0  0  0  0  0  0  0  0
    5.3488   -6.1737   26.5092 C   0  0  0  0  0  0  0  0  0  0  0  0
    7.4567   -6.9464   27.2858 C   0  0  0  0  0  0  0  0  0  0  0  0
    0.1921   -5.7592   27.1123 C   0  0  0  0  0  0  0  0  0  0  0  0
    3.5517   -7.7407   25.9711 C   0  0  0  0  0  0  0  0  0  0  0  0
  1  4  4  0
  1 22  4  0
  2 20  4  0
  2 27  4  0
  3 12  4  0
  3 23  4  0
  4 25  4  0
  4 28  1  0
  5  8  4  0
  5 17  4  0
  6  7  4  0
  6 16  4  0
  7 18  4  0
  8 27  4  0
  9 13  4  0
  9 23  4  0
 10 11  1  0
 11 14  2  0
 11 27  1  0
 12 19  1  0
 12 24  4  0
 13 24  4  0
 15 18  1  0
 16 25  4  0
 16 26  4  0
 17 20  4  0
 17 28  1  0
 18 21  4  0
 21 26  4  0
 22 26  4  0
M  END
$$$$

 Created by Python create_sdf_string function

 28 30  0  0  0  0  0  0  0  0999 V2000
    5.7174   -8.4529   26.7190 C   0  0  0  0  0  0  0  0  0  0  0  0
    0.3974   -7.0711   27.5149 C   0  0  0  0  0  0  0  0  0  0  0  0
    2.5338   -7.6891   16.0102 C   0  0  0  0  0  0  0  0  0  0  0  0
    4.8690   -7.4380   26.4151 C   0  0  0  0  0  0  0  0  0  0  0  0
    2.3021   -5.6726   26.0378 C   0  0  0  0  0  0  0  0  0  0  0  0
    7.0880   -4.6163   27.0010 C   0  0  0  0  0  0  0  0  0  0  0  0
    8.3117   -4.3698   27.4436 C   0  0  0  0  0  0  0  0  0  0  0  0
    1.1339   -5.0515   26.3541 C   0  0  0  0  0  0  0  0  0  0  0  0
    4.8080   -8.0362   16.7101 C   0  0  0  0  0  0  0  0  0  0  0  0
   -1.2173   -3.9294   26.9717 O   0  0  0  0  0  0  0  0  0  0  0  0
   -1.0025   -5.0942   27.4586 C   0  0  0  0  0  0  0  0  0  0  0  0
    2.2474   -8.9123   16.6273 C   0  0  0  0  0  0  0  0  0  0  0  0
    4.4957   -9.2636   17.3041 C   0  0  0  0  0  0  0  0  0  0  0  0
   -1.8070   -5.6086   28.1920 O   0  0  0  0  0  0  0  0  0  0  0  0
   10.4296   -5.1799   28.3140 C   0  0  0  0  0  0  0  0  0  0  0  0
    6.6017   -5.9004   26.9187 C   0  0  0  0  0  0  0  0  0  0  0  0
    2.4761   -6.9940   26.4111 N   0  0  0  0  0  0  0  0  0  0  0  0
    9.1353   -5.4053   27.8239 C   0  0  0  0  0  0  0  0  0  0  0  0
    0.9922   -9.3232   16.5995 O   0  0  0  0  0  0  0  0  0  0  0  0
    1.5232   -7.6869   27.1182 C   0  0  0  0  0  0  0  0  0  0  0  0
    8.6878   -6.6715   27.7262 N   0  0  0  0  0  0  0  0  0  0  0  0
    6.9911   -8.2423   27.1808 C   0  0  0  0  0  0  0  0  0  0  0  0
    3.8436   -7.2758   16.0578 C   0  0  0  0  0  0  0  0  0  0  0  0
    3.1882   -9.7190   17.2566 C   0  0  0  0  0  0  0  0  0  0  0  0
    5.3488   -6.1737   26.5092 C   0  0  0  0  0  0  0  0  0  0  0  0
    7.4567   -6.9464   27.2858 C   0  0  0  0  0  0  0  0  0  0  0  0
    0.1921   -5.7592   27.1123 C   0  0  0  0  0  0  0  0  0  0  0  0
    3.5517   -7.7407   25.9711 C   0  0  0  0  0  0  0  0  0  0  0  0
  1  4  4  0
  1 22  4  0
  2 20  4  0
  2 27  4  0
  3 12  4  0
  3 23  4  0
  4 25  4  0
  4 28  1  0
  5  8  4  0
  5 17  4  0
  6  7  4  0
  6 16  4  0
  7 18  4  0
  8 27  4  0
  9 13  4  0
  9 23  4  0
 10 11  1  0
 11 14  2  0
 11 27  1  0
 12 19  1  0
 12 24  4  0
 13 24  4  0
 15 18  1  0
 16 25  4  0
 16 26  4  0
 17 20  4  0
 17 28  1  0
 18 21  4  0
 21 26  4  0
 22 26  4  0
M  END
$$$$

 Created by Python create_sdf_string function

 28 30  0  0  0  0  0  0  0  0999 V2000
    5.7174   -8.4529   26.7190 C   0  0  0  0  0  0  0  0  0  0  0  0
    0.3974   -7.0711   27.5149 C   0  0  0  0  0  0  0  0  0  0  0  0
    2.5338   -7.6891   16.0102 C   0  0  0  0  0  0  0  0  0  0  0  0
    4.8690   -7.4380   26.4151 C   0  0  0  0  0  0  0  0  0  0  0  0
    2.3021   -5.6726   26.0378 C   0  0  0  0  0  0  0  0  0  0  0  0
    7.0880   -4.6163   27.0010 C   0  0  0  0  0  0  0  0  0  0  0  0
    8.3117   -4.3698   27.4436 C   0  0  0  0  0  0  0  0  0  0  0  0
    1.1339   -5.0515   26.3541 C   0  0  0  0  0  0  0  0  0  0  0  0
    4.8080   -8.0362   16.7101 C   0  0  0  0  0  0  0  0  0  0  0  0
   -1.2173   -3.9294   26.9717 O   0  0  0  0  0  0  0  0  0  0  0  0
   -1.0025   -5.0942   27.4586 C   0  0  0  0  0  0  0  0  0  0  0  0
    2.2474   -8.9123   16.6273 C   0  0  0  0  0  0  0  0  0  0  0  0
    4.4957   -9.2636   17.3041 C   0  0  0  0  0  0  0  0  0  0  0  0
   -1.8070   -5.6086   28.1920 O   0  0  0  0  0  0  0  0  0  0  0  0
   10.4296   -5.1799   28.3140 C   0  0  0  0  0  0  0  0  0  0  0  0
    6.6017   -5.9004   26.9187 C   0  0  0  0  0  0  0  0  0  0  0  0
    2.4761   -6.9940   26.4111 N   0  0  0  0  0  0  0  0  0  0  0  0
    9.1353   -5.4053   27.8239 C   0  0  0  0  0  0  0  0  0  0  0  0
    0.9922   -9.3232   16.5995 O   0  0  0  0  0  0  0  0  0  0  0  0
    1.5232   -7.6869   27.1182 C   0  0  0  0  0  0  0  0  0  0  0  0
    8.6878   -6.6715   27.7262 N   0  0  0  0  0  0  0  0  0  0  0  0
    6.9911   -8.2423   27.1808 C   0  0  0  0  0  0  0  0  0  0  0  0
    3.8436   -7.2758   16.0578 C   0  0  0  0  0  0  0  0  0  0  0  0
    3.1882   -9.7190   17.2566 C   0  0  0  0  0  0  0  0  0  0  0  0
    5.3488   -6.1737   26.5092 C   0  0  0  0  0  0  0  0  0  0  0  0
    7.4567   -6.9464   27.2858 C   0  0  0  0  0  0  0  0  0  0  0  0
    0.1921   -5.7592   27.1123 C   0  0  0  0  0  0  0  0  0  0  0  0
    3.5517   -7.7407   25.9711 C   0  0  0  0  0  0  0  0  0  0  0  0
  1  4  4  0
  1 22  4  0
  2 20  4  0
  2 27  4  0
  3 12  4  0
  3 23  4  0
  4 25  4  0
  4 28  1  0
  5  8  4  0
  5 17  4  0
  6  7  4  0
  6 16  4  0
  7 18  4  0
  8 27  4  0
  9 13  4  0
  9 23  4  0
 10 11  1  0
 11 14  2  0
 11 27  1  0
 12 19  1  0
 12 24  4  0
 13 24  4  0
 15 18  1  0
 16 25  4  0
 16 26  4  0
 17 20  4  0
 17 28  1  0
 18 21  4  0
 21 26  4  0
 22 26  4  0
M  END
$$$$

 Created by Python create_sdf_string function

 28 30  0  0  0  0  0  0  0  0999 V2000
    5.7174   -8.4529   26.7190 C   0  0  0  0  0  0  0  0  0  0  0  0
    0.3974   -7.0711   27.5149 C   0  0  0  0  0  0  0  0  0  0  0  0
    2.5338   -7.6891   16.0102 C   0  0  0  0  0  0  0  0  0  0  0  0
    4.8690   -7.4380   26.4151 C   0  0  0  0  0  0  0  0  0  0  0  0
    2.3021   -5.6726   26.0378 C   0  0  0  0  0  0  0  0  0  0  0  0
    7.0880   -4.6163   27.0010 C   0  0  0  0  0  0  0  0  0  0  0  0
    8.3117   -4.3698   27.4436 C   0  0  0  0  0  0  0  0  0  0  0  0
    1.1339   -5.0515   26.3541 C   0  0  0  0  0  0  0  0  0  0  0  0
    4.8080   -8.0362   16.7101 C   0  0  0  0  0  0  0  0  0  0  0  0
   -1.2173   -3.9294   26.9717 O   0  0  0  0  0  0  0  0  0  0  0  0
   -1.0025   -5.0942   27.4586 C   0  0  0  0  0  0  0  0  0  0  0  0
    2.2474   -8.9123   16.6273 C   0  0  0  0  0  0  0  0  0  0  0  0
    4.4957   -9.2636   17.3041 C   0  0  0  0  0  0  0  0  0  0  0  0
   -1.8070   -5.6086   28.1920 O   0  0  0  0  0  0  0  0  0  0  0  0
   10.4296   -5.1799   28.3140 C   0  0  0  0  0  0  0  0  0  0  0  0
    6.6017   -5.9004   26.9187 C   0  0  0  0  0  0  0  0  0  0  0  0
    2.4761   -6.9940   26.4111 N   0  0  0  0  0  0  0  0  0  0  0  0
    9.1353   -5.4053   27.8239 C   0  0  0  0  0  0  0  0  0  0  0  0
    0.9922   -9.3232   16.5995 O   0  0  0  0  0  0  0  0  0  0  0  0
    1.5232   -7.6869   27.1182 C   0  0  0  0  0  0  0  0  0  0  0  0
    8.6878   -6.6715   27.7262 N   0  0  0  0  0  0  0  0  0  0  0  0
    6.9911   -8.2423   27.1808 C   0  0  0  0  0  0  0  0  0  0  0  0
    3.8436   -7.2758   16.0578 C   0  0  0  0  0  0  0  0  0  0  0  0
    3.1882   -9.7190   17.2566 C   0  0  0  0  0  0  0  0  0  0  0  0
    5.3488   -6.1737   26.5092 C   0  0  0  0  0  0  0  0  0  0  0  0
    7.4567   -6.9464   27.2858 C   0  0  0  0  0  0  0  0  0  0  0  0
    0.1921   -5.7592   27.1123 C   0  0  0  0  0  0  0  0  0  0  0  0
    3.5517   -7.7407   25.9711 C   0  0  0  0  0  0  0  0  0  0  0  0
  1  4  4  0
  1 22  4  0
  2 20  4  0
  2 27  4  0
  3 12  4  0
  3 23  4  0
  4 25  4  0
  4 28  1  0
  5  8  4  0
  5 17  4  0
  6  7  4  0
  6 16  4  0
  7 18  4  0
  8 27  4  0
  9 13  4  0
  9 23  4  0
 10 11  1  0
 11 14  2  0
 11 27  1  0
 12 19  1  0
 12 24  4  0
 13 24  4  0
 15 18  1  0
 16 25  4  0
 16 26  4  0
 17 20  4  0
 17 28  1  0
 18 21  4  0
 21 26  4  0
 22 26  4  0
M  END
$$$$

 Created by Python create_sdf_string function

 28 30  0  0  0  0  0  0  0  0999 V2000
    5.7174   -8.4529   26.7190 C   0  0  0  0  0  0  0  0  0  0  0  0
    0.3974   -7.0711   27.5149 C   0  0  0  0  0  0  0  0  0  0  0  0
    2.5338   -7.6891   16.0102 C   0  0  0  0  0  0  0  0  0  0  0  0
    4.8690   -7.4380   26.4151 C   0  0  0  0  0  0  0  0  0  0  0  0
    2.3021   -5.6726   26.0378 C   0  0  0  0  0  0  0  0  0  0  0  0
    7.0880   -4.6163   27.0010 C   0  0  0  0  0  0  0  0  0  0  0  0
    8.3117   -4.3698   27.4436 C   0  0  0  0  0  0  0  0  0  0  0  0
    1.1339   -5.0515   26.3541 C   0  0  0  0  0  0  0  0  0  0  0  0
    4.8080   -8.0362   16.7101 C   0  0  0  0  0  0  0  0  0  0  0  0
   -1.2173   -3.9294   26.9717 O   0  0  0  0  0  0  0  0  0  0  0  0
   -1.0025   -5.0942   27.4586 C   0  0  0  0  0  0  0  0  0  0  0  0
    2.2474   -8.9123   16.6273 C   0  0  0  0  0  0  0  0  0  0  0  0
    4.4957   -9.2636   17.3041 C   0  0  0  0  0  0  0  0  0  0  0  0
   -1.8070   -5.6086   28.1920 O   0  0  0  0  0  0  0  0  0  0  0  0
   10.4296   -5.1799   28.3140 C   0  0  0  0  0  0  0  0  0  0  0  0
    6.6017   -5.9004   26.9187 C   0  0  0  0  0  0  0  0  0  0  0  0
    2.4761   -6.9940   26.4111 N   0  0  0  0  0  0  0  0  0  0  0  0
    9.1353   -5.4053   27.8239 C   0  0  0  0  0  0  0  0  0  0  0  0
    0.9922   -9.3232   16.5995 O   0  0  0  0  0  0  0  0  0  0  0  0
    1.5232   -7.6869   27.1182 C   0  0  0  0  0  0  0  0  0  0  0  0
    8.6878   -6.6715   27.7262 N   0  0  0  0  0  0  0  0  0  0  0  0
    6.9911   -8.2423   27.1808 C   0  0  0  0  0  0  0  0  0  0  0  0
    3.8436   -7.2758   16.0578 C   0  0  0  0  0  0  0  0  0  0  0  0
    3.1882   -9.7190   17.2566 C   0  0  0  0  0  0  0  0  0  0  0  0
    5.3488   -6.1737   26.5092 C   0  0  0  0  0  0  0  0  0  0  0  0
    7.4567   -6.9464   27.2858 C   0  0  0  0  0  0  0  0  0  0  0  0
    0.1921   -5.7592   27.1123 C   0  0  0  0  0  0  0  0  0  0  0  0
    3.5517   -7.7407   25.9711 C   0  0  0  0  0  0  0  0  0  0  0  0
  1  4  4  0
  1 22  4  0
  2 20  4  0
  2 27  4  0
  3 12  4  0
  3 23  4  0
  4 25  4  0
  4 28  1  0
  5  8  4  0
  5 17  4  0
  6  7  4  0
  6 16  4  0
  7 18  4  0
  8 27  4  0
  9 13  4  0
  9 23  4  0
 10 11  1  0
 11 14  2  0
 11 27  1  0
 12 19  1  0
 12 24  4  0
 13 24  4  0
 15 18  1  0
 16 25  4  0
 16 26  4  0
 17 20  4  0
 17 28  1  0
 18 21  4  0
 21 26  4  0
 22 26  4  0
M  END
$$$$

 Created by Python create_sdf_string function

 28 30  0  0  0  0  0  0  0  0999 V2000
    5.7174   -8.4529   26.7190 C   0  0  0  0  0  0  0  0  0  0  0  0
    0.3974   -7.0711   27.5149 C   0  0  0  0  0  0  0  0  0  0  0  0
    2.5338   -7.6891   16.0102 C   0  0  0  0  0  0  0  0  0  0  0  0
    4.8690   -7.4380   26.4151 C   0  0  0  0  0  0  0  0  0  0  0  0
    2.3021   -5.6726   26.0378 C   0  0  0  0  0  0  0  0  0  0  0  0
    7.0880   -4.6163   27.0010 C   0  0  0  0  0  0  0  0  0  0  0  0
    8.3117   -4.3698   27.4436 C   0  0  0  0  0  0  0  0  0  0  0  0
    1.1339   -5.0515   26.3541 C   0  0  0  0  0  0  0  0  0  0  0  0
    4.8080   -8.0362   16.7101 C   0  0  0  0  0  0  0  0  0  0  0  0
   -1.2173   -3.9294   26.9717 O   0  0  0  0  0  0  0  0  0  0  0  0
   -1.0025   -5.0942   27.4586 C   0  0  0  0  0  0  0  0  0  0  0  0
    2.2474   -8.9123   16.6273 C   0  0  0  0  0  0  0  0  0  0  0  0
    4.4957   -9.2636   17.3041 C   0  0  0  0  0  0  0  0  0  0  0  0
   -1.8070   -5.6086   28.1920 O   0  0  0  0  0  0  0  0  0  0  0  0
   10.4296   -5.1799   28.3140 C   0  0  0  0  0  0  0  0  0  0  0  0
    6.6017   -5.9004   26.9187 C   0  0  0  0  0  0  0  0  0  0  0  0
    2.4761   -6.9940   26.4111 N   0  0  0  0  0  0  0  0  0  0  0  0
    9.1353   -5.4053   27.8239 C   0  0  0  0  0  0  0  0  0  0  0  0
    0.9922   -9.3232   16.5995 O   0  0  0  0  0  0  0  0  0  0  0  0
    1.5232   -7.6869   27.1182 C   0  0  0  0  0  0  0  0  0  0  0  0
    8.6878   -6.6715   27.7262 N   0  0  0  0  0  0  0  0  0  0  0  0
    6.9911   -8.2423   27.1808 C   0  0  0  0  0  0  0  0  0  0  0  0
    3.8436   -7.2758   16.0578 C   0  0  0  0  0  0  0  0  0  0  0  0
    3.1882   -9.7190   17.2566 C   0  0  0  0  0  0  0  0  0  0  0  0
    5.3488   -6.1737   26.5092 C   0  0  0  0  0  0  0  0  0  0  0  0
    7.4567   -6.9464   27.2858 C   0  0  0  0  0  0  0  0  0  0  0  0
    0.1921   -5.7592   27.1123 C   0  0  0  0  0  0  0  0  0  0  0  0
    3.5517   -7.7407   25.9711 C   0  0  0  0  0  0  0  0  0  0  0  0
  1  4  4  0
  1 22  4  0
  2 20  4  0
  2 27  4  0
  3 12  4  0
  3 23  4  0
  4 25  4  0
  4 28  1  0
  5  8  4  0
  5 17  4  0
  6  7  4  0
  6 16  4  0
  7 18  4  0
  8 27  4  0
  9 13  4  0
  9 23  4  0
 10 11  1  0
 11 14  2  0
 11 27  1  0
 12 19  1  0
 12 24  4  0
 13 24  4  0
 15 18  1  0
 16 25  4  0
 16 26  4  0
 17 20  4  0
 17 28  1  0
 18 21  4  0
 21 26  4  0
 22 26  4  0
M  END
$$$$

 Created by Python create_sdf_string function

 28 30  0  0  0  0  0  0  0  0999 V2000
    5.7174   -8.4529   26.7190 C   0  0  0  0  0  0  0  0  0  0  0  0
    0.3974   -7.0711   27.5149 C   0  0  0  0  0  0  0  0  0  0  0  0
    2.5338   -7.6891   16.0102 C   0  0  0  0  0  0  0  0  0  0  0  0
    4.8690   -7.4380   26.4151 C   0  0  0  0  0  0  0  0  0  0  0  0
    2.3021   -5.6726   26.0378 C   0  0  0  0  0  0  0  0  0  0  0  0
    7.0880   -4.6163   27.0010 C   0  0  0  0  0  0  0  0  0  0  0  0
    8.3117   -4.3698   27.4436 C   0  0  0  0  0  0  0  0  0  0  0  0
    1.1339   -5.0515   26.3541 C   0  0  0  0  0  0  0  0  0  0  0  0
    4.8080   -8.0362   16.7101 C   0  0  0  0  0  0  0  0  0  0  0  0
   -1.2173   -3.9294   26.9717 O   0  0  0  0  0  0  0  0  0  0  0  0
   -1.0025   -5.0942   27.4586 C   0  0  0  0  0  0  0  0  0  0  0  0
    2.2474   -8.9123   16.6273 C   0  0  0  0  0  0  0  0  0  0  0  0
    4.4957   -9.2636   17.3041 C   0  0  0  0  0  0  0  0  0  0  0  0
   -1.8070   -5.6086   28.1920 O   0  0  0  0  0  0  0  0  0  0  0  0
   10.4296   -5.1799   28.3140 C   0  0  0  0  0  0  0  0  0  0  0  0
    6.6017   -5.9004   26.9187 C   0  0  0  0  0  0  0  0  0  0  0  0
    2.4761   -6.9940   26.4111 N   0  0  0  0  0  0  0  0  0  0  0  0
    9.1353   -5.4053   27.8239 C   0  0  0  0  0  0  0  0  0  0  0  0
    0.9922   -9.3232   16.5995 O   0  0  0  0  0  0  0  0  0  0  0  0
    1.5232   -7.6869   27.1182 C   0  0  0  0  0  0  0  0  0  0  0  0
    8.6878   -6.6715   27.7262 N   0  0  0  0  0  0  0  0  0  0  0  0
    6.9911   -8.2423   27.1808 C   0  0  0  0  0  0  0  0  0  0  0  0
    3.8436   -7.2758   16.0578 C   0  0  0  0  0  0  0  0  0  0  0  0
    3.1882   -9.7190   17.2566 C   0  0  0  0  0  0  0  0  0  0  0  0
    5.3488   -6.1737   26.5092 C   0  0  0  0  0  0  0  0  0  0  0  0
    7.4567   -6.9464   27.2858 C   0  0  0  0  0  0  0  0  0  0  0  0
    0.1921   -5.7592   27.1123 C   0  0  0  0  0  0  0  0  0  0  0  0
    3.5517   -7.7407   25.9711 C   0  0  0  0  0  0  0  0  0  0  0  0
  1  4  4  0
  1 22  4  0
  2 20  4  0
  2 27  4  0
  3 12  4  0
  3 23  4  0
  4 25  4  0
  4 28  1  0
  5  8  4  0
  5 17  4  0
  6  7  4  0
  6 16  4  0
  7 18  4  0
  8 27  4  0
  9 13  4  0
  9 23  4  0
 10 11  1  0
 11 14  2  0
 11 27  1  0
 12 19  1  0
 12 24  4  0
 13 24  4  0
 15 18  1  0
 16 25  4  0
 16 26  4  0
 17 20  4  0
 17 28  1  0
 18 21  4  0
 21 26  4  0
 22 26  4  0
M  END
$$$$

 Created by Python create_sdf_string function

 28 30  0  0  0  0  0  0  0  0999 V2000
    5.7174   -8.4529   26.7190 C   0  0  0  0  0  0  0  0  0  0  0  0
    0.3974   -7.0711   27.5149 C   0  0  0  0  0  0  0  0  0  0  0  0
    2.5338   -7.6891   16.0102 C   0  0  0  0  0  0  0  0  0  0  0  0
    4.8690   -7.4380   26.4151 C   0  0  0  0  0  0  0  0  0  0  0  0
    2.3021   -5.6726   26.0378 C   0  0  0  0  0  0  0  0  0  0  0  0
    7.0880   -4.6163   27.0010 C   0  0  0  0  0  0  0  0  0  0  0  0
    8.3117   -4.3698   27.4436 C   0  0  0  0  0  0  0  0  0  0  0  0
    1.1339   -5.0515   26.3541 C   0  0  0  0  0  0  0  0  0  0  0  0
    4.8080   -8.0362   16.7101 C   0  0  0  0  0  0  0  0  0  0  0  0
   -1.2173   -3.9294   26.9717 O   0  0  0  0  0  0  0  0  0  0  0  0
   -1.0025   -5.0942   27.4586 C   0  0  0  0  0  0  0  0  0  0  0  0
    2.2474   -8.9123   16.6273 C   0  0  0  0  0  0  0  0  0  0  0  0
    4.4957   -9.2636   17.3041 C   0  0  0  0  0  0  0  0  0  0  0  0
   -1.8070   -5.6086   28.1920 O   0  0  0  0  0  0  0  0  0  0  0  0
   10.4296   -5.1799   28.3140 C   0  0  0  0  0  0  0  0  0  0  0  0
    6.6017   -5.9004   26.9187 C   0  0  0  0  0  0  0  0  0  0  0  0
    2.4761   -6.9940   26.4111 N   0  0  0  0  0  0  0  0  0  0  0  0
    9.1353   -5.4053   27.8239 C   0  0  0  0  0  0  0  0  0  0  0  0
    0.9922   -9.3232   16.5995 O   0  0  0  0  0  0  0  0  0  0  0  0
    1.5232   -7.6869   27.1182 C   0  0  0  0  0  0  0  0  0  0  0  0
    8.6878   -6.6715   27.7262 N   0  0  0  0  0  0  0  0  0  0  0  0
    6.9911   -8.2423   27.1808 C   0  0  0  0  0  0  0  0  0  0  0  0
    3.8436   -7.2758   16.0578 C   0  0  0  0  0  0  0  0  0  0  0  0
    3.1882   -9.7190   17.2566 C   0  0  0  0  0  0  0  0  0  0  0  0
    5.3488   -6.1737   26.5092 C   0  0  0  0  0  0  0  0  0  0  0  0
    7.4567   -6.9464   27.2858 C   0  0  0  0  0  0  0  0  0  0  0  0
    0.1921   -5.7592   27.1123 C   0  0  0  0  0  0  0  0  0  0  0  0
    3.5517   -7.7407   25.9711 C   0  0  0  0  0  0  0  0  0  0  0  0
  1  4  4  0
  1 22  4  0
  2 20  4  0
  2 27  4  0
  3 12  4  0
  3 23  4  0
  4 25  4  0
  4 28  1  0
  5  8  4  0
  5 17  4  0
  6  7  4  0
  6 16  4  0
  7 18  4  0
  8 27  4  0
  9 13  4  0
  9 23  4  0
 10 11  1  0
 11 14  2  0
 11 27  1  0
 12 19  1  0
 12 24  4  0
 13 24  4  0
 15 18  1  0
 16 25  4  0
 16 26  4  0
 17 20  4  0
 17 28  1  0
 18 21  4  0
 21 26  4  0
 22 26  4  0
M  END
$$$$

 Created by Python create_sdf_string function

 28 30  0  0  0  0  0  0  0  0999 V2000
    5.7174   -8.4529   26.7190 C   0  0  0  0  0  0  0  0  0  0  0  0
    0.3974   -7.0711   27.5149 C   0  0  0  0  0  0  0  0  0  0  0  0
    2.5338   -7.6891   16.0102 C   0  0  0  0  0  0  0  0  0  0  0  0
    4.8690   -7.4380   26.4151 C   0  0  0  0  0  0  0  0  0  0  0  0
    2.3021   -5.6726   26.0378 C   0  0  0  0  0  0  0  0  0  0  0  0
    7.0880   -4.6163   27.0010 C   0  0  0  0  0  0  0  0  0  0  0  0
    8.3117   -4.3698   27.4436 C   0  0  0  0  0  0  0  0  0  0  0  0
    1.1339   -5.0515   26.3541 C   0  0  0  0  0  0  0  0  0  0  0  0
    4.8080   -8.0362   16.7101 C   0  0  0  0  0  0  0  0  0  0  0  0
   -1.2173   -3.9294   26.9717 O   0  0  0  0  0  0  0  0  0  0  0  0
   -1.0025   -5.0942   27.4586 C   0  0  0  0  0  0  0  0  0  0  0  0
    2.2474   -8.9123   16.6273 C   0  0  0  0  0  0  0  0  0  0  0  0
    4.4957   -9.2636   17.3041 C   0  0  0  0  0  0  0  0  0  0  0  0
   -1.8070   -5.6086   28.1920 O   0  0  0  0  0  0  0  0  0  0  0  0
   10.4296   -5.1799   28.3140 C   0  0  0  0  0  0  0  0  0  0  0  0
    6.6017   -5.9004   26.9187 C   0  0  0  0  0  0  0  0  0  0  0  0
    2.4761   -6.9940   26.4111 N   0  0  0  0  0  0  0  0  0  0  0  0
    9.1353   -5.4053   27.8239 C   0  0  0  0  0  0  0  0  0  0  0  0
    0.9922   -9.3232   16.5995 O   0  0  0  0  0  0  0  0  0  0  0  0
    1.5232   -7.6869   27.1182 C   0  0  0  0  0  0  0  0  0  0  0  0
    8.6878   -6.6715   27.7262 N   0  0  0  0  0  0  0  0  0  0  0  0
    6.9911   -8.2423   27.1808 C   0  0  0  0  0  0  0  0  0  0  0  0
    3.8436   -7.2758   16.0578 C   0  0  0  0  0  0  0  0  0  0  0  0
    3.1882   -9.7190   17.2566 C   0  0  0  0  0  0  0  0  0  0  0  0
    5.3488   -6.1737   26.5092 C   0  0  0  0  0  0  0  0  0  0  0  0
    7.4567   -6.9464   27.2858 C   0  0  0  0  0  0  0  0  0  0  0  0
    0.1921   -5.7592   27.1123 C   0  0  0  0  0  0  0  0  0  0  0  0
    3.5517   -7.7407   25.9711 C   0  0  0  0  0  0  0  0  0  0  0  0
  1  4  4  0
  1 22  4  0
  2 20  4  0
  2 27  4  0
  3 12  4  0
  3 23  4  0
  4 25  4  0
  4 28  1  0
  5  8  4  0
  5 17  4  0
  6  7  4  0
  6 16  4  0
  7 18  4  0
  8 27  4  0
  9 13  4  0
  9 23  4  0
 10 11  1  0
 11 14  2  0
 11 27  1  0
 12 19  1  0
 12 24  4  0
 13 24  4  0
 15 18  1  0
 16 25  4  0
 16 26  4  0
 17 20  4  0
 17 28  1  0
 18 21  4  0
 21 26  4  0
 22 26  4  0
M  END
$$$$

 Created by Python create_sdf_string function

 28 30  0  0  0  0  0  0  0  0999 V2000
    5.7174   -8.4529   26.7190 C   0  0  0  0  0  0  0  0  0  0  0  0
    0.3974   -7.0711   27.5149 C   0  0  0  0  0  0  0  0  0  0  0  0
    2.5338   -7.6891   16.0102 C   0  0  0  0  0  0  0  0  0  0  0  0
    4.8690   -7.4380   26.4151 C   0  0  0  0  0  0  0  0  0  0  0  0
    2.3021   -5.6726   26.0378 C   0  0  0  0  0  0  0  0  0  0  0  0
    7.0880   -4.6163   27.0010 C   0  0  0  0  0  0  0  0  0  0  0  0
    8.3117   -4.3698   27.4436 C   0  0  0  0  0  0  0  0  0  0  0  0
    1.1339   -5.0515   26.3541 C   0  0  0  0  0  0  0  0  0  0  0  0
    4.8080   -8.0362   16.7101 C   0  0  0  0  0  0  0  0  0  0  0  0
   -1.2173   -3.9294   26.9717 O   0  0  0  0  0  0  0  0  0  0  0  0
   -1.0025   -5.0942   27.4586 C   0  0  0  0  0  0  0  0  0  0  0  0
    2.2474   -8.9123   16.6273 C   0  0  0  0  0  0  0  0  0  0  0  0
    4.4957   -9.2636   17.3041 C   0  0  0  0  0  0  0  0  0  0  0  0
   -1.8070   -5.6086   28.1920 O   0  0  0  0  0  0  0  0  0  0  0  0
   10.4296   -5.1799   28.3140 C   0  0  0  0  0  0  0  0  0  0  0  0
    6.6017   -5.9004   26.9187 C   0  0  0  0  0  0  0  0  0  0  0  0
    2.4761   -6.9940   26.4111 N   0  0  0  0  0  0  0  0  0  0  0  0
    9.1353   -5.4053   27.8239 C   0  0  0  0  0  0  0  0  0  0  0  0
    0.9922   -9.3232   16.5995 O   0  0  0  0  0  0  0  0  0  0  0  0
    1.5232   -7.6869   27.1182 C   0  0  0  0  0  0  0  0  0  0  0  0
    8.6878   -6.6715   27.7262 N   0  0  0  0  0  0  0  0  0  0  0  0
    6.9911   -8.2423   27.1808 C   0  0  0  0  0  0  0  0  0  0  0  0
    3.8436   -7.2758   16.0578 C   0  0  0  0  0  0  0  0  0  0  0  0
    3.1882   -9.7190   17.2566 C   0  0  0  0  0  0  0  0  0  0  0  0
    5.3488   -6.1737   26.5092 C   0  0  0  0  0  0  0  0  0  0  0  0
    7.4567   -6.9464   27.2858 C   0  0  0  0  0  0  0  0  0  0  0  0
    0.1921   -5.7592   27.1123 C   0  0  0  0  0  0  0  0  0  0  0  0
    3.5517   -7.7407   25.9711 C   0  0  0  0  0  0  0  0  0  0  0  0
  1  4  4  0
  1 22  4  0
  2 20  4  0
  2 27  4  0
  3 12  4  0
  3 23  4  0
  4 25  4  0
  4 28  1  0
  5  8  4  0
  5 17  4  0
  6  7  4  0
  6 16  4  0
  7 18  4  0
  8 27  4  0
  9 13  4  0
  9 23  4  0
 10 11  1  0
 11 14  2  0
 11 27  1  0
 12 19  1  0
 12 24  4  0
 13 24  4  0
 15 18  1  0
 16 25  4  0
 16 26  4  0
 17 20  4  0
 17 28  1  0
 18 21  4  0
 21 26  4  0
 22 26  4  0
M  END
$$$$

 Created by Python create_sdf_string function

 28 30  0  0  0  0  0  0  0  0999 V2000
    5.7174   -8.4529   26.7190 C   0  0  0  0  0  0  0  0  0  0  0  0
    0.3974   -7.0711   27.5149 C   0  0  0  0  0  0  0  0  0  0  0  0
    2.5338   -7.6891   16.0102 C   0  0  0  0  0  0  0  0  0  0  0  0
    4.8690   -7.4380   26.4151 C   0  0  0  0  0  0  0  0  0  0  0  0
    2.3021   -5.6726   26.0378 C   0  0  0  0  0  0  0  0  0  0  0  0
    7.0880   -4.6163   27.0010 C   0  0  0  0  0  0  0  0  0  0  0  0
    8.3117   -4.3698   27.4436 C   0  0  0  0  0  0  0  0  0  0  0  0
    1.1339   -5.0515   26.3541 C   0  0  0  0  0  0  0  0  0  0  0  0
    4.8080   -8.0362   16.7101 C   0  0  0  0  0  0  0  0  0  0  0  0
   -1.2173   -3.9294   26.9717 O   0  0  0  0  0  0  0  0  0  0  0  0
   -1.0025   -5.0942   27.4586 C   0  0  0  0  0  0  0  0  0  0  0  0
    2.2474   -8.9123   16.6273 C   0  0  0  0  0  0  0  0  0  0  0  0
    4.4957   -9.2636   17.3041 C   0  0  0  0  0  0  0  0  0  0  0  0
   -1.8070   -5.6086   28.1920 O   0  0  0  0  0  0  0  0  0  0  0  0
   10.4296   -5.1799   28.3140 C   0  0  0  0  0  0  0  0  0  0  0  0
    6.6017   -5.9004   26.9187 C   0  0  0  0  0  0  0  0  0  0  0  0
    2.4761   -6.9940   26.4111 N   0  0  0  0  0  0  0  0  0  0  0  0
    9.1353   -5.4053   27.8239 C   0  0  0  0  0  0  0  0  0  0  0  0
    0.9922   -9.3232   16.5995 O   0  0  0  0  0  0  0  0  0  0  0  0
    1.5232   -7.6869   27.1182 C   0  0  0  0  0  0  0  0  0  0  0  0
    8.6878   -6.6715   27.7262 N   0  0  0  0  0  0  0  0  0  0  0  0
    6.9911   -8.2423   27.1808 C   0  0  0  0  0  0  0  0  0  0  0  0
    3.8436   -7.2758   16.0578 C   0  0  0  0  0  0  0  0  0  0  0  0
    3.1882   -9.7190   17.2566 C   0  0  0  0  0  0  0  0  0  0  0  0
    5.3488   -6.1737   26.5092 C   0  0  0  0  0  0  0  0  0  0  0  0
    7.4567   -6.9464   27.2858 C   0  0  0  0  0  0  0  0  0  0  0  0
    0.1921   -5.7592   27.1123 C   0  0  0  0  0  0  0  0  0  0  0  0
    3.5517   -7.7407   25.9711 C   0  0  0  0  0  0  0  0  0  0  0  0
  1  4  4  0
  1 22  4  0
  2 20  4  0
  2 27  4  0
  3 12  4  0
  3 23  4  0
  4 25  4  0
  4 28  1  0
  5  8  4  0
  5 17  4  0
  6  7  4  0
  6 16  4  0
  7 18  4  0
  8 27  4  0
  9 13  4  0
  9 23  4  0
 10 11  1  0
 11 14  2  0
 11 27  1  0
 12 19  1  0
 12 24  4  0
 13 24  4  0
 15 18  1  0
 16 25  4  0
 16 26  4  0
 17 20  4  0
 17 28  1  0
 18 21  4  0
 21 26  4  0
 22 26  4  0
M  END
$$$$

 Created by Python create_sdf_string function

 28 30  0  0  0  0  0  0  0  0999 V2000
    5.7174   -8.4529   26.7190 C   0  0  0  0  0  0  0  0  0  0  0  0
    0.3974   -7.0711   27.5149 C   0  0  0  0  0  0  0  0  0  0  0  0
    2.5338   -7.6891   16.0102 C   0  0  0  0  0  0  0  0  0  0  0  0
    4.8690   -7.4380   26.4151 C   0  0  0  0  0  0  0  0  0  0  0  0
    2.3021   -5.6726   26.0378 C   0  0  0  0  0  0  0  0  0  0  0  0
    7.0880   -4.6163   27.0010 C   0  0  0  0  0  0  0  0  0  0  0  0
    8.3117   -4.3698   27.4436 C   0  0  0  0  0  0  0  0  0  0  0  0
    1.1339   -5.0515   26.3541 C   0  0  0  0  0  0  0  0  0  0  0  0
    4.8080   -8.0362   16.7101 C   0  0  0  0  0  0  0  0  0  0  0  0
   -1.2173   -3.9294   26.9717 O   0  0  0  0  0  0  0  0  0  0  0  0
   -1.0025   -5.0942   27.4586 C   0  0  0  0  0  0  0  0  0  0  0  0
    2.2474   -8.9123   16.6273 C   0  0  0  0  0  0  0  0  0  0  0  0
    4.4957   -9.2636   17.3041 C   0  0  0  0  0  0  0  0  0  0  0  0
   -1.8070   -5.6086   28.1920 O   0  0  0  0  0  0  0  0  0  0  0  0
   10.4296   -5.1799   28.3140 C   0  0  0  0  0  0  0  0  0  0  0  0
    6.6017   -5.9004   26.9187 C   0  0  0  0  0  0  0  0  0  0  0  0
    2.4761   -6.9940   26.4111 N   0  0  0  0  0  0  0  0  0  0  0  0
    9.1353   -5.4053   27.8239 C   0  0  0  0  0  0  0  0  0  0  0  0
    0.9922   -9.3232   16.5995 O   0  0  0  0  0  0  0  0  0  0  0  0
    1.5232   -7.6869   27.1182 C   0  0  0  0  0  0  0  0  0  0  0  0
    8.6878   -6.6715   27.7262 N   0  0  0  0  0  0  0  0  0  0  0  0
    6.9911   -8.2423   27.1808 C   0  0  0  0  0  0  0  0  0  0  0  0
    3.8436   -7.2758   16.0578 C   0  0  0  0  0  0  0  0  0  0  0  0
    3.1882   -9.7190   17.2566 C   0  0  0  0  0  0  0  0  0  0  0  0
    5.3488   -6.1737   26.5092 C   0  0  0  0  0  0  0  0  0  0  0  0
    7.4567   -6.9464   27.2858 C   0  0  0  0  0  0  0  0  0  0  0  0
    0.1921   -5.7592   27.1123 C   0  0  0  0  0  0  0  0  0  0  0  0
    3.5517   -7.7407   25.9711 C   0  0  0  0  0  0  0  0  0  0  0  0
  1  4  4  0
  1 22  4  0
  2 20  4  0
  2 27  4  0
  3 12  4  0
  3 23  4  0
  4 25  4  0
  4 28  1  0
  5  8  4  0
  5 17  4  0
  6  7  4  0
  6 16  4  0
  7 18  4  0
  8 27  4  0
  9 13  4  0
  9 23  4  0
 10 11  1  0
 11 14  2  0
 11 27  1  0
 12 19  1  0
 12 24  4  0
 13 24  4  0
 15 18  1  0
 16 25  4  0
 16 26  4  0
 17 20  4  0
 17 28  1  0
 18 21  4  0
 21 26  4  0
 22 26  4  0
M  END
$$$$

 Created by Python create_sdf_string function

 28 30  0  0  0  0  0  0  0  0999 V2000
    5.7174   -8.4529   26.7190 C   0  0  0  0  0  0  0  0  0  0  0  0
    0.3974   -7.0711   27.5149 C   0  0  0  0  0  0  0  0  0  0  0  0
    2.5338   -7.6891   16.0102 C   0  0  0  0  0  0  0  0  0  0  0  0
    4.8690   -7.4380   26.4151 C   0  0  0  0  0  0  0  0  0  0  0  0
    2.3021   -5.6726   26.0378 C   0  0  0  0  0  0  0  0  0  0  0  0
    7.0880   -4.6163   27.0010 C   0  0  0  0  0  0  0  0  0  0  0  0
    8.3117   -4.3698   27.4436 C   0  0  0  0  0  0  0  0  0  0  0  0
    1.1339   -5.0515   26.3541 C   0  0  0  0  0  0  0  0  0  0  0  0
    4.8080   -8.0362   16.7101 C   0  0  0  0  0  0  0  0  0  0  0  0
   -1.2173   -3.9294   26.9717 O   0  0  0  0  0  0  0  0  0  0  0  0
   -1.0025   -5.0942   27.4586 C   0  0  0  0  0  0  0  0  0  0  0  0
    2.2474   -8.9123   16.6273 C   0  0  0  0  0  0  0  0  0  0  0  0
    4.4957   -9.2636   17.3041 C   0  0  0  0  0  0  0  0  0  0  0  0
   -1.8070   -5.6086   28.1920 O   0  0  0  0  0  0  0  0  0  0  0  0
   10.4296   -5.1799   28.3140 C   0  0  0  0  0  0  0  0  0  0  0  0
    6.6017   -5.9004   26.9187 C   0  0  0  0  0  0  0  0  0  0  0  0
    2.4761   -6.9940   26.4111 N   0  0  0  0  0  0  0  0  0  0  0  0
    9.1353   -5.4053   27.8239 C   0  0  0  0  0  0  0  0  0  0  0  0
    0.9922   -9.3232   16.5995 O   0  0  0  0  0  0  0  0  0  0  0  0
    1.5232   -7.6869   27.1182 C   0  0  0  0  0  0  0  0  0  0  0  0
    8.6878   -6.6715   27.7262 N   0  0  0  0  0  0  0  0  0  0  0  0
    6.9911   -8.2423   27.1808 C   0  0  0  0  0  0  0  0  0  0  0  0
    3.8436   -7.2758   16.0578 C   0  0  0  0  0  0  0  0  0  0  0  0
    3.1882   -9.7190   17.2566 C   0  0  0  0  0  0  0  0  0  0  0  0
    5.3488   -6.1737   26.5092 C   0  0  0  0  0  0  0  0  0  0  0  0
    7.4567   -6.9464   27.2858 C   0  0  0  0  0  0  0  0  0  0  0  0
    0.1921   -5.7592   27.1123 C   0  0  0  0  0  0  0  0  0  0  0  0
    3.5517   -7.7407   25.9711 C   0  0  0  0  0  0  0  0  0  0  0  0
  1  4  4  0
  1 22  4  0
  2 20  4  0
  2 27  4  0
  3 12  4  0
  3 23  4  0
  4 25  4  0
  4 28  1  0
  5  8  4  0
  5 17  4  0
  6  7  4  0
  6 16  4  0
  7 18  4  0
  8 27  4  0
  9 13  4  0
  9 23  4  0
 10 11  1  0
 11 14  2  0
 11 27  1  0
 12 19  1  0
 12 24  4  0
 13 24  4  0
 15 18  1  0
 16 25  4  0
 16 26  4  0
 17 20  4  0
 17 28  1  0
 18 21  4  0
 21 26  4  0
 22 26  4  0
M  END
$$$$

 Created by Python create_sdf_string function

 28 30  0  0  0  0  0  0  0  0999 V2000
    5.7174   -8.4529   26.7190 C   0  0  0  0  0  0  0  0  0  0  0  0
    0.3974   -7.0711   27.5149 C   0  0  0  0  0  0  0  0  0  0  0  0
    2.5338   -7.6891   16.0102 C   0  0  0  0  0  0  0  0  0  0  0  0
    4.8690   -7.4380   26.4151 C   0  0  0  0  0  0  0  0  0  0  0  0
    2.3021   -5.6726   26.0378 C   0  0  0  0  0  0  0  0  0  0  0  0
    7.0880   -4.6163   27.0010 C   0  0  0  0  0  0  0  0  0  0  0  0
    8.3117   -4.3698   27.4436 C   0  0  0  0  0  0  0  0  0  0  0  0
    1.1339   -5.0515   26.3541 C   0  0  0  0  0  0  0  0  0  0  0  0
    4.8080   -8.0362   16.7101 C   0  0  0  0  0  0  0  0  0  0  0  0
   -1.2173   -3.9294   26.9717 O   0  0  0  0  0  0  0  0  0  0  0  0
   -1.0025   -5.0942   27.4586 C   0  0  0  0  0  0  0  0  0  0  0  0
    2.2474   -8.9123   16.6273 C   0  0  0  0  0  0  0  0  0  0  0  0
    4.4957   -9.2636   17.3041 C   0  0  0  0  0  0  0  0  0  0  0  0
   -1.8070   -5.6086   28.1920 O   0  0  0  0  0  0  0  0  0  0  0  0
   10.4296   -5.1799   28.3140 C   0  0  0  0  0  0  0  0  0  0  0  0
    6.6017   -5.9004   26.9187 C   0  0  0  0  0  0  0  0  0  0  0  0
    2.4761   -6.9940   26.4111 N   0  0  0  0  0  0  0  0  0  0  0  0
    9.1353   -5.4053   27.8239 C   0  0  0  0  0  0  0  0  0  0  0  0
    0.9922   -9.3232   16.5995 O   0  0  0  0  0  0  0  0  0  0  0  0
    1.5232   -7.6869   27.1182 C   0  0  0  0  0  0  0  0  0  0  0  0
    8.6878   -6.6715   27.7262 N   0  0  0  0  0  0  0  0  0  0  0  0
    6.9911   -8.2423   27.1808 C   0  0  0  0  0  0  0  0  0  0  0  0
    3.8436   -7.2758   16.0578 C   0  0  0  0  0  0  0  0  0  0  0  0
    3.1882   -9.7190   17.2566 C   0  0  0  0  0  0  0  0  0  0  0  0
    5.3488   -6.1737   26.5092 C   0  0  0  0  0  0  0  0  0  0  0  0
    7.4567   -6.9464   27.2858 C   0  0  0  0  0  0  0  0  0  0  0  0
    0.1921   -5.7592   27.1123 C   0  0  0  0  0  0  0  0  0  0  0  0
    3.5517   -7.7407   25.9711 C   0  0  0  0  0  0  0  0  0  0  0  0
  1  4  4  0
  1 22  4  0
  2 20  4  0
  2 27  4  0
  3 12  4  0
  3 23  4  0
  4 25  4  0
  4 28  1  0
  5  8  4  0
  5 17  4  0
  6  7  4  0
  6 16  4  0
  7 18  4  0
  8 27  4  0
  9 13  4  0
  9 23  4  0
 10 11  1  0
 11 14  2  0
 11 27  1  0
 12 19  1  0
 12 24  4  0
 13 24  4  0
 15 18  1  0
 16 25  4  0
 16 26  4  0
 17 20  4  0
 17 28  1  0
 18 21  4  0
 21 26  4  0
 22 26  4  0
M  END
$$$$

 Created by Python create_sdf_string function

 28 30  0  0  0  0  0  0  0  0999 V2000
    5.7174   -8.4529   26.7190 C   0  0  0  0  0  0  0  0  0  0  0  0
    0.3974   -7.0711   27.5149 C   0  0  0  0  0  0  0  0  0  0  0  0
    2.5338   -7.6891   16.0102 C   0  0  0  0  0  0  0  0  0  0  0  0
    4.8690   -7.4380   26.4151 C   0  0  0  0  0  0  0  0  0  0  0  0
    2.3021   -5.6726   26.0378 C   0  0  0  0  0  0  0  0  0  0  0  0
    7.0880   -4.6163   27.0010 C   0  0  0  0  0  0  0  0  0  0  0  0
    8.3117   -4.3698   27.4436 C   0  0  0  0  0  0  0  0  0  0  0  0
    1.1339   -5.0515   26.3541 C   0  0  0  0  0  0  0  0  0  0  0  0
    4.8080   -8.0362   16.7101 C   0  0  0  0  0  0  0  0  0  0  0  0
   -1.2173   -3.9294   26.9717 O   0  0  0  0  0  0  0  0  0  0  0  0
   -1.0025   -5.0942   27.4586 C   0  0  0  0  0  0  0  0  0  0  0  0
    2.2474   -8.9123   16.6273 C   0  0  0  0  0  0  0  0  0  0  0  0
    4.4957   -9.2636   17.3041 C   0  0  0  0  0  0  0  0  0  0  0  0
   -1.8070   -5.6086   28.1920 O   0  0  0  0  0  0  0  0  0  0  0  0
   10.4296   -5.1799   28.3140 C   0  0  0  0  0  0  0  0  0  0  0  0
    6.6017   -5.9004   26.9187 C   0  0  0  0  0  0  0  0  0  0  0  0
    2.4761   -6.9940   26.4111 N   0  0  0  0  0  0  0  0  0  0  0  0
    9.1353   -5.4053   27.8239 C   0  0  0  0  0  0  0  0  0  0  0  0
    0.9922   -9.3232   16.5995 O   0  0  0  0  0  0  0  0  0  0  0  0
    1.5232   -7.6869   27.1182 C   0  0  0  0  0  0  0  0  0  0  0  0
    8.6878   -6.6715   27.7262 N   0  0  0  0  0  0  0  0  0  0  0  0
    6.9911   -8.2423   27.1808 C   0  0  0  0  0  0  0  0  0  0  0  0
    3.8436   -7.2758   16.0578 C   0  0  0  0  0  0  0  0  0  0  0  0
    3.1882   -9.7190   17.2566 C   0  0  0  0  0  0  0  0  0  0  0  0
    5.3488   -6.1737   26.5092 C   0  0  0  0  0  0  0  0  0  0  0  0
    7.4567   -6.9464   27.2858 C   0  0  0  0  0  0  0  0  0  0  0  0
    0.1921   -5.7592   27.1123 C   0  0  0  0  0  0  0  0  0  0  0  0
    3.5517   -7.7407   25.9711 C   0  0  0  0  0  0  0  0  0  0  0  0
  1  4  4  0
  1 22  4  0
  2 20  4  0
  2 27  4  0
  3 12  4  0
  3 23  4  0
  4 25  4  0
  4 28  1  0
  5  8  4  0
  5 17  4  0
  6  7  4  0
  6 16  4  0
  7 18  4  0
  8 27  4  0
  9 13  4  0
  9 23  4  0
 10 11  1  0
 11 14  2  0
 11 27  1  0
 12 19  1  0
 12 24  4  0
 13 24  4  0
 15 18  1  0
 16 25  4  0
 16 26  4  0
 17 20  4  0
 17 28  1  0
 18 21  4  0
 21 26  4  0
 22 26  4  0
M  END
$$$$

 Created by Python create_sdf_string function

 28 30  0  0  0  0  0  0  0  0999 V2000
    5.7174   -8.4529   26.7190 C   0  0  0  0  0  0  0  0  0  0  0  0
    0.3974   -7.0711   27.5149 C   0  0  0  0  0  0  0  0  0  0  0  0
    2.5338   -7.6891   16.0102 C   0  0  0  0  0  0  0  0  0  0  0  0
    4.8690   -7.4380   26.4151 C   0  0  0  0  0  0  0  0  0  0  0  0
    2.3021   -5.6726   26.0378 C   0  0  0  0  0  0  0  0  0  0  0  0
    7.0880   -4.6163   27.0010 C   0  0  0  0  0  0  0  0  0  0  0  0
    8.3117   -4.3698   27.4436 C   0  0  0  0  0  0  0  0  0  0  0  0
    1.1339   -5.0515   26.3541 C   0  0  0  0  0  0  0  0  0  0  0  0
    4.8080   -8.0362   16.7101 C   0  0  0  0  0  0  0  0  0  0  0  0
   -1.2173   -3.9294   26.9717 O   0  0  0  0  0  0  0  0  0  0  0  0
   -1.0025   -5.0942   27.4586 C   0  0  0  0  0  0  0  0  0  0  0  0
    2.2474   -8.9123   16.6273 C   0  0  0  0  0  0  0  0  0  0  0  0
    4.4957   -9.2636   17.3041 C   0  0  0  0  0  0  0  0  0  0  0  0
   -1.8070   -5.6086   28.1920 O   0  0  0  0  0  0  0  0  0  0  0  0
   10.4296   -5.1799   28.3140 C   0  0  0  0  0  0  0  0  0  0  0  0
    6.6017   -5.9004   26.9187 C   0  0  0  0  0  0  0  0  0  0  0  0
    2.4761   -6.9940   26.4111 N   0  0  0  0  0  0  0  0  0  0  0  0
    9.1353   -5.4053   27.8239 C   0  0  0  0  0  0  0  0  0  0  0  0
    0.9922   -9.3232   16.5995 O   0  0  0  0  0  0  0  0  0  0  0  0
    1.5232   -7.6869   27.1182 C   0  0  0  0  0  0  0  0  0  0  0  0
    8.6878   -6.6715   27.7262 N   0  0  0  0  0  0  0  0  0  0  0  0
    6.9911   -8.2423   27.1808 C   0  0  0  0  0  0  0  0  0  0  0  0
    3.8436   -7.2758   16.0578 C   0  0  0  0  0  0  0  0  0  0  0  0
    3.1882   -9.7190   17.2566 C   0  0  0  0  0  0  0  0  0  0  0  0
    5.3488   -6.1737   26.5092 C   0  0  0  0  0  0  0  0  0  0  0  0
    7.4567   -6.9464   27.2858 C   0  0  0  0  0  0  0  0  0  0  0  0
    0.1921   -5.7592   27.1123 C   0  0  0  0  0  0  0  0  0  0  0  0
    3.5517   -7.7407   25.9711 C   0  0  0  0  0  0  0  0  0  0  0  0
  1  4  4  0
  1 22  4  0
  2 20  4  0
  2 27  4  0
  3 12  4  0
  3 23  4  0
  4 25  4  0
  4 28  1  0
  5  8  4  0
  5 17  4  0
  6  7  4  0
  6 16  4  0
  7 18  4  0
  8 27  4  0
  9 13  4  0
  9 23  4  0
 10 11  1  0
 11 14  2  0
 11 27  1  0
 12 19  1  0
 12 24  4  0
 13 24  4  0
 15 18  1  0
 16 25  4  0
 16 26  4  0
 17 20  4  0
 17 28  1  0
 18 21  4  0
 21 26  4  0
 22 26  4  0
M  END
$$$$

 Created by Python create_sdf_string function

 28 30  0  0  0  0  0  0  0  0999 V2000
    5.7174   -8.4529   26.7190 C   0  0  0  0  0  0  0  0  0  0  0  0
    0.3974   -7.0711   27.5149 C   0  0  0  0  0  0  0  0  0  0  0  0
    2.5338   -7.6891   16.0102 C   0  0  0  0  0  0  0  0  0  0  0  0
    4.8690   -7.4380   26.4151 C   0  0  0  0  0  0  0  0  0  0  0  0
    2.3021   -5.6726   26.0378 C   0  0  0  0  0  0  0  0  0  0  0  0
    7.0880   -4.6163   27.0010 C   0  0  0  0  0  0  0  0  0  0  0  0
    8.3117   -4.3698   27.4436 C   0  0  0  0  0  0  0  0  0  0  0  0
    1.1339   -5.0515   26.3541 C   0  0  0  0  0  0  0  0  0  0  0  0
    4.8080   -8.0362   16.7101 C   0  0  0  0  0  0  0  0  0  0  0  0
   -1.2173   -3.9294   26.9717 O   0  0  0  0  0  0  0  0  0  0  0  0
   -1.0025   -5.0942   27.4586 C   0  0  0  0  0  0  0  0  0  0  0  0
    2.2474   -8.9123   16.6273 C   0  0  0  0  0  0  0  0  0  0  0  0
    4.4957   -9.2636   17.3041 C   0  0  0  0  0  0  0  0  0  0  0  0
   -1.8070   -5.6086   28.1920 O   0  0  0  0  0  0  0  0  0  0  0  0
   10.4296   -5.1799   28.3140 C   0  0  0  0  0  0  0  0  0  0  0  0
    6.6017   -5.9004   26.9187 C   0  0  0  0  0  0  0  0  0  0  0  0
    2.4761   -6.9940   26.4111 N   0  0  0  0  0  0  0  0  0  0  0  0
    9.1353   -5.4053   27.8239 C   0  0  0  0  0  0  0  0  0  0  0  0
    0.9922   -9.3232   16.5995 O   0  0  0  0  0  0  0  0  0  0  0  0
    1.5232   -7.6869   27.1182 C   0  0  0  0  0  0  0  0  0  0  0  0
    8.6878   -6.6715   27.7262 N   0  0  0  0  0  0  0  0  0  0  0  0
    6.9911   -8.2423   27.1808 C   0  0  0  0  0  0  0  0  0  0  0  0
    3.8436   -7.2758   16.0578 C   0  0  0  0  0  0  0  0  0  0  0  0
    3.1882   -9.7190   17.2566 C   0  0  0  0  0  0  0  0  0  0  0  0
    5.3488   -6.1737   26.5092 C   0  0  0  0  0  0  0  0  0  0  0  0
    7.4567   -6.9464   27.2858 C   0  0  0  0  0  0  0  0  0  0  0  0
    0.1921   -5.7592   27.1123 C   0  0  0  0  0  0  0  0  0  0  0  0
    3.5517   -7.7407   25.9711 C   0  0  0  0  0  0  0  0  0  0  0  0
  1  4  4  0
  1 22  4  0
  2 20  4  0
  2 27  4  0
  3 12  4  0
  3 23  4  0
  4 25  4  0
  4 28  1  0
  5  8  4  0
  5 17  4  0
  6  7  4  0
  6 16  4  0
  7 18  4  0
  8 27  4  0
  9 13  4  0
  9 23  4  0
 10 11  1  0
 11 14  2  0
 11 27  1  0
 12 19  1  0
 12 24  4  0
 13 24  4  0
 15 18  1  0
 16 25  4  0
 16 26  4  0
 17 20  4  0
 17 28  1  0
 18 21  4  0
 21 26  4  0
 22 26  4  0
M  END
$$$$

 Created by Python create_sdf_string function

 28 30  0  0  0  0  0  0  0  0999 V2000
    5.7174   -8.4529   26.7190 C   0  0  0  0  0  0  0  0  0  0  0  0
    0.3974   -7.0711   27.5149 C   0  0  0  0  0  0  0  0  0  0  0  0
    2.5338   -7.6891   16.0102 C   0  0  0  0  0  0  0  0  0  0  0  0
    4.8690   -7.4380   26.4151 C   0  0  0  0  0  0  0  0  0  0  0  0
    2.3021   -5.6726   26.0378 C   0  0  0  0  0  0  0  0  0  0  0  0
    7.0880   -4.6163   27.0010 C   0  0  0  0  0  0  0  0  0  0  0  0
    8.3117   -4.3698   27.4436 C   0  0  0  0  0  0  0  0  0  0  0  0
    1.1339   -5.0515   26.3541 C   0  0  0  0  0  0  0  0  0  0  0  0
    4.8080   -8.0362   16.7101 C   0  0  0  0  0  0  0  0  0  0  0  0
   -1.2173   -3.9294   26.9717 O   0  0  0  0  0  0  0  0  0  0  0  0
   -1.0025   -5.0942   27.4586 C   0  0  0  0  0  0  0  0  0  0  0  0
    2.2474   -8.9123   16.6273 C   0  0  0  0  0  0  0  0  0  0  0  0
    4.4957   -9.2636   17.3041 C   0  0  0  0  0  0  0  0  0  0  0  0
   -1.8070   -5.6086   28.1920 O   0  0  0  0  0  0  0  0  0  0  0  0
   10.4296   -5.1799   28.3140 C   0  0  0  0  0  0  0  0  0  0  0  0
    6.6017   -5.9004   26.9187 C   0  0  0  0  0  0  0  0  0  0  0  0
    2.4761   -6.9940   26.4111 N   0  0  0  0  0  0  0  0  0  0  0  0
    9.1353   -5.4053   27.8239 C   0  0  0  0  0  0  0  0  0  0  0  0
    0.9922   -9.3232   16.5995 O   0  0  0  0  0  0  0  0  0  0  0  0
    1.5232   -7.6869   27.1182 C   0  0  0  0  0  0  0  0  0  0  0  0
    8.6878   -6.6715   27.7262 N   0  0  0  0  0  0  0  0  0  0  0  0
    6.9911   -8.2423   27.1808 C   0  0  0  0  0  0  0  0  0  0  0  0
    3.8436   -7.2758   16.0578 C   0  0  0  0  0  0  0  0  0  0  0  0
    3.1882   -9.7190   17.2566 C   0  0  0  0  0  0  0  0  0  0  0  0
    5.3488   -6.1737   26.5092 C   0  0  0  0  0  0  0  0  0  0  0  0
    7.4567   -6.9464   27.2858 C   0  0  0  0  0  0  0  0  0  0  0  0
    0.1921   -5.7592   27.1123 C   0  0  0  0  0  0  0  0  0  0  0  0
    3.5517   -7.7407   25.9711 C   0  0  0  0  0  0  0  0  0  0  0  0
  1  4  4  0
  1 22  4  0
  2 20  4  0
  2 27  4  0
  3 12  4  0
  3 23  4  0
  4 25  4  0
  4 28  1  0
  5  8  4  0
  5 17  4  0
  6  7  4  0
  6 16  4  0
  7 18  4  0
  8 27  4  0
  9 13  4  0
  9 23  4  0
 10 11  1  0
 11 14  2  0
 11 27  1  0
 12 19  1  0
 12 24  4  0
 13 24  4  0
 15 18  1  0
 16 25  4  0
 16 26  4  0
 17 20  4  0
 17 28  1  0
 18 21  4  0
 21 26  4  0
 22 26  4  0
M  END
$$$$

 Created by Python create_sdf_string function

 28 30  0  0  0  0  0  0  0  0999 V2000
    5.7174   -8.4529   26.7190 C   0  0  0  0  0  0  0  0  0  0  0  0
    0.3974   -7.0711   27.5149 C   0  0  0  0  0  0  0  0  0  0  0  0
    2.5338   -7.6891   16.0102 C   0  0  0  0  0  0  0  0  0  0  0  0
    4.8690   -7.4380   26.4151 C   0  0  0  0  0  0  0  0  0  0  0  0
    2.3021   -5.6726   26.0378 C   0  0  0  0  0  0  0  0  0  0  0  0
    7.0880   -4.6163   27.0010 C   0  0  0  0  0  0  0  0  0  0  0  0
    8.3117   -4.3698   27.4436 C   0  0  0  0  0  0  0  0  0  0  0  0
    1.1339   -5.0515   26.3541 C   0  0  0  0  0  0  0  0  0  0  0  0
    4.8080   -8.0362   16.7101 C   0  0  0  0  0  0  0  0  0  0  0  0
   -1.2173   -3.9294   26.9717 O   0  0  0  0  0  0  0  0  0  0  0  0
   -1.0025   -5.0942   27.4586 C   0  0  0  0  0  0  0  0  0  0  0  0
    2.2474   -8.9123   16.6273 C   0  0  0  0  0  0  0  0  0  0  0  0
    4.4957   -9.2636   17.3041 C   0  0  0  0  0  0  0  0  0  0  0  0
   -1.8070   -5.6086   28.1920 O   0  0  0  0  0  0  0  0  0  0  0  0
   10.4296   -5.1799   28.3140 C   0  0  0  0  0  0  0  0  0  0  0  0
    6.6017   -5.9004   26.9187 C   0  0  0  0  0  0  0  0  0  0  0  0
    2.4761   -6.9940   26.4111 N   0  0  0  0  0  0  0  0  0  0  0  0
    9.1353   -5.4053   27.8239 C   0  0  0  0  0  0  0  0  0  0  0  0
    0.9922   -9.3232   16.5995 O   0  0  0  0  0  0  0  0  0  0  0  0
    1.5232   -7.6869   27.1182 C   0  0  0  0  0  0  0  0  0  0  0  0
    8.6878   -6.6715   27.7262 N   0  0  0  0  0  0  0  0  0  0  0  0
    6.9911   -8.2423   27.1808 C   0  0  0  0  0  0  0  0  0  0  0  0
    3.8436   -7.2758   16.0578 C   0  0  0  0  0  0  0  0  0  0  0  0
    3.1882   -9.7190   17.2566 C   0  0  0  0  0  0  0  0  0  0  0  0
    5.3488   -6.1737   26.5092 C   0  0  0  0  0  0  0  0  0  0  0  0
    7.4567   -6.9464   27.2858 C   0  0  0  0  0  0  0  0  0  0  0  0
    0.1921   -5.7592   27.1123 C   0  0  0  0  0  0  0  0  0  0  0  0
    3.5517   -7.7407   25.9711 C   0  0  0  0  0  0  0  0  0  0  0  0
  1  4  4  0
  1 22  4  0
  2 20  4  0
  2 27  4  0
  3 12  4  0
  3 23  4  0
  4 25  4  0
  4 28  1  0
  5  8  4  0
  5 17  4  0
  6  7  4  0
  6 16  4  0
  7 18  4  0
  8 27  4  0
  9 13  4  0
  9 23  4  0
 10 11  1  0
 11 14  2  0
 11 27  1  0
 12 19  1  0
 12 24  4  0
 13 24  4  0
 15 18  1  0
 16 25  4  0
 16 26  4  0
 17 20  4  0
 17 28  1  0
 18 21  4  0
 21 26  4  0
 22 26  4  0
M  END
$$$$

 Created by Python create_sdf_string function

 28 30  0  0  0  0  0  0  0  0999 V2000
    5.7174   -8.4529   26.7190 C   0  0  0  0  0  0  0  0  0  0  0  0
    0.3974   -7.0711   27.5149 C   0  0  0  0  0  0  0  0  0  0  0  0
    2.5338   -7.6891   16.0102 C   0  0  0  0  0  0  0  0  0  0  0  0
    4.8690   -7.4380   26.4151 C   0  0  0  0  0  0  0  0  0  0  0  0
    2.3021   -5.6726   26.0378 C   0  0  0  0  0  0  0  0  0  0  0  0
    7.0880   -4.6163   27.0010 C   0  0  0  0  0  0  0  0  0  0  0  0
    8.3117   -4.3698   27.4436 C   0  0  0  0  0  0  0  0  0  0  0  0
    1.1339   -5.0515   26.3541 C   0  0  0  0  0  0  0  0  0  0  0  0
    4.8080   -8.0362   16.7101 C   0  0  0  0  0  0  0  0  0  0  0  0
   -1.2173   -3.9294   26.9717 O   0  0  0  0  0  0  0  0  0  0  0  0
   -1.0025   -5.0942   27.4586 C   0  0  0  0  0  0  0  0  0  0  0  0
    2.2474   -8.9123   16.6273 C   0  0  0  0  0  0  0  0  0  0  0  0
    4.4957   -9.2636   17.3041 C   0  0  0  0  0  0  0  0  0  0  0  0
   -1.8070   -5.6086   28.1920 O   0  0  0  0  0  0  0  0  0  0  0  0
   10.4296   -5.1799   28.3140 C   0  0  0  0  0  0  0  0  0  0  0  0
    6.6017   -5.9004   26.9187 C   0  0  0  0  0  0  0  0  0  0  0  0
    2.4761   -6.9940   26.4111 N   0  0  0  0  0  0  0  0  0  0  0  0
    9.1353   -5.4053   27.8239 C   0  0  0  0  0  0  0  0  0  0  0  0
    0.9922   -9.3232   16.5995 O   0  0  0  0  0  0  0  0  0  0  0  0
    1.5232   -7.6869   27.1182 C   0  0  0  0  0  0  0  0  0  0  0  0
    8.6878   -6.6715   27.7262 N   0  0  0  0  0  0  0  0  0  0  0  0
    6.9911   -8.2423   27.1808 C   0  0  0  0  0  0  0  0  0  0  0  0
    3.8436   -7.2758   16.0578 C   0  0  0  0  0  0  0  0  0  0  0  0
    3.1882   -9.7190   17.2566 C   0  0  0  0  0  0  0  0  0  0  0  0
    5.3488   -6.1737   26.5092 C   0  0  0  0  0  0  0  0  0  0  0  0
    7.4567   -6.9464   27.2858 C   0  0  0  0  0  0  0  0  0  0  0  0
    0.1921   -5.7592   27.1123 C   0  0  0  0  0  0  0  0  0  0  0  0
    3.5517   -7.7407   25.9711 C   0  0  0  0  0  0  0  0  0  0  0  0
  1  4  4  0
  1 22  4  0
  2 20  4  0
  2 27  4  0
  3 12  4  0
  3 23  4  0
  4 25  4  0
  4 28  1  0
  5  8  4  0
  5 17  4  0
  6  7  4  0
  6 16  4  0
  7 18  4  0
  8 27  4  0
  9 13  4  0
  9 23  4  0
 10 11  1  0
 11 14  2  0
 11 27  1  0
 12 19  1  0
 12 24  4  0
 13 24  4  0
 15 18  1  0
 16 25  4  0
 16 26  4  0
 17 20  4  0
 17 28  1  0
 18 21  4  0
 21 26  4  0
 22 26  4  0
M  END
$$$$

 Created by Python create_sdf_string function

 28 30  0  0  0  0  0  0  0  0999 V2000
    5.7174   -8.4529   26.7190 C   0  0  0  0  0  0  0  0  0  0  0  0
    0.3974   -7.0711   27.5149 C   0  0  0  0  0  0  0  0  0  0  0  0
    2.5338   -7.6891   16.0102 C   0  0  0  0  0  0  0  0  0  0  0  0
    4.8690   -7.4380   26.4151 C   0  0  0  0  0  0  0  0  0  0  0  0
    2.3021   -5.6726   26.0378 C   0  0  0  0  0  0  0  0  0  0  0  0
    7.0880   -4.6163   27.0010 C   0  0  0  0  0  0  0  0  0  0  0  0
    8.3117   -4.3698   27.4436 C   0  0  0  0  0  0  0  0  0  0  0  0
    1.1339   -5.0515   26.3541 C   0  0  0  0  0  0  0  0  0  0  0  0
    4.8080   -8.0362   16.7101 C   0  0  0  0  0  0  0  0  0  0  0  0
   -1.2173   -3.9294   26.9717 O   0  0  0  0  0  0  0  0  0  0  0  0
   -1.0025   -5.0942   27.4586 C   0  0  0  0  0  0  0  0  0  0  0  0
    2.2474   -8.9123   16.6273 C   0  0  0  0  0  0  0  0  0  0  0  0
    4.4957   -9.2636   17.3041 C   0  0  0  0  0  0  0  0  0  0  0  0
   -1.8070   -5.6086   28.1920 O   0  0  0  0  0  0  0  0  0  0  0  0
   10.4296   -5.1799   28.3140 C   0  0  0  0  0  0  0  0  0  0  0  0
    6.6017   -5.9004   26.9187 C   0  0  0  0  0  0  0  0  0  0  0  0
    2.4761   -6.9940   26.4111 N   0  0  0  0  0  0  0  0  0  0  0  0
    9.1353   -5.4053   27.8239 C   0  0  0  0  0  0  0  0  0  0  0  0
    0.9922   -9.3232   16.5995 O   0  0  0  0  0  0  0  0  0  0  0  0
    1.5232   -7.6869   27.1182 C   0  0  0  0  0  0  0  0  0  0  0  0
    8.6878   -6.6715   27.7262 N   0  0  0  0  0  0  0  0  0  0  0  0
    6.9911   -8.2423   27.1808 C   0  0  0  0  0  0  0  0  0  0  0  0
    3.8436   -7.2758   16.0578 C   0  0  0  0  0  0  0  0  0  0  0  0
    3.1882   -9.7190   17.2566 C   0  0  0  0  0  0  0  0  0  0  0  0
    5.3488   -6.1737   26.5092 C   0  0  0  0  0  0  0  0  0  0  0  0
    7.4567   -6.9464   27.2858 C   0  0  0  0  0  0  0  0  0  0  0  0
    0.1921   -5.7592   27.1123 C   0  0  0  0  0  0  0  0  0  0  0  0
    3.5517   -7.7407   25.9711 C   0  0  0  0  0  0  0  0  0  0  0  0
  1  4  4  0
  1 22  4  0
  2 20  4  0
  2 27  4  0
  3 12  4  0
  3 23  4  0
  4 25  4  0
  4 28  1  0
  5  8  4  0
  5 17  4  0
  6  7  4  0
  6 16  4  0
  7 18  4  0
  8 27  4  0
  9 13  4  0
  9 23  4  0
 10 11  1  0
 11 14  2  0
 11 27  1  0
 12 19  1  0
 12 24  4  0
 13 24  4  0
 15 18  1  0
 16 25  4  0
 16 26  4  0
 17 20  4  0
 17 28  1  0
 18 21  4  0
 21 26  4  0
 22 26  4  0
M  END
$$$$

 Created by Python create_sdf_string function

 28 30  0  0  0  0  0  0  0  0999 V2000
    5.7174   -8.4529   26.7190 C   0  0  0  0  0  0  0  0  0  0  0  0
    0.3974   -7.0711   27.5149 C   0  0  0  0  0  0  0  0  0  0  0  0
    2.5338   -7.6891   16.0102 C   0  0  0  0  0  0  0  0  0  0  0  0
    4.8690   -7.4380   26.4151 C   0  0  0  0  0  0  0  0  0  0  0  0
    2.3021   -5.6726   26.0378 C   0  0  0  0  0  0  0  0  0  0  0  0
    7.0880   -4.6163   27.0010 C   0  0  0  0  0  0  0  0  0  0  0  0
    8.3117   -4.3698   27.4436 C   0  0  0  0  0  0  0  0  0  0  0  0
    1.1339   -5.0515   26.3541 C   0  0  0  0  0  0  0  0  0  0  0  0
    4.8080   -8.0362   16.7101 C   0  0  0  0  0  0  0  0  0  0  0  0
   -1.2173   -3.9294   26.9717 O   0  0  0  0  0  0  0  0  0  0  0  0
   -1.0025   -5.0942   27.4586 C   0  0  0  0  0  0  0  0  0  0  0  0
    2.2474   -8.9123   16.6273 C   0  0  0  0  0  0  0  0  0  0  0  0
    4.4957   -9.2636   17.3041 C   0  0  0  0  0  0  0  0  0  0  0  0
   -1.8070   -5.6086   28.1920 O   0  0  0  0  0  0  0  0  0  0  0  0
   10.4296   -5.1799   28.3140 C   0  0  0  0  0  0  0  0  0  0  0  0
    6.6017   -5.9004   26.9187 C   0  0  0  0  0  0  0  0  0  0  0  0
    2.4761   -6.9940   26.4111 N   0  0  0  0  0  0  0  0  0  0  0  0
    9.1353   -5.4053   27.8239 C   0  0  0  0  0  0  0  0  0  0  0  0
    0.9922   -9.3232   16.5995 O   0  0  0  0  0  0  0  0  0  0  0  0
    1.5232   -7.6869   27.1182 C   0  0  0  0  0  0  0  0  0  0  0  0
    8.6878   -6.6715   27.7262 N   0  0  0  0  0  0  0  0  0  0  0  0
    6.9911   -8.2423   27.1808 C   0  0  0  0  0  0  0  0  0  0  0  0
    3.8436   -7.2758   16.0578 C   0  0  0  0  0  0  0  0  0  0  0  0
    3.1882   -9.7190   17.2566 C   0  0  0  0  0  0  0  0  0  0  0  0
    5.3488   -6.1737   26.5092 C   0  0  0  0  0  0  0  0  0  0  0  0
    7.4567   -6.9464   27.2858 C   0  0  0  0  0  0  0  0  0  0  0  0
    0.1921   -5.7592   27.1123 C   0  0  0  0  0  0  0  0  0  0  0  0
    3.5517   -7.7407   25.9711 C   0  0  0  0  0  0  0  0  0  0  0  0
  1  4  4  0
  1 22  4  0
  2 20  4  0
  2 27  4  0
  3 12  4  0
  3 23  4  0
  4 25  4  0
  4 28  1  0
  5  8  4  0
  5 17  4  0
  6  7  4  0
  6 16  4  0
  7 18  4  0
  8 27  4  0
  9 13  4  0
  9 23  4  0
 10 11  1  0
 11 14  2  0
 11 27  1  0
 12 19  1  0
 12 24  4  0
 13 24  4  0
 15 18  1  0
 16 25  4  0
 16 26  4  0
 17 20  4  0
 17 28  1  0
 18 21  4  0
 21 26  4  0
 22 26  4  0
M  END
$$$$

 Created by Python create_sdf_string function

 28 30  0  0  0  0  0  0  0  0999 V2000
    5.7174   -8.4529   26.7190 C   0  0  0  0  0  0  0  0  0  0  0  0
    0.3974   -7.0711   27.5149 C   0  0  0  0  0  0  0  0  0  0  0  0
    2.5338   -7.6891   16.0102 C   0  0  0  0  0  0  0  0  0  0  0  0
    4.8690   -7.4380   26.4151 C   0  0  0  0  0  0  0  0  0  0  0  0
    2.3021   -5.6726   26.0378 C   0  0  0  0  0  0  0  0  0  0  0  0
    7.0880   -4.6163   27.0010 C   0  0  0  0  0  0  0  0  0  0  0  0
    8.3117   -4.3698   27.4436 C   0  0  0  0  0  0  0  0  0  0  0  0
    1.1339   -5.0515   26.3541 C   0  0  0  0  0  0  0  0  0  0  0  0
    4.8080   -8.0362   16.7101 C   0  0  0  0  0  0  0  0  0  0  0  0
   -1.2173   -3.9294   26.9717 O   0  0  0  0  0  0  0  0  0  0  0  0
   -1.0025   -5.0942   27.4586 C   0  0  0  0  0  0  0  0  0  0  0  0
    2.2474   -8.9123   16.6273 C   0  0  0  0  0  0  0  0  0  0  0  0
    4.4957   -9.2636   17.3041 C   0  0  0  0  0  0  0  0  0  0  0  0
   -1.8070   -5.6086   28.1920 O   0  0  0  0  0  0  0  0  0  0  0  0
   10.4296   -5.1799   28.3140 C   0  0  0  0  0  0  0  0  0  0  0  0
    6.6017   -5.9004   26.9187 C   0  0  0  0  0  0  0  0  0  0  0  0
    2.4761   -6.9940   26.4111 N   0  0  0  0  0  0  0  0  0  0  0  0
    9.1353   -5.4053   27.8239 C   0  0  0  0  0  0  0  0  0  0  0  0
    0.9922   -9.3232   16.5995 O   0  0  0  0  0  0  0  0  0  0  0  0
    1.5232   -7.6869   27.1182 C   0  0  0  0  0  0  0  0  0  0  0  0
    8.6878   -6.6715   27.7262 N   0  0  0  0  0  0  0  0  0  0  0  0
    6.9911   -8.2423   27.1808 C   0  0  0  0  0  0  0  0  0  0  0  0
    3.8436   -7.2758   16.0578 C   0  0  0  0  0  0  0  0  0  0  0  0
    3.1882   -9.7190   17.2566 C   0  0  0  0  0  0  0  0  0  0  0  0
    5.3488   -6.1737   26.5092 C   0  0  0  0  0  0  0  0  0  0  0  0
    7.4567   -6.9464   27.2858 C   0  0  0  0  0  0  0  0  0  0  0  0
    0.1921   -5.7592   27.1123 C   0  0  0  0  0  0  0  0  0  0  0  0
    3.5517   -7.7407   25.9711 C   0  0  0  0  0  0  0  0  0  0  0  0
  1  4  4  0
  1 22  4  0
  2 20  4  0
  2 27  4  0
  3 12  4  0
  3 23  4  0
  4 25  4  0
  4 28  1  0
  5  8  4  0
  5 17  4  0
  6  7  4  0
  6 16  4  0
  7 18  4  0
  8 27  4  0
  9 13  4  0
  9 23  4  0
 10 11  1  0
 11 14  2  0
 11 27  1  0
 12 19  1  0
 12 24  4  0
 13 24  4  0
 15 18  1  0
 16 25  4  0
 16 26  4  0
 17 20  4  0
 17 28  1  0
 18 21  4  0
 21 26  4  0
 22 26  4  0
M  END
$$$$

 Created by Python create_sdf_string function

 28 30  0  0  0  0  0  0  0  0999 V2000
    5.7174   -8.4529   26.7190 C   0  0  0  0  0  0  0  0  0  0  0  0
    0.3974   -7.0711   27.5149 C   0  0  0  0  0  0  0  0  0  0  0  0
    2.5338   -7.6891   16.0102 C   0  0  0  0  0  0  0  0  0  0  0  0
    4.8690   -7.4380   26.4151 C   0  0  0  0  0  0  0  0  0  0  0  0
    2.3021   -5.6726   26.0378 C   0  0  0  0  0  0  0  0  0  0  0  0
    7.0880   -4.6163   27.0010 C   0  0  0  0  0  0  0  0  0  0  0  0
    8.3117   -4.3698   27.4436 C   0  0  0  0  0  0  0  0  0  0  0  0
    1.1339   -5.0515   26.3541 C   0  0  0  0  0  0  0  0  0  0  0  0
    4.8080   -8.0362   16.7101 C   0  0  0  0  0  0  0  0  0  0  0  0
   -1.2173   -3.9294   26.9717 O   0  0  0  0  0  0  0  0  0  0  0  0
   -1.0025   -5.0942   27.4586 C   0  0  0  0  0  0  0  0  0  0  0  0
    2.2474   -8.9123   16.6273 C   0  0  0  0  0  0  0  0  0  0  0  0
    4.4957   -9.2636   17.3041 C   0  0  0  0  0  0  0  0  0  0  0  0
   -1.8070   -5.6086   28.1920 O   0  0  0  0  0  0  0  0  0  0  0  0
   10.4296   -5.1799   28.3140 C   0  0  0  0  0  0  0  0  0  0  0  0
    6.6017   -5.9004   26.9187 C   0  0  0  0  0  0  0  0  0  0  0  0
    2.4761   -6.9940   26.4111 N   0  0  0  0  0  0  0  0  0  0  0  0
    9.1353   -5.4053   27.8239 C   0  0  0  0  0  0  0  0  0  0  0  0
    0.9922   -9.3232   16.5995 O   0  0  0  0  0  0  0  0  0  0  0  0
    1.5232   -7.6869   27.1182 C   0  0  0  0  0  0  0  0  0  0  0  0
    8.6878   -6.6715   27.7262 N   0  0  0  0  0  0  0  0  0  0  0  0
    6.9911   -8.2423   27.1808 C   0  0  0  0  0  0  0  0  0  0  0  0
    3.8436   -7.2758   16.0578 C   0  0  0  0  0  0  0  0  0  0  0  0
    3.1882   -9.7190   17.2566 C   0  0  0  0  0  0  0  0  0  0  0  0
    5.3488   -6.1737   26.5092 C   0  0  0  0  0  0  0  0  0  0  0  0
    7.4567   -6.9464   27.2858 C   0  0  0  0  0  0  0  0  0  0  0  0
    0.1921   -5.7592   27.1123 C   0  0  0  0  0  0  0  0  0  0  0  0
    3.5517   -7.7407   25.9711 C   0  0  0  0  0  0  0  0  0  0  0  0
  1  4  4  0
  1 22  4  0
  2 20  4  0
  2 27  4  0
  3 12  4  0
  3 23  4  0
  4 25  4  0
  4 28  1  0
  5  8  4  0
  5 17  4  0
  6  7  4  0
  6 16  4  0
  7 18  4  0
  8 27  4  0
  9 13  4  0
  9 23  4  0
 10 11  1  0
 11 14  2  0
 11 27  1  0
 12 19  1  0
 12 24  4  0
 13 24  4  0
 15 18  1  0
 16 25  4  0
 16 26  4  0
 17 20  4  0
 17 28  1  0
 18 21  4  0
 21 26  4  0
 22 26  4  0
M  END
$$$$

 Created by Python create_sdf_string function

 28 30  0  0  0  0  0  0  0  0999 V2000
    5.7174   -8.4529   26.7190 C   0  0  0  0  0  0  0  0  0  0  0  0
    0.3974   -7.0711   27.5149 C   0  0  0  0  0  0  0  0  0  0  0  0
    2.5338   -7.6891   16.0102 C   0  0  0  0  0  0  0  0  0  0  0  0
    4.8690   -7.4380   26.4151 C   0  0  0  0  0  0  0  0  0  0  0  0
    2.3021   -5.6726   26.0378 C   0  0  0  0  0  0  0  0  0  0  0  0
    7.0880   -4.6163   27.0010 C   0  0  0  0  0  0  0  0  0  0  0  0
    8.3117   -4.3698   27.4436 C   0  0  0  0  0  0  0  0  0  0  0  0
    1.1339   -5.0515   26.3541 C   0  0  0  0  0  0  0  0  0  0  0  0
    4.8080   -8.0362   16.7101 C   0  0  0  0  0  0  0  0  0  0  0  0
   -1.2173   -3.9294   26.9717 O   0  0  0  0  0  0  0  0  0  0  0  0
   -1.0025   -5.0942   27.4586 C   0  0  0  0  0  0  0  0  0  0  0  0
    2.2474   -8.9123   16.6273 C   0  0  0  0  0  0  0  0  0  0  0  0
    4.4957   -9.2636   17.3041 C   0  0  0  0  0  0  0  0  0  0  0  0
   -1.8070   -5.6086   28.1920 O   0  0  0  0  0  0  0  0  0  0  0  0
   10.4296   -5.1799   28.3140 C   0  0  0  0  0  0  0  0  0  0  0  0
    6.6017   -5.9004   26.9187 C   0  0  0  0  0  0  0  0  0  0  0  0
    2.4761   -6.9940   26.4111 N   0  0  0  0  0  0  0  0  0  0  0  0
    9.1353   -5.4053   27.8239 C   0  0  0  0  0  0  0  0  0  0  0  0
    0.9922   -9.3232   16.5995 O   0  0  0  0  0  0  0  0  0  0  0  0
    1.5232   -7.6869   27.1182 C   0  0  0  0  0  0  0  0  0  0  0  0
    8.6878   -6.6715   27.7262 N   0  0  0  0  0  0  0  0  0  0  0  0
    6.9911   -8.2423   27.1808 C   0  0  0  0  0  0  0  0  0  0  0  0
    3.8436   -7.2758   16.0578 C   0  0  0  0  0  0  0  0  0  0  0  0
    3.1882   -9.7190   17.2566 C   0  0  0  0  0  0  0  0  0  0  0  0
    5.3488   -6.1737   26.5092 C   0  0  0  0  0  0  0  0  0  0  0  0
    7.4567   -6.9464   27.2858 C   0  0  0  0  0  0  0  0  0  0  0  0
    0.1921   -5.7592   27.1123 C   0  0  0  0  0  0  0  0  0  0  0  0
    3.5517   -7.7407   25.9711 C   0  0  0  0  0  0  0  0  0  0  0  0
  1  4  4  0
  1 22  4  0
  2 20  4  0
  2 27  4  0
  3 12  4  0
  3 23  4  0
  4 25  4  0
  4 28  1  0
  5  8  4  0
  5 17  4  0
  6  7  4  0
  6 16  4  0
  7 18  4  0
  8 27  4  0
  9 13  4  0
  9 23  4  0
 10 11  1  0
 11 14  2  0
 11 27  1  0
 12 19  1  0
 12 24  4  0
 13 24  4  0
 15 18  1  0
 16 25  4  0
 16 26  4  0
 17 20  4  0
 17 28  1  0
 18 21  4  0
 21 26  4  0
 22 26  4  0
M  END
$$$$

 Created by Python create_sdf_string function

 28 30  0  0  0  0  0  0  0  0999 V2000
    5.7174   -8.4529   26.7190 C   0  0  0  0  0  0  0  0  0  0  0  0
    0.3974   -7.0711   27.5149 C   0  0  0  0  0  0  0  0  0  0  0  0
    2.5338   -7.6891   16.0102 C   0  0  0  0  0  0  0  0  0  0  0  0
    4.8690   -7.4380   26.4151 C   0  0  0  0  0  0  0  0  0  0  0  0
    2.3021   -5.6726   26.0378 C   0  0  0  0  0  0  0  0  0  0  0  0
    7.0880   -4.6163   27.0010 C   0  0  0  0  0  0  0  0  0  0  0  0
    8.3117   -4.3698   27.4436 C   0  0  0  0  0  0  0  0  0  0  0  0
    1.1339   -5.0515   26.3541 C   0  0  0  0  0  0  0  0  0  0  0  0
    4.8080   -8.0362   16.7101 C   0  0  0  0  0  0  0  0  0  0  0  0
   -1.2173   -3.9294   26.9717 O   0  0  0  0  0  0  0  0  0  0  0  0
   -1.0025   -5.0942   27.4586 C   0  0  0  0  0  0  0  0  0  0  0  0
    2.2474   -8.9123   16.6273 C   0  0  0  0  0  0  0  0  0  0  0  0
    4.4957   -9.2636   17.3041 C   0  0  0  0  0  0  0  0  0  0  0  0
   -1.8070   -5.6086   28.1920 O   0  0  0  0  0  0  0  0  0  0  0  0
   10.4296   -5.1799   28.3140 C   0  0  0  0  0  0  0  0  0  0  0  0
    6.6017   -5.9004   26.9187 C   0  0  0  0  0  0  0  0  0  0  0  0
    2.4761   -6.9940   26.4111 N   0  0  0  0  0  0  0  0  0  0  0  0
    9.1353   -5.4053   27.8239 C   0  0  0  0  0  0  0  0  0  0  0  0
    0.9922   -9.3232   16.5995 O   0  0  0  0  0  0  0  0  0  0  0  0
    1.5232   -7.6869   27.1182 C   0  0  0  0  0  0  0  0  0  0  0  0
    8.6878   -6.6715   27.7262 N   0  0  0  0  0  0  0  0  0  0  0  0
    6.9911   -8.2423   27.1808 C   0  0  0  0  0  0  0  0  0  0  0  0
    3.8436   -7.2758   16.0578 C   0  0  0  0  0  0  0  0  0  0  0  0
    3.1882   -9.7190   17.2566 C   0  0  0  0  0  0  0  0  0  0  0  0
    5.3488   -6.1737   26.5092 C   0  0  0  0  0  0  0  0  0  0  0  0
    7.4567   -6.9464   27.2858 C   0  0  0  0  0  0  0  0  0  0  0  0
    0.1921   -5.7592   27.1123 C   0  0  0  0  0  0  0  0  0  0  0  0
    3.5517   -7.7407   25.9711 C   0  0  0  0  0  0  0  0  0  0  0  0
  1  4  4  0
  1 22  4  0
  2 20  4  0
  2 27  4  0
  3 12  4  0
  3 23  4  0
  4 25  4  0
  4 28  1  0
  5  8  4  0
  5 17  4  0
  6  7  4  0
  6 16  4  0
  7 18  4  0
  8 27  4  0
  9 13  4  0
  9 23  4  0
 10 11  1  0
 11 14  2  0
 11 27  1  0
 12 19  1  0
 12 24  4  0
 13 24  4  0
 15 18  1  0
 16 25  4  0
 16 26  4  0
 17 20  4  0
 17 28  1  0
 18 21  4  0
 21 26  4  0
 22 26  4  0
M  END
$$$$

 Created by Python create_sdf_string function

 28 30  0  0  0  0  0  0  0  0999 V2000
    5.7174   -8.4529   26.7190 C   0  0  0  0  0  0  0  0  0  0  0  0
    0.3974   -7.0711   27.5149 C   0  0  0  0  0  0  0  0  0  0  0  0
    2.5338   -7.6891   16.0102 C   0  0  0  0  0  0  0  0  0  0  0  0
    4.8690   -7.4380   26.4151 C   0  0  0  0  0  0  0  0  0  0  0  0
    2.3021   -5.6726   26.0378 C   0  0  0  0  0  0  0  0  0  0  0  0
    7.0880   -4.6163   27.0010 C   0  0  0  0  0  0  0  0  0  0  0  0
    8.3117   -4.3698   27.4436 C   0  0  0  0  0  0  0  0  0  0  0  0
    1.1339   -5.0515   26.3541 C   0  0  0  0  0  0  0  0  0  0  0  0
    4.8080   -8.0362   16.7101 C   0  0  0  0  0  0  0  0  0  0  0  0
   -1.2173   -3.9294   26.9717 O   0  0  0  0  0  0  0  0  0  0  0  0
   -1.0025   -5.0942   27.4586 C   0  0  0  0  0  0  0  0  0  0  0  0
    2.2474   -8.9123   16.6273 C   0  0  0  0  0  0  0  0  0  0  0  0
    4.4957   -9.2636   17.3041 C   0  0  0  0  0  0  0  0  0  0  0  0
   -1.8070   -5.6086   28.1920 O   0  0  0  0  0  0  0  0  0  0  0  0
   10.4296   -5.1799   28.3140 C   0  0  0  0  0  0  0  0  0  0  0  0
    6.6017   -5.9004   26.9187 C   0  0  0  0  0  0  0  0  0  0  0  0
    2.4761   -6.9940   26.4111 N   0  0  0  0  0  0  0  0  0  0  0  0
    9.1353   -5.4053   27.8239 C   0  0  0  0  0  0  0  0  0  0  0  0
    0.9922   -9.3232   16.5995 O   0  0  0  0  0  0  0  0  0  0  0  0
    1.5232   -7.6869   27.1182 C   0  0  0  0  0  0  0  0  0  0  0  0
    8.6878   -6.6715   27.7262 N   0  0  0  0  0  0  0  0  0  0  0  0
    6.9911   -8.2423   27.1808 C   0  0  0  0  0  0  0  0  0  0  0  0
    3.8436   -7.2758   16.0578 C   0  0  0  0  0  0  0  0  0  0  0  0
    3.1882   -9.7190   17.2566 C   0  0  0  0  0  0  0  0  0  0  0  0
    5.3488   -6.1737   26.5092 C   0  0  0  0  0  0  0  0  0  0  0  0
    7.4567   -6.9464   27.2858 C   0  0  0  0  0  0  0  0  0  0  0  0
    0.1921   -5.7592   27.1123 C   0  0  0  0  0  0  0  0  0  0  0  0
    3.5517   -7.7407   25.9711 C   0  0  0  0  0  0  0  0  0  0  0  0
  1  4  4  0
  1 22  4  0
  2 20  4  0
  2 27  4  0
  3 12  4  0
  3 23  4  0
  4 25  4  0
  4 28  1  0
  5  8  4  0
  5 17  4  0
  6  7  4  0
  6 16  4  0
  7 18  4  0
  8 27  4  0
  9 13  4  0
  9 23  4  0
 10 11  1  0
 11 14  2  0
 11 27  1  0
 12 19  1  0
 12 24  4  0
 13 24  4  0
 15 18  1  0
 16 25  4  0
 16 26  4  0
 17 20  4  0
 17 28  1  0
 18 21  4  0
 21 26  4  0
 22 26  4  0
M  END
$$$$

 Created by Python create_sdf_string function

 28 30  0  0  0  0  0  0  0  0999 V2000
    5.7174   -8.4529   26.7190 C   0  0  0  0  0  0  0  0  0  0  0  0
    0.3974   -7.0711   27.5149 C   0  0  0  0  0  0  0  0  0  0  0  0
    2.5338   -7.6891   16.0102 C   0  0  0  0  0  0  0  0  0  0  0  0
    4.8690   -7.4380   26.4151 C   0  0  0  0  0  0  0  0  0  0  0  0
    2.3021   -5.6726   26.0378 C   0  0  0  0  0  0  0  0  0  0  0  0
    7.0880   -4.6163   27.0010 C   0  0  0  0  0  0  0  0  0  0  0  0
    8.3117   -4.3698   27.4436 C   0  0  0  0  0  0  0  0  0  0  0  0
    1.1339   -5.0515   26.3541 C   0  0  0  0  0  0  0  0  0  0  0  0
    4.8080   -8.0362   16.7101 C   0  0  0  0  0  0  0  0  0  0  0  0
   -1.2173   -3.9294   26.9717 O   0  0  0  0  0  0  0  0  0  0  0  0
   -1.0025   -5.0942   27.4586 C   0  0  0  0  0  0  0  0  0  0  0  0
    2.2474   -8.9123   16.6273 C   0  0  0  0  0  0  0  0  0  0  0  0
    4.4957   -9.2636   17.3041 C   0  0  0  0  0  0  0  0  0  0  0  0
   -1.8070   -5.6086   28.1920 O   0  0  0  0  0  0  0  0  0  0  0  0
   10.4296   -5.1799   28.3140 C   0  0  0  0  0  0  0  0  0  0  0  0
    6.6017   -5.9004   26.9187 C   0  0  0  0  0  0  0  0  0  0  0  0
    2.4761   -6.9940   26.4111 N   0  0  0  0  0  0  0  0  0  0  0  0
    9.1353   -5.4053   27.8239 C   0  0  0  0  0  0  0  0  0  0  0  0
    0.9922   -9.3232   16.5995 O   0  0  0  0  0  0  0  0  0  0  0  0
    1.5232   -7.6869   27.1182 C   0  0  0  0  0  0  0  0  0  0  0  0
    8.6878   -6.6715   27.7262 N   0  0  0  0  0  0  0  0  0  0  0  0
    6.9911   -8.2423   27.1808 C   0  0  0  0  0  0  0  0  0  0  0  0
    3.8436   -7.2758   16.0578 C   0  0  0  0  0  0  0  0  0  0  0  0
    3.1882   -9.7190   17.2566 C   0  0  0  0  0  0  0  0  0  0  0  0
    5.3488   -6.1737   26.5092 C   0  0  0  0  0  0  0  0  0  0  0  0
    7.4567   -6.9464   27.2858 C   0  0  0  0  0  0  0  0  0  0  0  0
    0.1921   -5.7592   27.1123 C   0  0  0  0  0  0  0  0  0  0  0  0
    3.5517   -7.7407   25.9711 C   0  0  0  0  0  0  0  0  0  0  0  0
  1  4  4  0
  1 22  4  0
  2 20  4  0
  2 27  4  0
  3 12  4  0
  3 23  4  0
  4 25  4  0
  4 28  1  0
  5  8  4  0
  5 17  4  0
  6  7  4  0
  6 16  4  0
  7 18  4  0
  8 27  4  0
  9 13  4  0
  9 23  4  0
 10 11  1  0
 11 14  2  0
 11 27  1  0
 12 19  1  0
 12 24  4  0
 13 24  4  0
 15 18  1  0
 16 25  4  0
 16 26  4  0
 17 20  4  0
 17 28  1  0
 18 21  4  0
 21 26  4  0
 22 26  4  0
M  END
$$$$

 Created by Python create_sdf_string function

 28 30  0  0  0  0  0  0  0  0999 V2000
    5.7174   -8.4529   26.7190 C   0  0  0  0  0  0  0  0  0  0  0  0
    0.3974   -7.0711   27.5149 C   0  0  0  0  0  0  0  0  0  0  0  0
    2.5338   -7.6891   16.0102 C   0  0  0  0  0  0  0  0  0  0  0  0
    4.8690   -7.4380   26.4151 C   0  0  0  0  0  0  0  0  0  0  0  0
    2.3021   -5.6726   26.0378 C   0  0  0  0  0  0  0  0  0  0  0  0
    7.0880   -4.6163   27.0010 C   0  0  0  0  0  0  0  0  0  0  0  0
    8.3117   -4.3698   27.4436 C   0  0  0  0  0  0  0  0  0  0  0  0
    1.1339   -5.0515   26.3541 C   0  0  0  0  0  0  0  0  0  0  0  0
    4.8080   -8.0362   16.7101 C   0  0  0  0  0  0  0  0  0  0  0  0
   -1.2173   -3.9294   26.9717 O   0  0  0  0  0  0  0  0  0  0  0  0
   -1.0025   -5.0942   27.4586 C   0  0  0  0  0  0  0  0  0  0  0  0
    2.2474   -8.9123   16.6273 C   0  0  0  0  0  0  0  0  0  0  0  0
    4.4957   -9.2636   17.3041 C   0  0  0  0  0  0  0  0  0  0  0  0
   -1.8070   -5.6086   28.1920 O   0  0  0  0  0  0  0  0  0  0  0  0
   10.4296   -5.1799   28.3140 C   0  0  0  0  0  0  0  0  0  0  0  0
    6.6017   -5.9004   26.9187 C   0  0  0  0  0  0  0  0  0  0  0  0
    2.4761   -6.9940   26.4111 N   0  0  0  0  0  0  0  0  0  0  0  0
    9.1353   -5.4053   27.8239 C   0  0  0  0  0  0  0  0  0  0  0  0
    0.9922   -9.3232   16.5995 O   0  0  0  0  0  0  0  0  0  0  0  0
    1.5232   -7.6869   27.1182 C   0  0  0  0  0  0  0  0  0  0  0  0
    8.6878   -6.6715   27.7262 N   0  0  0  0  0  0  0  0  0  0  0  0
    6.9911   -8.2423   27.1808 C   0  0  0  0  0  0  0  0  0  0  0  0
    3.8436   -7.2758   16.0578 C   0  0  0  0  0  0  0  0  0  0  0  0
    3.1882   -9.7190   17.2566 C   0  0  0  0  0  0  0  0  0  0  0  0
    5.3488   -6.1737   26.5092 C   0  0  0  0  0  0  0  0  0  0  0  0
    7.4567   -6.9464   27.2858 C   0  0  0  0  0  0  0  0  0  0  0  0
    0.1921   -5.7592   27.1123 C   0  0  0  0  0  0  0  0  0  0  0  0
    3.5517   -7.7407   25.9711 C   0  0  0  0  0  0  0  0  0  0  0  0
  1  4  4  0
  1 22  4  0
  2 20  4  0
  2 27  4  0
  3 12  4  0
  3 23  4  0
  4 25  4  0
  4 28  1  0
  5  8  4  0
  5 17  4  0
  6  7  4  0
  6 16  4  0
  7 18  4  0
  8 27  4  0
  9 13  4  0
  9 23  4  0
 10 11  1  0
 11 14  2  0
 11 27  1  0
 12 19  1  0
 12 24  4  0
 13 24  4  0
 15 18  1  0
 16 25  4  0
 16 26  4  0
 17 20  4  0
 17 28  1  0
 18 21  4  0
 21 26  4  0
 22 26  4  0
M  END
$$$$

 Created by Python create_sdf_string function

 28 30  0  0  0  0  0  0  0  0999 V2000
    5.7174   -8.4529   26.7190 C   0  0  0  0  0  0  0  0  0  0  0  0
    0.3974   -7.0711   27.5149 C   0  0  0  0  0  0  0  0  0  0  0  0
    2.5338   -7.6891   16.0102 C   0  0  0  0  0  0  0  0  0  0  0  0
    4.8690   -7.4380   26.4151 C   0  0  0  0  0  0  0  0  0  0  0  0
    2.3021   -5.6726   26.0378 C   0  0  0  0  0  0  0  0  0  0  0  0
    7.0880   -4.6163   27.0010 C   0  0  0  0  0  0  0  0  0  0  0  0
    8.3117   -4.3698   27.4436 C   0  0  0  0  0  0  0  0  0  0  0  0
    1.1339   -5.0515   26.3541 C   0  0  0  0  0  0  0  0  0  0  0  0
    4.8080   -8.0362   16.7101 C   0  0  0  0  0  0  0  0  0  0  0  0
   -1.2173   -3.9294   26.9717 O   0  0  0  0  0  0  0  0  0  0  0  0
   -1.0025   -5.0942   27.4586 C   0  0  0  0  0  0  0  0  0  0  0  0
    2.2474   -8.9123   16.6273 C   0  0  0  0  0  0  0  0  0  0  0  0
    4.4957   -9.2636   17.3041 C   0  0  0  0  0  0  0  0  0  0  0  0
   -1.8070   -5.6086   28.1920 O   0  0  0  0  0  0  0  0  0  0  0  0
   10.4296   -5.1799   28.3140 C   0  0  0  0  0  0  0  0  0  0  0  0
    6.6017   -5.9004   26.9187 C   0  0  0  0  0  0  0  0  0  0  0  0
    2.4761   -6.9940   26.4111 N   0  0  0  0  0  0  0  0  0  0  0  0
    9.1353   -5.4053   27.8239 C   0  0  0  0  0  0  0  0  0  0  0  0
    0.9922   -9.3232   16.5995 O   0  0  0  0  0  0  0  0  0  0  0  0
    1.5232   -7.6869   27.1182 C   0  0  0  0  0  0  0  0  0  0  0  0
    8.6878   -6.6715   27.7262 N   0  0  0  0  0  0  0  0  0  0  0  0
    6.9911   -8.2423   27.1808 C   0  0  0  0  0  0  0  0  0  0  0  0
    3.8436   -7.2758   16.0578 C   0  0  0  0  0  0  0  0  0  0  0  0
    3.1882   -9.7190   17.2566 C   0  0  0  0  0  0  0  0  0  0  0  0
    5.3488   -6.1737   26.5092 C   0  0  0  0  0  0  0  0  0  0  0  0
    7.4567   -6.9464   27.2858 C   0  0  0  0  0  0  0  0  0  0  0  0
    0.1921   -5.7592   27.1123 C   0  0  0  0  0  0  0  0  0  0  0  0
    3.5517   -7.7407   25.9711 C   0  0  0  0  0  0  0  0  0  0  0  0
  1  4  4  0
  1 22  4  0
  2 20  4  0
  2 27  4  0
  3 12  4  0
  3 23  4  0
  4 25  4  0
  4 28  1  0
  5  8  4  0
  5 17  4  0
  6  7  4  0
  6 16  4  0
  7 18  4  0
  8 27  4  0
  9 13  4  0
  9 23  4  0
 10 11  1  0
 11 14  2  0
 11 27  1  0
 12 19  1  0
 12 24  4  0
 13 24  4  0
 15 18  1  0
 16 25  4  0
 16 26  4  0
 17 20  4  0
 17 28  1  0
 18 21  4  0
 21 26  4  0
 22 26  4  0
M  END
$$$$

 Created by Python create_sdf_string function

 28 30  0  0  0  0  0  0  0  0999 V2000
    5.7174   -8.4529   26.7190 C   0  0  0  0  0  0  0  0  0  0  0  0
    0.3974   -7.0711   27.5149 C   0  0  0  0  0  0  0  0  0  0  0  0
    2.5338   -7.6891   16.0102 C   0  0  0  0  0  0  0  0  0  0  0  0
    4.8690   -7.4380   26.4151 C   0  0  0  0  0  0  0  0  0  0  0  0
    2.3021   -5.6726   26.0378 C   0  0  0  0  0  0  0  0  0  0  0  0
    7.0880   -4.6163   27.0010 C   0  0  0  0  0  0  0  0  0  0  0  0
    8.3117   -4.3698   27.4436 C   0  0  0  0  0  0  0  0  0  0  0  0
    1.1339   -5.0515   26.3541 C   0  0  0  0  0  0  0  0  0  0  0  0
    4.8080   -8.0362   16.7101 C   0  0  0  0  0  0  0  0  0  0  0  0
   -1.2173   -3.9294   26.9717 O   0  0  0  0  0  0  0  0  0  0  0  0
   -1.0025   -5.0942   27.4586 C   0  0  0  0  0  0  0  0  0  0  0  0
    2.2474   -8.9123   16.6273 C   0  0  0  0  0  0  0  0  0  0  0  0
    4.4957   -9.2636   17.3041 C   0  0  0  0  0  0  0  0  0  0  0  0
   -1.8070   -5.6086   28.1920 O   0  0  0  0  0  0  0  0  0  0  0  0
   10.4296   -5.1799   28.3140 C   0  0  0  0  0  0  0  0  0  0  0  0
    6.6017   -5.9004   26.9187 C   0  0  0  0  0  0  0  0  0  0  0  0
    2.4761   -6.9940   26.4111 N   0  0  0  0  0  0  0  0  0  0  0  0
    9.1353   -5.4053   27.8239 C   0  0  0  0  0  0  0  0  0  0  0  0
    0.9922   -9.3232   16.5995 O   0  0  0  0  0  0  0  0  0  0  0  0
    1.5232   -7.6869   27.1182 C   0  0  0  0  0  0  0  0  0  0  0  0
    8.6878   -6.6715   27.7262 N   0  0  0  0  0  0  0  0  0  0  0  0
    6.9911   -8.2423   27.1808 C   0  0  0  0  0  0  0  0  0  0  0  0
    3.8436   -7.2758   16.0578 C   0  0  0  0  0  0  0  0  0  0  0  0
    3.1882   -9.7190   17.2566 C   0  0  0  0  0  0  0  0  0  0  0  0
    5.3488   -6.1737   26.5092 C   0  0  0  0  0  0  0  0  0  0  0  0
    7.4567   -6.9464   27.2858 C   0  0  0  0  0  0  0  0  0  0  0  0
    0.1921   -5.7592   27.1123 C   0  0  0  0  0  0  0  0  0  0  0  0
    3.5517   -7.7407   25.9711 C   0  0  0  0  0  0  0  0  0  0  0  0
  1  4  4  0
  1 22  4  0
  2 20  4  0
  2 27  4  0
  3 12  4  0
  3 23  4  0
  4 25  4  0
  4 28  1  0
  5  8  4  0
  5 17  4  0
  6  7  4  0
  6 16  4  0
  7 18  4  0
  8 27  4  0
  9 13  4  0
  9 23  4  0
 10 11  1  0
 11 14  2  0
 11 27  1  0
 12 19  1  0
 12 24  4  0
 13 24  4  0
 15 18  1  0
 16 25  4  0
 16 26  4  0
 17 20  4  0
 17 28  1  0
 18 21  4  0
 21 26  4  0
 22 26  4  0
M  END
$$$$

 Created by Python create_sdf_string function

 28 30  0  0  0  0  0  0  0  0999 V2000
    5.7174   -8.4529   26.7190 C   0  0  0  0  0  0  0  0  0  0  0  0
    0.3974   -7.0711   27.5149 C   0  0  0  0  0  0  0  0  0  0  0  0
    2.5338   -7.6891   16.0102 C   0  0  0  0  0  0  0  0  0  0  0  0
    4.8690   -7.4380   26.4151 C   0  0  0  0  0  0  0  0  0  0  0  0
    2.3021   -5.6726   26.0378 C   0  0  0  0  0  0  0  0  0  0  0  0
    7.0880   -4.6163   27.0010 C   0  0  0  0  0  0  0  0  0  0  0  0
    8.3117   -4.3698   27.4436 C   0  0  0  0  0  0  0  0  0  0  0  0
    1.1339   -5.0515   26.3541 C   0  0  0  0  0  0  0  0  0  0  0  0
    4.8080   -8.0362   16.7101 C   0  0  0  0  0  0  0  0  0  0  0  0
   -1.2173   -3.9294   26.9717 O   0  0  0  0  0  0  0  0  0  0  0  0
   -1.0025   -5.0942   27.4586 C   0  0  0  0  0  0  0  0  0  0  0  0
    2.2474   -8.9123   16.6273 C   0  0  0  0  0  0  0  0  0  0  0  0
    4.4957   -9.2636   17.3041 C   0  0  0  0  0  0  0  0  0  0  0  0
   -1.8070   -5.6086   28.1920 O   0  0  0  0  0  0  0  0  0  0  0  0
   10.4296   -5.1799   28.3140 C   0  0  0  0  0  0  0  0  0  0  0  0
    6.6017   -5.9004   26.9187 C   0  0  0  0  0  0  0  0  0  0  0  0
    2.4761   -6.9940   26.4111 N   0  0  0  0  0  0  0  0  0  0  0  0
    9.1353   -5.4053   27.8239 C   0  0  0  0  0  0  0  0  0  0  0  0
    0.9922   -9.3232   16.5995 O   0  0  0  0  0  0  0  0  0  0  0  0
    1.5232   -7.6869   27.1182 C   0  0  0  0  0  0  0  0  0  0  0  0
    8.6878   -6.6715   27.7262 N   0  0  0  0  0  0  0  0  0  0  0  0
    6.9911   -8.2423   27.1808 C   0  0  0  0  0  0  0  0  0  0  0  0
    3.8436   -7.2758   16.0578 C   0  0  0  0  0  0  0  0  0  0  0  0
    3.1882   -9.7190   17.2566 C   0  0  0  0  0  0  0  0  0  0  0  0
    5.3488   -6.1737   26.5092 C   0  0  0  0  0  0  0  0  0  0  0  0
    7.4567   -6.9464   27.2858 C   0  0  0  0  0  0  0  0  0  0  0  0
    0.1921   -5.7592   27.1123 C   0  0  0  0  0  0  0  0  0  0  0  0
    3.5517   -7.7407   25.9711 C   0  0  0  0  0  0  0  0  0  0  0  0
  1  4  4  0
  1 22  4  0
  2 20  4  0
  2 27  4  0
  3 12  4  0
  3 23  4  0
  4 25  4  0
  4 28  1  0
  5  8  4  0
  5 17  4  0
  6  7  4  0
  6 16  4  0
  7 18  4  0
  8 27  4  0
  9 13  4  0
  9 23  4  0
 10 11  1  0
 11 14  2  0
 11 27  1  0
 12 19  1  0
 12 24  4  0
 13 24  4  0
 15 18  1  0
 16 25  4  0
 16 26  4  0
 17 20  4  0
 17 28  1  0
 18 21  4  0
 21 26  4  0
 22 26  4  0
M  END
$$$$

 Created by Python create_sdf_string function

 28 30  0  0  0  0  0  0  0  0999 V2000
    5.7174   -8.4529   26.7190 C   0  0  0  0  0  0  0  0  0  0  0  0
    0.3974   -7.0711   27.5149 C   0  0  0  0  0  0  0  0  0  0  0  0
    2.5338   -7.6891   16.0102 C   0  0  0  0  0  0  0  0  0  0  0  0
    4.8690   -7.4380   26.4151 C   0  0  0  0  0  0  0  0  0  0  0  0
    2.3021   -5.6726   26.0378 C   0  0  0  0  0  0  0  0  0  0  0  0
    7.0880   -4.6163   27.0010 C   0  0  0  0  0  0  0  0  0  0  0  0
    8.3117   -4.3698   27.4436 C   0  0  0  0  0  0  0  0  0  0  0  0
    1.1339   -5.0515   26.3541 C   0  0  0  0  0  0  0  0  0  0  0  0
    4.8080   -8.0362   16.7101 C   0  0  0  0  0  0  0  0  0  0  0  0
   -1.2173   -3.9294   26.9717 O   0  0  0  0  0  0  0  0  0  0  0  0
   -1.0025   -5.0942   27.4586 C   0  0  0  0  0  0  0  0  0  0  0  0
    2.2474   -8.9123   16.6273 C   0  0  0  0  0  0  0  0  0  0  0  0
    4.4957   -9.2636   17.3041 C   0  0  0  0  0  0  0  0  0  0  0  0
   -1.8070   -5.6086   28.1920 O   0  0  0  0  0  0  0  0  0  0  0  0
   10.4296   -5.1799   28.3140 C   0  0  0  0  0  0  0  0  0  0  0  0
    6.6017   -5.9004   26.9187 C   0  0  0  0  0  0  0  0  0  0  0  0
    2.4761   -6.9940   26.4111 N   0  0  0  0  0  0  0  0  0  0  0  0
    9.1353   -5.4053   27.8239 C   0  0  0  0  0  0  0  0  0  0  0  0
    0.9922   -9.3232   16.5995 O   0  0  0  0  0  0  0  0  0  0  0  0
    1.5232   -7.6869   27.1182 C   0  0  0  0  0  0  0  0  0  0  0  0
    8.6878   -6.6715   27.7262 N   0  0  0  0  0  0  0  0  0  0  0  0
    6.9911   -8.2423   27.1808 C   0  0  0  0  0  0  0  0  0  0  0  0
    3.8436   -7.2758   16.0578 C   0  0  0  0  0  0  0  0  0  0  0  0
    3.1882   -9.7190   17.2566 C   0  0  0  0  0  0  0  0  0  0  0  0
    5.3488   -6.1737   26.5092 C   0  0  0  0  0  0  0  0  0  0  0  0
    7.4567   -6.9464   27.2858 C   0  0  0  0  0  0  0  0  0  0  0  0
    0.1921   -5.7592   27.1123 C   0  0  0  0  0  0  0  0  0  0  0  0
    3.5517   -7.7407   25.9711 C   0  0  0  0  0  0  0  0  0  0  0  0
  1  4  4  0
  1 22  4  0
  2 20  4  0
  2 27  4  0
  3 12  4  0
  3 23  4  0
  4 25  4  0
  4 28  1  0
  5  8  4  0
  5 17  4  0
  6  7  4  0
  6 16  4  0
  7 18  4  0
  8 27  4  0
  9 13  4  0
  9 23  4  0
 10 11  1  0
 11 14  2  0
 11 27  1  0
 12 19  1  0
 12 24  4  0
 13 24  4  0
 15 18  1  0
 16 25  4  0
 16 26  4  0
 17 20  4  0
 17 28  1  0
 18 21  4  0
 21 26  4  0
 22 26  4  0
M  END
$$$$

 Created by Python create_sdf_string function

 28 30  0  0  0  0  0  0  0  0999 V2000
    5.7174   -8.4529   26.7190 C   0  0  0  0  0  0  0  0  0  0  0  0
    0.3974   -7.0711   27.5149 C   0  0  0  0  0  0  0  0  0  0  0  0
    2.5338   -7.6891   16.0102 C   0  0  0  0  0  0  0  0  0  0  0  0
    4.8690   -7.4380   26.4151 C   0  0  0  0  0  0  0  0  0  0  0  0
    2.3021   -5.6726   26.0378 C   0  0  0  0  0  0  0  0  0  0  0  0
    7.0880   -4.6163   27.0010 C   0  0  0  0  0  0  0  0  0  0  0  0
    8.3117   -4.3698   27.4436 C   0  0  0  0  0  0  0  0  0  0  0  0
    1.1339   -5.0515   26.3541 C   0  0  0  0  0  0  0  0  0  0  0  0
    4.8080   -8.0362   16.7101 C   0  0  0  0  0  0  0  0  0  0  0  0
   -1.2173   -3.9294   26.9717 O   0  0  0  0  0  0  0  0  0  0  0  0
   -1.0025   -5.0942   27.4586 C   0  0  0  0  0  0  0  0  0  0  0  0
    2.2474   -8.9123   16.6273 C   0  0  0  0  0  0  0  0  0  0  0  0
    4.4957   -9.2636   17.3041 C   0  0  0  0  0  0  0  0  0  0  0  0
   -1.8070   -5.6086   28.1920 O   0  0  0  0  0  0  0  0  0  0  0  0
   10.4296   -5.1799   28.3140 C   0  0  0  0  0  0  0  0  0  0  0  0
    6.6017   -5.9004   26.9187 C   0  0  0  0  0  0  0  0  0  0  0  0
    2.4761   -6.9940   26.4111 N   0  0  0  0  0  0  0  0  0  0  0  0
    9.1353   -5.4053   27.8239 C   0  0  0  0  0  0  0  0  0  0  0  0
    0.9922   -9.3232   16.5995 O   0  0  0  0  0  0  0  0  0  0  0  0
    1.5232   -7.6869   27.1182 C   0  0  0  0  0  0  0  0  0  0  0  0
    8.6878   -6.6715   27.7262 N   0  0  0  0  0  0  0  0  0  0  0  0
    6.9911   -8.2423   27.1808 C   0  0  0  0  0  0  0  0  0  0  0  0
    3.8436   -7.2758   16.0578 C   0  0  0  0  0  0  0  0  0  0  0  0
    3.1882   -9.7190   17.2566 C   0  0  0  0  0  0  0  0  0  0  0  0
    5.3488   -6.1737   26.5092 C   0  0  0  0  0  0  0  0  0  0  0  0
    7.4567   -6.9464   27.2858 C   0  0  0  0  0  0  0  0  0  0  0  0
    0.1921   -5.7592   27.1123 C   0  0  0  0  0  0  0  0  0  0  0  0
    3.5517   -7.7407   25.9711 C   0  0  0  0  0  0  0  0  0  0  0  0
  1  4  4  0
  1 22  4  0
  2 20  4  0
  2 27  4  0
  3 12  4  0
  3 23  4  0
  4 25  4  0
  4 28  1  0
  5  8  4  0
  5 17  4  0
  6  7  4  0
  6 16  4  0
  7 18  4  0
  8 27  4  0
  9 13  4  0
  9 23  4  0
 10 11  1  0
 11 14  2  0
 11 27  1  0
 12 19  1  0
 12 24  4  0
 13 24  4  0
 15 18  1  0
 16 25  4  0
 16 26  4  0
 17 20  4  0
 17 28  1  0
 18 21  4  0
 21 26  4  0
 22 26  4  0
M  END
$$$$

 Created by Python create_sdf_string function

 28 30  0  0  0  0  0  0  0  0999 V2000
    5.7174   -8.4529   26.7190 C   0  0  0  0  0  0  0  0  0  0  0  0
    0.3974   -7.0711   27.5149 C   0  0  0  0  0  0  0  0  0  0  0  0
    2.5338   -7.6891   16.0102 C   0  0  0  0  0  0  0  0  0  0  0  0
    4.8690   -7.4380   26.4151 C   0  0  0  0  0  0  0  0  0  0  0  0
    2.3021   -5.6726   26.0378 C   0  0  0  0  0  0  0  0  0  0  0  0
    7.0880   -4.6163   27.0010 C   0  0  0  0  0  0  0  0  0  0  0  0
    8.3117   -4.3698   27.4436 C   0  0  0  0  0  0  0  0  0  0  0  0
    1.1339   -5.0515   26.3541 C   0  0  0  0  0  0  0  0  0  0  0  0
    4.8080   -8.0362   16.7101 C   0  0  0  0  0  0  0  0  0  0  0  0
   -1.2173   -3.9294   26.9717 O   0  0  0  0  0  0  0  0  0  0  0  0
   -1.0025   -5.0942   27.4586 C   0  0  0  0  0  0  0  0  0  0  0  0
    2.2474   -8.9123   16.6273 C   0  0  0  0  0  0  0  0  0  0  0  0
    4.4957   -9.2636   17.3041 C   0  0  0  0  0  0  0  0  0  0  0  0
   -1.8070   -5.6086   28.1920 O   0  0  0  0  0  0  0  0  0  0  0  0
   10.4296   -5.1799   28.3140 C   0  0  0  0  0  0  0  0  0  0  0  0
    6.6017   -5.9004   26.9187 C   0  0  0  0  0  0  0  0  0  0  0  0
    2.4761   -6.9940   26.4111 N   0  0  0  0  0  0  0  0  0  0  0  0
    9.1353   -5.4053   27.8239 C   0  0  0  0  0  0  0  0  0  0  0  0
    0.9922   -9.3232   16.5995 O   0  0  0  0  0  0  0  0  0  0  0  0
    1.5232   -7.6869   27.1182 C   0  0  0  0  0  0  0  0  0  0  0  0
    8.6878   -6.6715   27.7262 N   0  0  0  0  0  0  0  0  0  0  0  0
    6.9911   -8.2423   27.1808 C   0  0  0  0  0  0  0  0  0  0  0  0
    3.8436   -7.2758   16.0578 C   0  0  0  0  0  0  0  0  0  0  0  0
    3.1882   -9.7190   17.2566 C   0  0  0  0  0  0  0  0  0  0  0  0
    5.3488   -6.1737   26.5092 C   0  0  0  0  0  0  0  0  0  0  0  0
    7.4567   -6.9464   27.2858 C   0  0  0  0  0  0  0  0  0  0  0  0
    0.1921   -5.7592   27.1123 C   0  0  0  0  0  0  0  0  0  0  0  0
    3.5517   -7.7407   25.9711 C   0  0  0  0  0  0  0  0  0  0  0  0
  1  4  4  0
  1 22  4  0
  2 20  4  0
  2 27  4  0
  3 12  4  0
  3 23  4  0
  4 25  4  0
  4 28  1  0
  5  8  4  0
  5 17  4  0
  6  7  4  0
  6 16  4  0
  7 18  4  0
  8 27  4  0
  9 13  4  0
  9 23  4  0
 10 11  1  0
 11 14  2  0
 11 27  1  0
 12 19  1  0
 12 24  4  0
 13 24  4  0
 15 18  1  0
 16 25  4  0
 16 26  4  0
 17 20  4  0
 17 28  1  0
 18 21  4  0
 21 26  4  0
 22 26  4  0
M  END
$$$$

 Created by Python create_sdf_string function

 28 30  0  0  0  0  0  0  0  0999 V2000
    5.7174   -8.4529   26.7190 C   0  0  0  0  0  0  0  0  0  0  0  0
    0.3974   -7.0711   27.5149 C   0  0  0  0  0  0  0  0  0  0  0  0
    2.5338   -7.6891   16.0102 C   0  0  0  0  0  0  0  0  0  0  0  0
    4.8690   -7.4380   26.4151 C   0  0  0  0  0  0  0  0  0  0  0  0
    2.3021   -5.6726   26.0378 C   0  0  0  0  0  0  0  0  0  0  0  0
    7.0880   -4.6163   27.0010 C   0  0  0  0  0  0  0  0  0  0  0  0
    8.3117   -4.3698   27.4436 C   0  0  0  0  0  0  0  0  0  0  0  0
    1.1339   -5.0515   26.3541 C   0  0  0  0  0  0  0  0  0  0  0  0
    4.8080   -8.0362   16.7101 C   0  0  0  0  0  0  0  0  0  0  0  0
   -1.2173   -3.9294   26.9717 O   0  0  0  0  0  0  0  0  0  0  0  0
   -1.0025   -5.0942   27.4586 C   0  0  0  0  0  0  0  0  0  0  0  0
    2.2474   -8.9123   16.6273 C   0  0  0  0  0  0  0  0  0  0  0  0
    4.4957   -9.2636   17.3041 C   0  0  0  0  0  0  0  0  0  0  0  0
   -1.8070   -5.6086   28.1920 O   0  0  0  0  0  0  0  0  0  0  0  0
   10.4296   -5.1799   28.3140 C   0  0  0  0  0  0  0  0  0  0  0  0
    6.6017   -5.9004   26.9187 C   0  0  0  0  0  0  0  0  0  0  0  0
    2.4761   -6.9940   26.4111 N   0  0  0  0  0  0  0  0  0  0  0  0
    9.1353   -5.4053   27.8239 C   0  0  0  0  0  0  0  0  0  0  0  0
    0.9922   -9.3232   16.5995 O   0  0  0  0  0  0  0  0  0  0  0  0
    1.5232   -7.6869   27.1182 C   0  0  0  0  0  0  0  0  0  0  0  0
    8.6878   -6.6715   27.7262 N   0  0  0  0  0  0  0  0  0  0  0  0
    6.9911   -8.2423   27.1808 C   0  0  0  0  0  0  0  0  0  0  0  0
    3.8436   -7.2758   16.0578 C   0  0  0  0  0  0  0  0  0  0  0  0
    3.1882   -9.7190   17.2566 C   0  0  0  0  0  0  0  0  0  0  0  0
    5.3488   -6.1737   26.5092 C   0  0  0  0  0  0  0  0  0  0  0  0
    7.4567   -6.9464   27.2858 C   0  0  0  0  0  0  0  0  0  0  0  0
    0.1921   -5.7592   27.1123 C   0  0  0  0  0  0  0  0  0  0  0  0
    3.5517   -7.7407   25.9711 C   0  0  0  0  0  0  0  0  0  0  0  0
  1  4  4  0
  1 22  4  0
  2 20  4  0
  2 27  4  0
  3 12  4  0
  3 23  4  0
  4 25  4  0
  4 28  1  0
  5  8  4  0
  5 17  4  0
  6  7  4  0
  6 16  4  0
  7 18  4  0
  8 27  4  0
  9 13  4  0
  9 23  4  0
 10 11  1  0
 11 14  2  0
 11 27  1  0
 12 19  1  0
 12 24  4  0
 13 24  4  0
 15 18  1  0
 16 25  4  0
 16 26  4  0
 17 20  4  0
 17 28  1  0
 18 21  4  0
 21 26  4  0
 22 26  4  0
M  END
$$$$

 Created by Python create_sdf_string function

 28 30  0  0  0  0  0  0  0  0999 V2000
    5.7174   -8.4529   26.7190 C   0  0  0  0  0  0  0  0  0  0  0  0
    0.3974   -7.0711   27.5149 C   0  0  0  0  0  0  0  0  0  0  0  0
    2.5338   -7.6891   16.0102 C   0  0  0  0  0  0  0  0  0  0  0  0
    4.8690   -7.4380   26.4151 C   0  0  0  0  0  0  0  0  0  0  0  0
    2.3021   -5.6726   26.0378 C   0  0  0  0  0  0  0  0  0  0  0  0
    7.0880   -4.6163   27.0010 C   0  0  0  0  0  0  0  0  0  0  0  0
    8.3117   -4.3698   27.4436 C   0  0  0  0  0  0  0  0  0  0  0  0
    1.1339   -5.0515   26.3541 C   0  0  0  0  0  0  0  0  0  0  0  0
    4.8080   -8.0362   16.7101 C   0  0  0  0  0  0  0  0  0  0  0  0
   -1.2173   -3.9294   26.9717 O   0  0  0  0  0  0  0  0  0  0  0  0
   -1.0025   -5.0942   27.4586 C   0  0  0  0  0  0  0  0  0  0  0  0
    2.2474   -8.9123   16.6273 C   0  0  0  0  0  0  0  0  0  0  0  0
    4.4957   -9.2636   17.3041 C   0  0  0  0  0  0  0  0  0  0  0  0
   -1.8070   -5.6086   28.1920 O   0  0  0  0  0  0  0  0  0  0  0  0
   10.4296   -5.1799   28.3140 C   0  0  0  0  0  0  0  0  0  0  0  0
    6.6017   -5.9004   26.9187 C   0  0  0  0  0  0  0  0  0  0  0  0
    2.4761   -6.9940   26.4111 N   0  0  0  0  0  0  0  0  0  0  0  0
    9.1353   -5.4053   27.8239 C   0  0  0  0  0  0  0  0  0  0  0  0
    0.9922   -9.3232   16.5995 O   0  0  0  0  0  0  0  0  0  0  0  0
    1.5232   -7.6869   27.1182 C   0  0  0  0  0  0  0  0  0  0  0  0
    8.6878   -6.6715   27.7262 N   0  0  0  0  0  0  0  0  0  0  0  0
    6.9911   -8.2423   27.1808 C   0  0  0  0  0  0  0  0  0  0  0  0
    3.8436   -7.2758   16.0578 C   0  0  0  0  0  0  0  0  0  0  0  0
    3.1882   -9.7190   17.2566 C   0  0  0  0  0  0  0  0  0  0  0  0
    5.3488   -6.1737   26.5092 C   0  0  0  0  0  0  0  0  0  0  0  0
    7.4567   -6.9464   27.2858 C   0  0  0  0  0  0  0  0  0  0  0  0
    0.1921   -5.7592   27.1123 C   0  0  0  0  0  0  0  0  0  0  0  0
    3.5517   -7.7407   25.9711 C   0  0  0  0  0  0  0  0  0  0  0  0
  1  4  4  0
  1 22  4  0
  2 20  4  0
  2 27  4  0
  3 12  4  0
  3 23  4  0
  4 25  4  0
  4 28  1  0
  5  8  4  0
  5 17  4  0
  6  7  4  0
  6 16  4  0
  7 18  4  0
  8 27  4  0
  9 13  4  0
  9 23  4  0
 10 11  1  0
 11 14  2  0
 11 27  1  0
 12 19  1  0
 12 24  4  0
 13 24  4  0
 15 18  1  0
 16 25  4  0
 16 26  4  0
 17 20  4  0
 17 28  1  0
 18 21  4  0
 21 26  4  0
 22 26  4  0
M  END
$$$$

 Created by Python create_sdf_string function

 28 30  0  0  0  0  0  0  0  0999 V2000
    5.7174   -8.4529   26.7190 C   0  0  0  0  0  0  0  0  0  0  0  0
    0.3974   -7.0711   27.5149 C   0  0  0  0  0  0  0  0  0  0  0  0
    2.5338   -7.6891   16.0102 C   0  0  0  0  0  0  0  0  0  0  0  0
    4.8690   -7.4380   26.4151 C   0  0  0  0  0  0  0  0  0  0  0  0
    2.3021   -5.6726   26.0378 C   0  0  0  0  0  0  0  0  0  0  0  0
    7.0880   -4.6163   27.0010 C   0  0  0  0  0  0  0  0  0  0  0  0
    8.3117   -4.3698   27.4436 C   0  0  0  0  0  0  0  0  0  0  0  0
    1.1339   -5.0515   26.3541 C   0  0  0  0  0  0  0  0  0  0  0  0
    4.8080   -8.0362   16.7101 C   0  0  0  0  0  0  0  0  0  0  0  0
   -1.2173   -3.9294   26.9717 O   0  0  0  0  0  0  0  0  0  0  0  0
   -1.0025   -5.0942   27.4586 C   0  0  0  0  0  0  0  0  0  0  0  0
    2.2474   -8.9123   16.6273 C   0  0  0  0  0  0  0  0  0  0  0  0
    4.4957   -9.2636   17.3041 C   0  0  0  0  0  0  0  0  0  0  0  0
   -1.8070   -5.6086   28.1920 O   0  0  0  0  0  0  0  0  0  0  0  0
   10.4296   -5.1799   28.3140 C   0  0  0  0  0  0  0  0  0  0  0  0
    6.6017   -5.9004   26.9187 C   0  0  0  0  0  0  0  0  0  0  0  0
    2.4761   -6.9940   26.4111 N   0  0  0  0  0  0  0  0  0  0  0  0
    9.1353   -5.4053   27.8239 C   0  0  0  0  0  0  0  0  0  0  0  0
    0.9922   -9.3232   16.5995 O   0  0  0  0  0  0  0  0  0  0  0  0
    1.5232   -7.6869   27.1182 C   0  0  0  0  0  0  0  0  0  0  0  0
    8.6878   -6.6715   27.7262 N   0  0  0  0  0  0  0  0  0  0  0  0
    6.9911   -8.2423   27.1808 C   0  0  0  0  0  0  0  0  0  0  0  0
    3.8436   -7.2758   16.0578 C   0  0  0  0  0  0  0  0  0  0  0  0
    3.1882   -9.7190   17.2566 C   0  0  0  0  0  0  0  0  0  0  0  0
    5.3488   -6.1737   26.5092 C   0  0  0  0  0  0  0  0  0  0  0  0
    7.4567   -6.9464   27.2858 C   0  0  0  0  0  0  0  0  0  0  0  0
    0.1921   -5.7592   27.1123 C   0  0  0  0  0  0  0  0  0  0  0  0
    3.5517   -7.7407   25.9711 C   0  0  0  0  0  0  0  0  0  0  0  0
  1  4  4  0
  1 22  4  0
  2 20  4  0
  2 27  4  0
  3 12  4  0
  3 23  4  0
  4 25  4  0
  4 28  1  0
  5  8  4  0
  5 17  4  0
  6  7  4  0
  6 16  4  0
  7 18  4  0
  8 27  4  0
  9 13  4  0
  9 23  4  0
 10 11  1  0
 11 14  2  0
 11 27  1  0
 12 19  1  0
 12 24  4  0
 13 24  4  0
 15 18  1  0
 16 25  4  0
 16 26  4  0
 17 20  4  0
 17 28  1  0
 18 21  4  0
 21 26  4  0
 22 26  4  0
M  END
$$$$

 Created by Python create_sdf_string function

 28 30  0  0  0  0  0  0  0  0999 V2000
    5.7174   -8.4529   26.7190 C   0  0  0  0  0  0  0  0  0  0  0  0
    0.3974   -7.0711   27.5149 C   0  0  0  0  0  0  0  0  0  0  0  0
    2.5338   -7.6891   16.0102 C   0  0  0  0  0  0  0  0  0  0  0  0
    4.8690   -7.4380   26.4151 C   0  0  0  0  0  0  0  0  0  0  0  0
    2.3021   -5.6726   26.0378 C   0  0  0  0  0  0  0  0  0  0  0  0
    7.0880   -4.6163   27.0010 C   0  0  0  0  0  0  0  0  0  0  0  0
    8.3117   -4.3698   27.4436 C   0  0  0  0  0  0  0  0  0  0  0  0
    1.1339   -5.0515   26.3541 C   0  0  0  0  0  0  0  0  0  0  0  0
    4.8080   -8.0362   16.7101 C   0  0  0  0  0  0  0  0  0  0  0  0
   -1.2173   -3.9294   26.9717 O   0  0  0  0  0  0  0  0  0  0  0  0
   -1.0025   -5.0942   27.4586 C   0  0  0  0  0  0  0  0  0  0  0  0
    2.2474   -8.9123   16.6273 C   0  0  0  0  0  0  0  0  0  0  0  0
    4.4957   -9.2636   17.3041 C   0  0  0  0  0  0  0  0  0  0  0  0
   -1.8070   -5.6086   28.1920 O   0  0  0  0  0  0  0  0  0  0  0  0
   10.4296   -5.1799   28.3140 C   0  0  0  0  0  0  0  0  0  0  0  0
    6.6017   -5.9004   26.9187 C   0  0  0  0  0  0  0  0  0  0  0  0
    2.4761   -6.9940   26.4111 N   0  0  0  0  0  0  0  0  0  0  0  0
    9.1353   -5.4053   27.8239 C   0  0  0  0  0  0  0  0  0  0  0  0
    0.9922   -9.3232   16.5995 O   0  0  0  0  0  0  0  0  0  0  0  0
    1.5232   -7.6869   27.1182 C   0  0  0  0  0  0  0  0  0  0  0  0
    8.6878   -6.6715   27.7262 N   0  0  0  0  0  0  0  0  0  0  0  0
    6.9911   -8.2423   27.1808 C   0  0  0  0  0  0  0  0  0  0  0  0
    3.8436   -7.2758   16.0578 C   0  0  0  0  0  0  0  0  0  0  0  0
    3.1882   -9.7190   17.2566 C   0  0  0  0  0  0  0  0  0  0  0  0
    5.3488   -6.1737   26.5092 C   0  0  0  0  0  0  0  0  0  0  0  0
    7.4567   -6.9464   27.2858 C   0  0  0  0  0  0  0  0  0  0  0  0
    0.1921   -5.7592   27.1123 C   0  0  0  0  0  0  0  0  0  0  0  0
    3.5517   -7.7407   25.9711 C   0  0  0  0  0  0  0  0  0  0  0  0
  1  4  4  0
  1 22  4  0
  2 20  4  0
  2 27  4  0
  3 12  4  0
  3 23  4  0
  4 25  4  0
  4 28  1  0
  5  8  4  0
  5 17  4  0
  6  7  4  0
  6 16  4  0
  7 18  4  0
  8 27  4  0
  9 13  4  0
  9 23  4  0
 10 11  1  0
 11 14  2  0
 11 27  1  0
 12 19  1  0
 12 24  4  0
 13 24  4  0
 15 18  1  0
 16 25  4  0
 16 26  4  0
 17 20  4  0
 17 28  1  0
 18 21  4  0
 21 26  4  0
 22 26  4  0
M  END
$$$$

 Created by Python create_sdf_string function

 28 30  0  0  0  0  0  0  0  0999 V2000
    5.7174   -8.4529   26.7190 C   0  0  0  0  0  0  0  0  0  0  0  0
    0.3974   -7.0711   27.5149 C   0  0  0  0  0  0  0  0  0  0  0  0
    2.5338   -7.6891   16.0102 C   0  0  0  0  0  0  0  0  0  0  0  0
    4.8690   -7.4380   26.4151 C   0  0  0  0  0  0  0  0  0  0  0  0
    2.3021   -5.6726   26.0378 C   0  0  0  0  0  0  0  0  0  0  0  0
    7.0880   -4.6163   27.0010 C   0  0  0  0  0  0  0  0  0  0  0  0
    8.3117   -4.3698   27.4436 C   0  0  0  0  0  0  0  0  0  0  0  0
    1.1339   -5.0515   26.3541 C   0  0  0  0  0  0  0  0  0  0  0  0
    4.8080   -8.0362   16.7101 C   0  0  0  0  0  0  0  0  0  0  0  0
   -1.2173   -3.9294   26.9717 O   0  0  0  0  0  0  0  0  0  0  0  0
   -1.0025   -5.0942   27.4586 C   0  0  0  0  0  0  0  0  0  0  0  0
    2.2474   -8.9123   16.6273 C   0  0  0  0  0  0  0  0  0  0  0  0
    4.4957   -9.2636   17.3041 C   0  0  0  0  0  0  0  0  0  0  0  0
   -1.8070   -5.6086   28.1920 O   0  0  0  0  0  0  0  0  0  0  0  0
   10.4296   -5.1799   28.3140 C   0  0  0  0  0  0  0  0  0  0  0  0
    6.6017   -5.9004   26.9187 C   0  0  0  0  0  0  0  0  0  0  0  0
    2.4761   -6.9940   26.4111 N   0  0  0  0  0  0  0  0  0  0  0  0
    9.1353   -5.4053   27.8239 C   0  0  0  0  0  0  0  0  0  0  0  0
    0.9922   -9.3232   16.5995 O   0  0  0  0  0  0  0  0  0  0  0  0
    1.5232   -7.6869   27.1182 C   0  0  0  0  0  0  0  0  0  0  0  0
    8.6878   -6.6715   27.7262 N   0  0  0  0  0  0  0  0  0  0  0  0
    6.9911   -8.2423   27.1808 C   0  0  0  0  0  0  0  0  0  0  0  0
    3.8436   -7.2758   16.0578 C   0  0  0  0  0  0  0  0  0  0  0  0
    3.1882   -9.7190   17.2566 C   0  0  0  0  0  0  0  0  0  0  0  0
    5.3488   -6.1737   26.5092 C   0  0  0  0  0  0  0  0  0  0  0  0
    7.4567   -6.9464   27.2858 C   0  0  0  0  0  0  0  0  0  0  0  0
    0.1921   -5.7592   27.1123 C   0  0  0  0  0  0  0  0  0  0  0  0
    3.5517   -7.7407   25.9711 C   0  0  0  0  0  0  0  0  0  0  0  0
  1  4  4  0
  1 22  4  0
  2 20  4  0
  2 27  4  0
  3 12  4  0
  3 23  4  0
  4 25  4  0
  4 28  1  0
  5  8  4  0
  5 17  4  0
  6  7  4  0
  6 16  4  0
  7 18  4  0
  8 27  4  0
  9 13  4  0
  9 23  4  0
 10 11  1  0
 11 14  2  0
 11 27  1  0
 12 19  1  0
 12 24  4  0
 13 24  4  0
 15 18  1  0
 16 25  4  0
 16 26  4  0
 17 20  4  0
 17 28  1  0
 18 21  4  0
 21 26  4  0
 22 26  4  0
M  END
$$$$

 Created by Python create_sdf_string function

 28 30  0  0  0  0  0  0  0  0999 V2000
    5.7174   -8.4529   26.7190 C   0  0  0  0  0  0  0  0  0  0  0  0
    0.3974   -7.0711   27.5149 C   0  0  0  0  0  0  0  0  0  0  0  0
    2.5338   -7.6891   16.0102 C   0  0  0  0  0  0  0  0  0  0  0  0
    4.8690   -7.4380   26.4151 C   0  0  0  0  0  0  0  0  0  0  0  0
    2.3021   -5.6726   26.0378 C   0  0  0  0  0  0  0  0  0  0  0  0
    7.0880   -4.6163   27.0010 C   0  0  0  0  0  0  0  0  0  0  0  0
    8.3117   -4.3698   27.4436 C   0  0  0  0  0  0  0  0  0  0  0  0
    1.1339   -5.0515   26.3541 C   0  0  0  0  0  0  0  0  0  0  0  0
    4.8080   -8.0362   16.7101 C   0  0  0  0  0  0  0  0  0  0  0  0
   -1.2173   -3.9294   26.9717 O   0  0  0  0  0  0  0  0  0  0  0  0
   -1.0025   -5.0942   27.4586 C   0  0  0  0  0  0  0  0  0  0  0  0
    2.2474   -8.9123   16.6273 C   0  0  0  0  0  0  0  0  0  0  0  0
    4.4957   -9.2636   17.3041 C   0  0  0  0  0  0  0  0  0  0  0  0
   -1.8070   -5.6086   28.1920 O   0  0  0  0  0  0  0  0  0  0  0  0
   10.4296   -5.1799   28.3140 C   0  0  0  0  0  0  0  0  0  0  0  0
    6.6017   -5.9004   26.9187 C   0  0  0  0  0  0  0  0  0  0  0  0
    2.4761   -6.9940   26.4111 N   0  0  0  0  0  0  0  0  0  0  0  0
    9.1353   -5.4053   27.8239 C   0  0  0  0  0  0  0  0  0  0  0  0
    0.9922   -9.3232   16.5995 O   0  0  0  0  0  0  0  0  0  0  0  0
    1.5232   -7.6869   27.1182 C   0  0  0  0  0  0  0  0  0  0  0  0
    8.6878   -6.6715   27.7262 N   0  0  0  0  0  0  0  0  0  0  0  0
    6.9911   -8.2423   27.1808 C   0  0  0  0  0  0  0  0  0  0  0  0
    3.8436   -7.2758   16.0578 C   0  0  0  0  0  0  0  0  0  0  0  0
    3.1882   -9.7190   17.2566 C   0  0  0  0  0  0  0  0  0  0  0  0
    5.3488   -6.1737   26.5092 C   0  0  0  0  0  0  0  0  0  0  0  0
    7.4567   -6.9464   27.2858 C   0  0  0  0  0  0  0  0  0  0  0  0
    0.1921   -5.7592   27.1123 C   0  0  0  0  0  0  0  0  0  0  0  0
    3.5517   -7.7407   25.9711 C   0  0  0  0  0  0  0  0  0  0  0  0
  1  4  4  0
  1 22  4  0
  2 20  4  0
  2 27  4  0
  3 12  4  0
  3 23  4  0
  4 25  4  0
  4 28  1  0
  5  8  4  0
  5 17  4  0
  6  7  4  0
  6 16  4  0
  7 18  4  0
  8 27  4  0
  9 13  4  0
  9 23  4  0
 10 11  1  0
 11 14  2  0
 11 27  1  0
 12 19  1  0
 12 24  4  0
 13 24  4  0
 15 18  1  0
 16 25  4  0
 16 26  4  0
 17 20  4  0
 17 28  1  0
 18 21  4  0
 21 26  4  0
 22 26  4  0
M  END
$$$$

 Created by Python create_sdf_string function

 28 30  0  0  0  0  0  0  0  0999 V2000
    5.7174   -8.4529   26.7190 C   0  0  0  0  0  0  0  0  0  0  0  0
    0.3974   -7.0711   27.5149 C   0  0  0  0  0  0  0  0  0  0  0  0
    2.5338   -7.6891   16.0102 C   0  0  0  0  0  0  0  0  0  0  0  0
    4.8690   -7.4380   26.4151 C   0  0  0  0  0  0  0  0  0  0  0  0
    2.3021   -5.6726   26.0378 C   0  0  0  0  0  0  0  0  0  0  0  0
    7.0880   -4.6163   27.0010 C   0  0  0  0  0  0  0  0  0  0  0  0
    8.3117   -4.3698   27.4436 C   0  0  0  0  0  0  0  0  0  0  0  0
    1.1339   -5.0515   26.3541 C   0  0  0  0  0  0  0  0  0  0  0  0
    4.8080   -8.0362   16.7101 C   0  0  0  0  0  0  0  0  0  0  0  0
   -1.2173   -3.9294   26.9717 O   0  0  0  0  0  0  0  0  0  0  0  0
   -1.0025   -5.0942   27.4586 C   0  0  0  0  0  0  0  0  0  0  0  0
    2.2474   -8.9123   16.6273 C   0  0  0  0  0  0  0  0  0  0  0  0
    4.4957   -9.2636   17.3041 C   0  0  0  0  0  0  0  0  0  0  0  0
   -1.8070   -5.6086   28.1920 O   0  0  0  0  0  0  0  0  0  0  0  0
   10.4296   -5.1799   28.3140 C   0  0  0  0  0  0  0  0  0  0  0  0
    6.6017   -5.9004   26.9187 C   0  0  0  0  0  0  0  0  0  0  0  0
    2.4761   -6.9940   26.4111 N   0  0  0  0  0  0  0  0  0  0  0  0
    9.1353   -5.4053   27.8239 C   0  0  0  0  0  0  0  0  0  0  0  0
    0.9922   -9.3232   16.5995 O   0  0  0  0  0  0  0  0  0  0  0  0
    1.5232   -7.6869   27.1182 C   0  0  0  0  0  0  0  0  0  0  0  0
    8.6878   -6.6715   27.7262 N   0  0  0  0  0  0  0  0  0  0  0  0
    6.9911   -8.2423   27.1808 C   0  0  0  0  0  0  0  0  0  0  0  0
    3.8436   -7.2758   16.0578 C   0  0  0  0  0  0  0  0  0  0  0  0
    3.1882   -9.7190   17.2566 C   0  0  0  0  0  0  0  0  0  0  0  0
    5.3488   -6.1737   26.5092 C   0  0  0  0  0  0  0  0  0  0  0  0
    7.4567   -6.9464   27.2858 C   0  0  0  0  0  0  0  0  0  0  0  0
    0.1921   -5.7592   27.1123 C   0  0  0  0  0  0  0  0  0  0  0  0
    3.5517   -7.7407   25.9711 C   0  0  0  0  0  0  0  0  0  0  0  0
  1  4  4  0
  1 22  4  0
  2 20  4  0
  2 27  4  0
  3 12  4  0
  3 23  4  0
  4 25  4  0
  4 28  1  0
  5  8  4  0
  5 17  4  0
  6  7  4  0
  6 16  4  0
  7 18  4  0
  8 27  4  0
  9 13  4  0
  9 23  4  0
 10 11  1  0
 11 14  2  0
 11 27  1  0
 12 19  1  0
 12 24  4  0
 13 24  4  0
 15 18  1  0
 16 25  4  0
 16 26  4  0
 17 20  4  0
 17 28  1  0
 18 21  4  0
 21 26  4  0
 22 26  4  0
M  END
$$$$

 Created by Python create_sdf_string function

 28 30  0  0  0  0  0  0  0  0999 V2000
    5.7174   -8.4529   26.7190 C   0  0  0  0  0  0  0  0  0  0  0  0
    0.3974   -7.0711   27.5149 C   0  0  0  0  0  0  0  0  0  0  0  0
    2.5338   -7.6891   16.0102 C   0  0  0  0  0  0  0  0  0  0  0  0
    4.8690   -7.4380   26.4151 C   0  0  0  0  0  0  0  0  0  0  0  0
    2.3021   -5.6726   26.0378 C   0  0  0  0  0  0  0  0  0  0  0  0
    7.0880   -4.6163   27.0010 C   0  0  0  0  0  0  0  0  0  0  0  0
    8.3117   -4.3698   27.4436 C   0  0  0  0  0  0  0  0  0  0  0  0
    1.1339   -5.0515   26.3541 C   0  0  0  0  0  0  0  0  0  0  0  0
    4.8080   -8.0362   16.7101 C   0  0  0  0  0  0  0  0  0  0  0  0
   -1.2173   -3.9294   26.9717 O   0  0  0  0  0  0  0  0  0  0  0  0
   -1.0025   -5.0942   27.4586 C   0  0  0  0  0  0  0  0  0  0  0  0
    2.2474   -8.9123   16.6273 C   0  0  0  0  0  0  0  0  0  0  0  0
    4.4957   -9.2636   17.3041 C   0  0  0  0  0  0  0  0  0  0  0  0
   -1.8070   -5.6086   28.1920 O   0  0  0  0  0  0  0  0  0  0  0  0
   10.4296   -5.1799   28.3140 C   0  0  0  0  0  0  0  0  0  0  0  0
    6.6017   -5.9004   26.9187 C   0  0  0  0  0  0  0  0  0  0  0  0
    2.4761   -6.9940   26.4111 N   0  0  0  0  0  0  0  0  0  0  0  0
    9.1353   -5.4053   27.8239 C   0  0  0  0  0  0  0  0  0  0  0  0
    0.9922   -9.3232   16.5995 O   0  0  0  0  0  0  0  0  0  0  0  0
    1.5232   -7.6869   27.1182 C   0  0  0  0  0  0  0  0  0  0  0  0
    8.6878   -6.6715   27.7262 N   0  0  0  0  0  0  0  0  0  0  0  0
    6.9911   -8.2423   27.1808 C   0  0  0  0  0  0  0  0  0  0  0  0
    3.8436   -7.2758   16.0578 C   0  0  0  0  0  0  0  0  0  0  0  0
    3.1882   -9.7190   17.2566 C   0  0  0  0  0  0  0  0  0  0  0  0
    5.3488   -6.1737   26.5092 C   0  0  0  0  0  0  0  0  0  0  0  0
    7.4567   -6.9464   27.2858 C   0  0  0  0  0  0  0  0  0  0  0  0
    0.1921   -5.7592   27.1123 C   0  0  0  0  0  0  0  0  0  0  0  0
    3.5517   -7.7407   25.9711 C   0  0  0  0  0  0  0  0  0  0  0  0
  1  4  4  0
  1 22  4  0
  2 20  4  0
  2 27  4  0
  3 12  4  0
  3 23  4  0
  4 25  4  0
  4 28  1  0
  5  8  4  0
  5 17  4  0
  6  7  4  0
  6 16  4  0
  7 18  4  0
  8 27  4  0
  9 13  4  0
  9 23  4  0
 10 11  1  0
 11 14  2  0
 11 27  1  0
 12 19  1  0
 12 24  4  0
 13 24  4  0
 15 18  1  0
 16 25  4  0
 16 26  4  0
 17 20  4  0
 17 28  1  0
 18 21  4  0
 21 26  4  0
 22 26  4  0
M  END
$$$$

 Created by Python create_sdf_string function

 28 30  0  0  0  0  0  0  0  0999 V2000
    5.7174   -8.4529   26.7190 C   0  0  0  0  0  0  0  0  0  0  0  0
    0.3974   -7.0711   27.5149 C   0  0  0  0  0  0  0  0  0  0  0  0
    2.5338   -7.6891   16.0102 C   0  0  0  0  0  0  0  0  0  0  0  0
    4.8690   -7.4380   26.4151 C   0  0  0  0  0  0  0  0  0  0  0  0
    2.3021   -5.6726   26.0378 C   0  0  0  0  0  0  0  0  0  0  0  0
    7.0880   -4.6163   27.0010 C   0  0  0  0  0  0  0  0  0  0  0  0
    8.3117   -4.3698   27.4436 C   0  0  0  0  0  0  0  0  0  0  0  0
    1.1339   -5.0515   26.3541 C   0  0  0  0  0  0  0  0  0  0  0  0
    4.8080   -8.0362   16.7101 C   0  0  0  0  0  0  0  0  0  0  0  0
   -1.2173   -3.9294   26.9717 O   0  0  0  0  0  0  0  0  0  0  0  0
   -1.0025   -5.0942   27.4586 C   0  0  0  0  0  0  0  0  0  0  0  0
    2.2474   -8.9123   16.6273 C   0  0  0  0  0  0  0  0  0  0  0  0
    4.4957   -9.2636   17.3041 C   0  0  0  0  0  0  0  0  0  0  0  0
   -1.8070   -5.6086   28.1920 O   0  0  0  0  0  0  0  0  0  0  0  0
   10.4296   -5.1799   28.3140 C   0  0  0  0  0  0  0  0  0  0  0  0
    6.6017   -5.9004   26.9187 C   0  0  0  0  0  0  0  0  0  0  0  0
    2.4761   -6.9940   26.4111 N   0  0  0  0  0  0  0  0  0  0  0  0
    9.1353   -5.4053   27.8239 C   0  0  0  0  0  0  0  0  0  0  0  0
    0.9922   -9.3232   16.5995 O   0  0  0  0  0  0  0  0  0  0  0  0
    1.5232   -7.6869   27.1182 C   0  0  0  0  0  0  0  0  0  0  0  0
    8.6878   -6.6715   27.7262 N   0  0  0  0  0  0  0  0  0  0  0  0
    6.9911   -8.2423   27.1808 C   0  0  0  0  0  0  0  0  0  0  0  0
    3.8436   -7.2758   16.0578 C   0  0  0  0  0  0  0  0  0  0  0  0
    3.1882   -9.7190   17.2566 C   0  0  0  0  0  0  0  0  0  0  0  0
    5.3488   -6.1737   26.5092 C   0  0  0  0  0  0  0  0  0  0  0  0
    7.4567   -6.9464   27.2858 C   0  0  0  0  0  0  0  0  0  0  0  0
    0.1921   -5.7592   27.1123 C   0  0  0  0  0  0  0  0  0  0  0  0
    3.5517   -7.7407   25.9711 C   0  0  0  0  0  0  0  0  0  0  0  0
  1  4  4  0
  1 22  4  0
  2 20  4  0
  2 27  4  0
  3 12  4  0
  3 23  4  0
  4 25  4  0
  4 28  1  0
  5  8  4  0
  5 17  4  0
  6  7  4  0
  6 16  4  0
  7 18  4  0
  8 27  4  0
  9 13  4  0
  9 23  4  0
 10 11  1  0
 11 14  2  0
 11 27  1  0
 12 19  1  0
 12 24  4  0
 13 24  4  0
 15 18  1  0
 16 25  4  0
 16 26  4  0
 17 20  4  0
 17 28  1  0
 18 21  4  0
 21 26  4  0
 22 26  4  0
M  END
$$$$

 Created by Python create_sdf_string function

 28 30  0  0  0  0  0  0  0  0999 V2000
    5.7174   -8.4529   26.7190 C   0  0  0  0  0  0  0  0  0  0  0  0
    0.3974   -7.0711   27.5149 C   0  0  0  0  0  0  0  0  0  0  0  0
    2.5338   -7.6891   16.0102 C   0  0  0  0  0  0  0  0  0  0  0  0
    4.8690   -7.4380   26.4151 C   0  0  0  0  0  0  0  0  0  0  0  0
    2.3021   -5.6726   26.0378 C   0  0  0  0  0  0  0  0  0  0  0  0
    7.0880   -4.6163   27.0010 C   0  0  0  0  0  0  0  0  0  0  0  0
    8.3117   -4.3698   27.4436 C   0  0  0  0  0  0  0  0  0  0  0  0
    1.1339   -5.0515   26.3541 C   0  0  0  0  0  0  0  0  0  0  0  0
    4.8080   -8.0362   16.7101 C   0  0  0  0  0  0  0  0  0  0  0  0
   -1.2173   -3.9294   26.9717 O   0  0  0  0  0  0  0  0  0  0  0  0
   -1.0025   -5.0942   27.4586 C   0  0  0  0  0  0  0  0  0  0  0  0
    2.2474   -8.9123   16.6273 C   0  0  0  0  0  0  0  0  0  0  0  0
    4.4957   -9.2636   17.3041 C   0  0  0  0  0  0  0  0  0  0  0  0
   -1.8070   -5.6086   28.1920 O   0  0  0  0  0  0  0  0  0  0  0  0
   10.4296   -5.1799   28.3140 C   0  0  0  0  0  0  0  0  0  0  0  0
    6.6017   -5.9004   26.9187 C   0  0  0  0  0  0  0  0  0  0  0  0
    2.4761   -6.9940   26.4111 N   0  0  0  0  0  0  0  0  0  0  0  0
    9.1353   -5.4053   27.8239 C   0  0  0  0  0  0  0  0  0  0  0  0
    0.9922   -9.3232   16.5995 O   0  0  0  0  0  0  0  0  0  0  0  0
    1.5232   -7.6869   27.1182 C   0  0  0  0  0  0  0  0  0  0  0  0
    8.6878   -6.6715   27.7262 N   0  0  0  0  0  0  0  0  0  0  0  0
    6.9911   -8.2423   27.1808 C   0  0  0  0  0  0  0  0  0  0  0  0
    3.8436   -7.2758   16.0578 C   0  0  0  0  0  0  0  0  0  0  0  0
    3.1882   -9.7190   17.2566 C   0  0  0  0  0  0  0  0  0  0  0  0
    5.3488   -6.1737   26.5092 C   0  0  0  0  0  0  0  0  0  0  0  0
    7.4567   -6.9464   27.2858 C   0  0  0  0  0  0  0  0  0  0  0  0
    0.1921   -5.7592   27.1123 C   0  0  0  0  0  0  0  0  0  0  0  0
    3.5517   -7.7407   25.9711 C   0  0  0  0  0  0  0  0  0  0  0  0
  1  4  4  0
  1 22  4  0
  2 20  4  0
  2 27  4  0
  3 12  4  0
  3 23  4  0
  4 25  4  0
  4 28  1  0
  5  8  4  0
  5 17  4  0
  6  7  4  0
  6 16  4  0
  7 18  4  0
  8 27  4  0
  9 13  4  0
  9 23  4  0
 10 11  1  0
 11 14  2  0
 11 27  1  0
 12 19  1  0
 12 24  4  0
 13 24  4  0
 15 18  1  0
 16 25  4  0
 16 26  4  0
 17 20  4  0
 17 28  1  0
 18 21  4  0
 21 26  4  0
 22 26  4  0
M  END
$$$$

 Created by Python create_sdf_string function

 28 30  0  0  0  0  0  0  0  0999 V2000
    5.7174   -8.4529   26.7190 C   0  0  0  0  0  0  0  0  0  0  0  0
    0.3974   -7.0711   27.5149 C   0  0  0  0  0  0  0  0  0  0  0  0
    2.5338   -7.6891   16.0102 C   0  0  0  0  0  0  0  0  0  0  0  0
    4.8690   -7.4380   26.4151 C   0  0  0  0  0  0  0  0  0  0  0  0
    2.3021   -5.6726   26.0378 C   0  0  0  0  0  0  0  0  0  0  0  0
    7.0880   -4.6163   27.0010 C   0  0  0  0  0  0  0  0  0  0  0  0
    8.3117   -4.3698   27.4436 C   0  0  0  0  0  0  0  0  0  0  0  0
    1.1339   -5.0515   26.3541 C   0  0  0  0  0  0  0  0  0  0  0  0
    4.8080   -8.0362   16.7101 C   0  0  0  0  0  0  0  0  0  0  0  0
   -1.2173   -3.9294   26.9717 O   0  0  0  0  0  0  0  0  0  0  0  0
   -1.0025   -5.0942   27.4586 C   0  0  0  0  0  0  0  0  0  0  0  0
    2.2474   -8.9123   16.6273 C   0  0  0  0  0  0  0  0  0  0  0  0
    4.4957   -9.2636   17.3041 C   0  0  0  0  0  0  0  0  0  0  0  0
   -1.8070   -5.6086   28.1920 O   0  0  0  0  0  0  0  0  0  0  0  0
   10.4296   -5.1799   28.3140 C   0  0  0  0  0  0  0  0  0  0  0  0
    6.6017   -5.9004   26.9187 C   0  0  0  0  0  0  0  0  0  0  0  0
    2.4761   -6.9940   26.4111 N   0  0  0  0  0  0  0  0  0  0  0  0
    9.1353   -5.4053   27.8239 C   0  0  0  0  0  0  0  0  0  0  0  0
    0.9922   -9.3232   16.5995 O   0  0  0  0  0  0  0  0  0  0  0  0
    1.5232   -7.6869   27.1182 C   0  0  0  0  0  0  0  0  0  0  0  0
    8.6878   -6.6715   27.7262 N   0  0  0  0  0  0  0  0  0  0  0  0
    6.9911   -8.2423   27.1808 C   0  0  0  0  0  0  0  0  0  0  0  0
    3.8436   -7.2758   16.0578 C   0  0  0  0  0  0  0  0  0  0  0  0
    3.1882   -9.7190   17.2566 C   0  0  0  0  0  0  0  0  0  0  0  0
    5.3488   -6.1737   26.5092 C   0  0  0  0  0  0  0  0  0  0  0  0
    7.4567   -6.9464   27.2858 C   0  0  0  0  0  0  0  0  0  0  0  0
    0.1921   -5.7592   27.1123 C   0  0  0  0  0  0  0  0  0  0  0  0
    3.5517   -7.7407   25.9711 C   0  0  0  0  0  0  0  0  0  0  0  0
  1  4  4  0
  1 22  4  0
  2 20  4  0
  2 27  4  0
  3 12  4  0
  3 23  4  0
  4 25  4  0
  4 28  1  0
  5  8  4  0
  5 17  4  0
  6  7  4  0
  6 16  4  0
  7 18  4  0
  8 27  4  0
  9 13  4  0
  9 23  4  0
 10 11  1  0
 11 14  2  0
 11 27  1  0
 12 19  1  0
 12 24  4  0
 13 24  4  0
 15 18  1  0
 16 25  4  0
 16 26  4  0
 17 20  4  0
 17 28  1  0
 18 21  4  0
 21 26  4  0
 22 26  4  0
M  END
$$$$

 Created by Python create_sdf_string function

 28 30  0  0  0  0  0  0  0  0999 V2000
    5.7174   -8.4529   26.7190 C   0  0  0  0  0  0  0  0  0  0  0  0
    0.3974   -7.0711   27.5149 C   0  0  0  0  0  0  0  0  0  0  0  0
    2.5338   -7.6891   16.0102 C   0  0  0  0  0  0  0  0  0  0  0  0
    4.8690   -7.4380   26.4151 C   0  0  0  0  0  0  0  0  0  0  0  0
    2.3021   -5.6726   26.0378 C   0  0  0  0  0  0  0  0  0  0  0  0
    7.0880   -4.6163   27.0010 C   0  0  0  0  0  0  0  0  0  0  0  0
    8.3117   -4.3698   27.4436 C   0  0  0  0  0  0  0  0  0  0  0  0
    1.1339   -5.0515   26.3541 C   0  0  0  0  0  0  0  0  0  0  0  0
    4.8080   -8.0362   16.7101 C   0  0  0  0  0  0  0  0  0  0  0  0
   -1.2173   -3.9294   26.9717 O   0  0  0  0  0  0  0  0  0  0  0  0
   -1.0025   -5.0942   27.4586 C   0  0  0  0  0  0  0  0  0  0  0  0
    2.2474   -8.9123   16.6273 C   0  0  0  0  0  0  0  0  0  0  0  0
    4.4957   -9.2636   17.3041 C   0  0  0  0  0  0  0  0  0  0  0  0
   -1.8070   -5.6086   28.1920 O   0  0  0  0  0  0  0  0  0  0  0  0
   10.4296   -5.1799   28.3140 C   0  0  0  0  0  0  0  0  0  0  0  0
    6.6017   -5.9004   26.9187 C   0  0  0  0  0  0  0  0  0  0  0  0
    2.4761   -6.9940   26.4111 N   0  0  0  0  0  0  0  0  0  0  0  0
    9.1353   -5.4053   27.8239 C   0  0  0  0  0  0  0  0  0  0  0  0
    0.9922   -9.3232   16.5995 O   0  0  0  0  0  0  0  0  0  0  0  0
    1.5232   -7.6869   27.1182 C   0  0  0  0  0  0  0  0  0  0  0  0
    8.6878   -6.6715   27.7262 N   0  0  0  0  0  0  0  0  0  0  0  0
    6.9911   -8.2423   27.1808 C   0  0  0  0  0  0  0  0  0  0  0  0
    3.8436   -7.2758   16.0578 C   0  0  0  0  0  0  0  0  0  0  0  0
    3.1882   -9.7190   17.2566 C   0  0  0  0  0  0  0  0  0  0  0  0
    5.3488   -6.1737   26.5092 C   0  0  0  0  0  0  0  0  0  0  0  0
    7.4567   -6.9464   27.2858 C   0  0  0  0  0  0  0  0  0  0  0  0
    0.1921   -5.7592   27.1123 C   0  0  0  0  0  0  0  0  0  0  0  0
    3.5517   -7.7407   25.9711 C   0  0  0  0  0  0  0  0  0  0  0  0
  1  4  4  0
  1 22  4  0
  2 20  4  0
  2 27  4  0
  3 12  4  0
  3 23  4  0
  4 25  4  0
  4 28  1  0
  5  8  4  0
  5 17  4  0
  6  7  4  0
  6 16  4  0
  7 18  4  0
  8 27  4  0
  9 13  4  0
  9 23  4  0
 10 11  1  0
 11 14  2  0
 11 27  1  0
 12 19  1  0
 12 24  4  0
 13 24  4  0
 15 18  1  0
 16 25  4  0
 16 26  4  0
 17 20  4  0
 17 28  1  0
 18 21  4  0
 21 26  4  0
 22 26  4  0
M  END
$$$$

 Created by Python create_sdf_string function

 28 30  0  0  0  0  0  0  0  0999 V2000
    5.7174   -8.4529   26.7190 C   0  0  0  0  0  0  0  0  0  0  0  0
    0.3974   -7.0711   27.5149 C   0  0  0  0  0  0  0  0  0  0  0  0
    2.5338   -7.6891   16.0102 C   0  0  0  0  0  0  0  0  0  0  0  0
    4.8690   -7.4380   26.4151 C   0  0  0  0  0  0  0  0  0  0  0  0
    2.3021   -5.6726   26.0378 C   0  0  0  0  0  0  0  0  0  0  0  0
    7.0880   -4.6163   27.0010 C   0  0  0  0  0  0  0  0  0  0  0  0
    8.3117   -4.3698   27.4436 C   0  0  0  0  0  0  0  0  0  0  0  0
    1.1339   -5.0515   26.3541 C   0  0  0  0  0  0  0  0  0  0  0  0
    4.8080   -8.0362   16.7101 C   0  0  0  0  0  0  0  0  0  0  0  0
   -1.2173   -3.9294   26.9717 O   0  0  0  0  0  0  0  0  0  0  0  0
   -1.0025   -5.0942   27.4586 C   0  0  0  0  0  0  0  0  0  0  0  0
    2.2474   -8.9123   16.6273 C   0  0  0  0  0  0  0  0  0  0  0  0
    4.4957   -9.2636   17.3041 C   0  0  0  0  0  0  0  0  0  0  0  0
   -1.8070   -5.6086   28.1920 O   0  0  0  0  0  0  0  0  0  0  0  0
   10.4296   -5.1799   28.3140 C   0  0  0  0  0  0  0  0  0  0  0  0
    6.6017   -5.9004   26.9187 C   0  0  0  0  0  0  0  0  0  0  0  0
    2.4761   -6.9940   26.4111 N   0  0  0  0  0  0  0  0  0  0  0  0
    9.1353   -5.4053   27.8239 C   0  0  0  0  0  0  0  0  0  0  0  0
    0.9922   -9.3232   16.5995 O   0  0  0  0  0  0  0  0  0  0  0  0
    1.5232   -7.6869   27.1182 C   0  0  0  0  0  0  0  0  0  0  0  0
    8.6878   -6.6715   27.7262 N   0  0  0  0  0  0  0  0  0  0  0  0
    6.9911   -8.2423   27.1808 C   0  0  0  0  0  0  0  0  0  0  0  0
    3.8436   -7.2758   16.0578 C   0  0  0  0  0  0  0  0  0  0  0  0
    3.1882   -9.7190   17.2566 C   0  0  0  0  0  0  0  0  0  0  0  0
    5.3488   -6.1737   26.5092 C   0  0  0  0  0  0  0  0  0  0  0  0
    7.4567   -6.9464   27.2858 C   0  0  0  0  0  0  0  0  0  0  0  0
    0.1921   -5.7592   27.1123 C   0  0  0  0  0  0  0  0  0  0  0  0
    3.5517   -7.7407   25.9711 C   0  0  0  0  0  0  0  0  0  0  0  0
  1  4  4  0
  1 22  4  0
  2 20  4  0
  2 27  4  0
  3 12  4  0
  3 23  4  0
  4 25  4  0
  4 28  1  0
  5  8  4  0
  5 17  4  0
  6  7  4  0
  6 16  4  0
  7 18  4  0
  8 27  4  0
  9 13  4  0
  9 23  4  0
 10 11  1  0
 11 14  2  0
 11 27  1  0
 12 19  1  0
 12 24  4  0
 13 24  4  0
 15 18  1  0
 16 25  4  0
 16 26  4  0
 17 20  4  0
 17 28  1  0
 18 21  4  0
 21 26  4  0
 22 26  4  0
M  END
$$$$

 Created by Python create_sdf_string function

 28 30  0  0  0  0  0  0  0  0999 V2000
    5.7174   -8.4529   26.7190 C   0  0  0  0  0  0  0  0  0  0  0  0
    0.3974   -7.0711   27.5149 C   0  0  0  0  0  0  0  0  0  0  0  0
    2.5338   -7.6891   16.0102 C   0  0  0  0  0  0  0  0  0  0  0  0
    4.8690   -7.4380   26.4151 C   0  0  0  0  0  0  0  0  0  0  0  0
    2.3021   -5.6726   26.0378 C   0  0  0  0  0  0  0  0  0  0  0  0
    7.0880   -4.6163   27.0010 C   0  0  0  0  0  0  0  0  0  0  0  0
    8.3117   -4.3698   27.4436 C   0  0  0  0  0  0  0  0  0  0  0  0
    1.1339   -5.0515   26.3541 C   0  0  0  0  0  0  0  0  0  0  0  0
    4.8080   -8.0362   16.7101 C   0  0  0  0  0  0  0  0  0  0  0  0
   -1.2173   -3.9294   26.9717 O   0  0  0  0  0  0  0  0  0  0  0  0
   -1.0025   -5.0942   27.4586 C   0  0  0  0  0  0  0  0  0  0  0  0
    2.2474   -8.9123   16.6273 C   0  0  0  0  0  0  0  0  0  0  0  0
    4.4957   -9.2636   17.3041 C   0  0  0  0  0  0  0  0  0  0  0  0
   -1.8070   -5.6086   28.1920 O   0  0  0  0  0  0  0  0  0  0  0  0
   10.4296   -5.1799   28.3140 C   0  0  0  0  0  0  0  0  0  0  0  0
    6.6017   -5.9004   26.9187 C   0  0  0  0  0  0  0  0  0  0  0  0
    2.4761   -6.9940   26.4111 N   0  0  0  0  0  0  0  0  0  0  0  0
    9.1353   -5.4053   27.8239 C   0  0  0  0  0  0  0  0  0  0  0  0
    0.9922   -9.3232   16.5995 O   0  0  0  0  0  0  0  0  0  0  0  0
    1.5232   -7.6869   27.1182 C   0  0  0  0  0  0  0  0  0  0  0  0
    8.6878   -6.6715   27.7262 N   0  0  0  0  0  0  0  0  0  0  0  0
    6.9911   -8.2423   27.1808 C   0  0  0  0  0  0  0  0  0  0  0  0
    3.8436   -7.2758   16.0578 C   0  0  0  0  0  0  0  0  0  0  0  0
    3.1882   -9.7190   17.2566 C   0  0  0  0  0  0  0  0  0  0  0  0
    5.3488   -6.1737   26.5092 C   0  0  0  0  0  0  0  0  0  0  0  0
    7.4567   -6.9464   27.2858 C   0  0  0  0  0  0  0  0  0  0  0  0
    0.1921   -5.7592   27.1123 C   0  0  0  0  0  0  0  0  0  0  0  0
    3.5517   -7.7407   25.9711 C   0  0  0  0  0  0  0  0  0  0  0  0
  1  4  4  0
  1 22  4  0
  2 20  4  0
  2 27  4  0
  3 12  4  0
  3 23  4  0
  4 25  4  0
  4 28  1  0
  5  8  4  0
  5 17  4  0
  6  7  4  0
  6 16  4  0
  7 18  4  0
  8 27  4  0
  9 13  4  0
  9 23  4  0
 10 11  1  0
 11 14  2  0
 11 27  1  0
 12 19  1  0
 12 24  4  0
 13 24  4  0
 15 18  1  0
 16 25  4  0
 16 26  4  0
 17 20  4  0
 17 28  1  0
 18 21  4  0
 21 26  4  0
 22 26  4  0
M  END
$$$$

 Created by Python create_sdf_string function

 28 30  0  0  0  0  0  0  0  0999 V2000
    5.7174   -8.4529   26.7190 C   0  0  0  0  0  0  0  0  0  0  0  0
    0.3974   -7.0711   27.5149 C   0  0  0  0  0  0  0  0  0  0  0  0
    2.5338   -7.6891   16.0102 C   0  0  0  0  0  0  0  0  0  0  0  0
    4.8690   -7.4380   26.4151 C   0  0  0  0  0  0  0  0  0  0  0  0
    2.3021   -5.6726   26.0378 C   0  0  0  0  0  0  0  0  0  0  0  0
    7.0880   -4.6163   27.0010 C   0  0  0  0  0  0  0  0  0  0  0  0
    8.3117   -4.3698   27.4436 C   0  0  0  0  0  0  0  0  0  0  0  0
    1.1339   -5.0515   26.3541 C   0  0  0  0  0  0  0  0  0  0  0  0
    4.8080   -8.0362   16.7101 C   0  0  0  0  0  0  0  0  0  0  0  0
   -1.2173   -3.9294   26.9717 O   0  0  0  0  0  0  0  0  0  0  0  0
   -1.0025   -5.0942   27.4586 C   0  0  0  0  0  0  0  0  0  0  0  0
    2.2474   -8.9123   16.6273 C   0  0  0  0  0  0  0  0  0  0  0  0
    4.4957   -9.2636   17.3041 C   0  0  0  0  0  0  0  0  0  0  0  0
   -1.8070   -5.6086   28.1920 O   0  0  0  0  0  0  0  0  0  0  0  0
   10.4296   -5.1799   28.3140 C   0  0  0  0  0  0  0  0  0  0  0  0
    6.6017   -5.9004   26.9187 C   0  0  0  0  0  0  0  0  0  0  0  0
    2.4761   -6.9940   26.4111 N   0  0  0  0  0  0  0  0  0  0  0  0
    9.1353   -5.4053   27.8239 C   0  0  0  0  0  0  0  0  0  0  0  0
    0.9922   -9.3232   16.5995 O   0  0  0  0  0  0  0  0  0  0  0  0
    1.5232   -7.6869   27.1182 C   0  0  0  0  0  0  0  0  0  0  0  0
    8.6878   -6.6715   27.7262 N   0  0  0  0  0  0  0  0  0  0  0  0
    6.9911   -8.2423   27.1808 C   0  0  0  0  0  0  0  0  0  0  0  0
    3.8436   -7.2758   16.0578 C   0  0  0  0  0  0  0  0  0  0  0  0
    3.1882   -9.7190   17.2566 C   0  0  0  0  0  0  0  0  0  0  0  0
    5.3488   -6.1737   26.5092 C   0  0  0  0  0  0  0  0  0  0  0  0
    7.4567   -6.9464   27.2858 C   0  0  0  0  0  0  0  0  0  0  0  0
    0.1921   -5.7592   27.1123 C   0  0  0  0  0  0  0  0  0  0  0  0
    3.5517   -7.7407   25.9711 C   0  0  0  0  0  0  0  0  0  0  0  0
  1  4  4  0
  1 22  4  0
  2 20  4  0
  2 27  4  0
  3 12  4  0
  3 23  4  0
  4 25  4  0
  4 28  1  0
  5  8  4  0
  5 17  4  0
  6  7  4  0
  6 16  4  0
  7 18  4  0
  8 27  4  0
  9 13  4  0
  9 23  4  0
 10 11  1  0
 11 14  2  0
 11 27  1  0
 12 19  1  0
 12 24  4  0
 13 24  4  0
 15 18  1  0
 16 25  4  0
 16 26  4  0
 17 20  4  0
 17 28  1  0
 18 21  4  0
 21 26  4  0
 22 26  4  0
M  END
$$$$

 Created by Python create_sdf_string function

 28 30  0  0  0  0  0  0  0  0999 V2000
    5.7174   -8.4529   26.7190 C   0  0  0  0  0  0  0  0  0  0  0  0
    0.3974   -7.0711   27.5149 C   0  0  0  0  0  0  0  0  0  0  0  0
    2.5338   -7.6891   16.0102 C   0  0  0  0  0  0  0  0  0  0  0  0
    4.8690   -7.4380   26.4151 C   0  0  0  0  0  0  0  0  0  0  0  0
    2.3021   -5.6726   26.0378 C   0  0  0  0  0  0  0  0  0  0  0  0
    7.0880   -4.6163   27.0010 C   0  0  0  0  0  0  0  0  0  0  0  0
    8.3117   -4.3698   27.4436 C   0  0  0  0  0  0  0  0  0  0  0  0
    1.1339   -5.0515   26.3541 C   0  0  0  0  0  0  0  0  0  0  0  0
    4.8080   -8.0362   16.7101 C   0  0  0  0  0  0  0  0  0  0  0  0
   -1.2173   -3.9294   26.9717 O   0  0  0  0  0  0  0  0  0  0  0  0
   -1.0025   -5.0942   27.4586 C   0  0  0  0  0  0  0  0  0  0  0  0
    2.2474   -8.9123   16.6273 C   0  0  0  0  0  0  0  0  0  0  0  0
    4.4957   -9.2636   17.3041 C   0  0  0  0  0  0  0  0  0  0  0  0
   -1.8070   -5.6086   28.1920 O   0  0  0  0  0  0  0  0  0  0  0  0
   10.4296   -5.1799   28.3140 C   0  0  0  0  0  0  0  0  0  0  0  0
    6.6017   -5.9004   26.9187 C   0  0  0  0  0  0  0  0  0  0  0  0
    2.4761   -6.9940   26.4111 N   0  0  0  0  0  0  0  0  0  0  0  0
    9.1353   -5.4053   27.8239 C   0  0  0  0  0  0  0  0  0  0  0  0
    0.9922   -9.3232   16.5995 O   0  0  0  0  0  0  0  0  0  0  0  0
    1.5232   -7.6869   27.1182 C   0  0  0  0  0  0  0  0  0  0  0  0
    8.6878   -6.6715   27.7262 N   0  0  0  0  0  0  0  0  0  0  0  0
    6.9911   -8.2423   27.1808 C   0  0  0  0  0  0  0  0  0  0  0  0
    3.8436   -7.2758   16.0578 C   0  0  0  0  0  0  0  0  0  0  0  0
    3.1882   -9.7190   17.2566 C   0  0  0  0  0  0  0  0  0  0  0  0
    5.3488   -6.1737   26.5092 C   0  0  0  0  0  0  0  0  0  0  0  0
    7.4567   -6.9464   27.2858 C   0  0  0  0  0  0  0  0  0  0  0  0
    0.1921   -5.7592   27.1123 C   0  0  0  0  0  0  0  0  0  0  0  0
    3.5517   -7.7407   25.9711 C   0  0  0  0  0  0  0  0  0  0  0  0
  1  4  4  0
  1 22  4  0
  2 20  4  0
  2 27  4  0
  3 12  4  0
  3 23  4  0
  4 25  4  0
  4 28  1  0
  5  8  4  0
  5 17  4  0
  6  7  4  0
  6 16  4  0
  7 18  4  0
  8 27  4  0
  9 13  4  0
  9 23  4  0
 10 11  1  0
 11 14  2  0
 11 27  1  0
 12 19  1  0
 12 24  4  0
 13 24  4  0
 15 18  1  0
 16 25  4  0
 16 26  4  0
 17 20  4  0
 17 28  1  0
 18 21  4  0
 21 26  4  0
 22 26  4  0
M  END
$$$$

 Created by Python create_sdf_string function

 28 30  0  0  0  0  0  0  0  0999 V2000
    5.7174   -8.4529   26.7190 C   0  0  0  0  0  0  0  0  0  0  0  0
    0.3974   -7.0711   27.5149 C   0  0  0  0  0  0  0  0  0  0  0  0
    2.5338   -7.6891   16.0102 C   0  0  0  0  0  0  0  0  0  0  0  0
    4.8690   -7.4380   26.4151 C   0  0  0  0  0  0  0  0  0  0  0  0
    2.3021   -5.6726   26.0378 C   0  0  0  0  0  0  0  0  0  0  0  0
    7.0880   -4.6163   27.0010 C   0  0  0  0  0  0  0  0  0  0  0  0
    8.3117   -4.3698   27.4436 C   0  0  0  0  0  0  0  0  0  0  0  0
    1.1339   -5.0515   26.3541 C   0  0  0  0  0  0  0  0  0  0  0  0
    4.8080   -8.0362   16.7101 C   0  0  0  0  0  0  0  0  0  0  0  0
   -1.2173   -3.9294   26.9717 O   0  0  0  0  0  0  0  0  0  0  0  0
   -1.0025   -5.0942   27.4586 C   0  0  0  0  0  0  0  0  0  0  0  0
    2.2474   -8.9123   16.6273 C   0  0  0  0  0  0  0  0  0  0  0  0
    4.4957   -9.2636   17.3041 C   0  0  0  0  0  0  0  0  0  0  0  0
   -1.8070   -5.6086   28.1920 O   0  0  0  0  0  0  0  0  0  0  0  0
   10.4296   -5.1799   28.3140 C   0  0  0  0  0  0  0  0  0  0  0  0
    6.6017   -5.9004   26.9187 C   0  0  0  0  0  0  0  0  0  0  0  0
    2.4761   -6.9940   26.4111 N   0  0  0  0  0  0  0  0  0  0  0  0
    9.1353   -5.4053   27.8239 C   0  0  0  0  0  0  0  0  0  0  0  0
    0.9922   -9.3232   16.5995 O   0  0  0  0  0  0  0  0  0  0  0  0
    1.5232   -7.6869   27.1182 C   0  0  0  0  0  0  0  0  0  0  0  0
    8.6878   -6.6715   27.7262 N   0  0  0  0  0  0  0  0  0  0  0  0
    6.9911   -8.2423   27.1808 C   0  0  0  0  0  0  0  0  0  0  0  0
    3.8436   -7.2758   16.0578 C   0  0  0  0  0  0  0  0  0  0  0  0
    3.1882   -9.7190   17.2566 C   0  0  0  0  0  0  0  0  0  0  0  0
    5.3488   -6.1737   26.5092 C   0  0  0  0  0  0  0  0  0  0  0  0
    7.4567   -6.9464   27.2858 C   0  0  0  0  0  0  0  0  0  0  0  0
    0.1921   -5.7592   27.1123 C   0  0  0  0  0  0  0  0  0  0  0  0
    3.5517   -7.7407   25.9711 C   0  0  0  0  0  0  0  0  0  0  0  0
  1  4  4  0
  1 22  4  0
  2 20  4  0
  2 27  4  0
  3 12  4  0
  3 23  4  0
  4 25  4  0
  4 28  1  0
  5  8  4  0
  5 17  4  0
  6  7  4  0
  6 16  4  0
  7 18  4  0
  8 27  4  0
  9 13  4  0
  9 23  4  0
 10 11  1  0
 11 14  2  0
 11 27  1  0
 12 19  1  0
 12 24  4  0
 13 24  4  0
 15 18  1  0
 16 25  4  0
 16 26  4  0
 17 20  4  0
 17 28  1  0
 18 21  4  0
 21 26  4  0
 22 26  4  0
M  END
$$$$

 Created by Python create_sdf_string function

 28 30  0  0  0  0  0  0  0  0999 V2000
    5.7174   -8.4529   26.7190 C   0  0  0  0  0  0  0  0  0  0  0  0
    0.3974   -7.0711   27.5149 C   0  0  0  0  0  0  0  0  0  0  0  0
    2.5338   -7.6891   16.0102 C   0  0  0  0  0  0  0  0  0  0  0  0
    4.8690   -7.4380   26.4151 C   0  0  0  0  0  0  0  0  0  0  0  0
    2.3021   -5.6726   26.0378 C   0  0  0  0  0  0  0  0  0  0  0  0
    7.0880   -4.6163   27.0010 C   0  0  0  0  0  0  0  0  0  0  0  0
    8.3117   -4.3698   27.4436 C   0  0  0  0  0  0  0  0  0  0  0  0
    1.1339   -5.0515   26.3541 C   0  0  0  0  0  0  0  0  0  0  0  0
    4.8080   -8.0362   16.7101 C   0  0  0  0  0  0  0  0  0  0  0  0
   -1.2173   -3.9294   26.9717 O   0  0  0  0  0  0  0  0  0  0  0  0
   -1.0025   -5.0942   27.4586 C   0  0  0  0  0  0  0  0  0  0  0  0
    2.2474   -8.9123   16.6273 C   0  0  0  0  0  0  0  0  0  0  0  0
    4.4957   -9.2636   17.3041 C   0  0  0  0  0  0  0  0  0  0  0  0
   -1.8070   -5.6086   28.1920 O   0  0  0  0  0  0  0  0  0  0  0  0
   10.4296   -5.1799   28.3140 C   0  0  0  0  0  0  0  0  0  0  0  0
    6.6017   -5.9004   26.9187 C   0  0  0  0  0  0  0  0  0  0  0  0
    2.4761   -6.9940   26.4111 N   0  0  0  0  0  0  0  0  0  0  0  0
    9.1353   -5.4053   27.8239 C   0  0  0  0  0  0  0  0  0  0  0  0
    0.9922   -9.3232   16.5995 O   0  0  0  0  0  0  0  0  0  0  0  0
    1.5232   -7.6869   27.1182 C   0  0  0  0  0  0  0  0  0  0  0  0
    8.6878   -6.6715   27.7262 N   0  0  0  0  0  0  0  0  0  0  0  0
    6.9911   -8.2423   27.1808 C   0  0  0  0  0  0  0  0  0  0  0  0
    3.8436   -7.2758   16.0578 C   0  0  0  0  0  0  0  0  0  0  0  0
    3.1882   -9.7190   17.2566 C   0  0  0  0  0  0  0  0  0  0  0  0
    5.3488   -6.1737   26.5092 C   0  0  0  0  0  0  0  0  0  0  0  0
    7.4567   -6.9464   27.2858 C   0  0  0  0  0  0  0  0  0  0  0  0
    0.1921   -5.7592   27.1123 C   0  0  0  0  0  0  0  0  0  0  0  0
    3.5517   -7.7407   25.9711 C   0  0  0  0  0  0  0  0  0  0  0  0
  1  4  4  0
  1 22  4  0
  2 20  4  0
  2 27  4  0
  3 12  4  0
  3 23  4  0
  4 25  4  0
  4 28  1  0
  5  8  4  0
  5 17  4  0
  6  7  4  0
  6 16  4  0
  7 18  4  0
  8 27  4  0
  9 13  4  0
  9 23  4  0
 10 11  1  0
 11 14  2  0
 11 27  1  0
 12 19  1  0
 12 24  4  0
 13 24  4  0
 15 18  1  0
 16 25  4  0
 16 26  4  0
 17 20  4  0
 17 28  1  0
 18 21  4  0
 21 26  4  0
 22 26  4  0
M  END
$$$$

 Created by Python create_sdf_string function

 28 30  0  0  0  0  0  0  0  0999 V2000
    5.7174   -8.4529   26.7190 C   0  0  0  0  0  0  0  0  0  0  0  0
    0.3974   -7.0711   27.5149 C   0  0  0  0  0  0  0  0  0  0  0  0
    2.5338   -7.6891   16.0102 C   0  0  0  0  0  0  0  0  0  0  0  0
    4.8690   -7.4380   26.4151 C   0  0  0  0  0  0  0  0  0  0  0  0
    2.3021   -5.6726   26.0378 C   0  0  0  0  0  0  0  0  0  0  0  0
    7.0880   -4.6163   27.0010 C   0  0  0  0  0  0  0  0  0  0  0  0
    8.3117   -4.3698   27.4436 C   0  0  0  0  0  0  0  0  0  0  0  0
    1.1339   -5.0515   26.3541 C   0  0  0  0  0  0  0  0  0  0  0  0
    4.8080   -8.0362   16.7101 C   0  0  0  0  0  0  0  0  0  0  0  0
   -1.2173   -3.9294   26.9717 O   0  0  0  0  0  0  0  0  0  0  0  0
   -1.0025   -5.0942   27.4586 C   0  0  0  0  0  0  0  0  0  0  0  0
    2.2474   -8.9123   16.6273 C   0  0  0  0  0  0  0  0  0  0  0  0
    4.4957   -9.2636   17.3041 C   0  0  0  0  0  0  0  0  0  0  0  0
   -1.8070   -5.6086   28.1920 O   0  0  0  0  0  0  0  0  0  0  0  0
   10.4296   -5.1799   28.3140 C   0  0  0  0  0  0  0  0  0  0  0  0
    6.6017   -5.9004   26.9187 C   0  0  0  0  0  0  0  0  0  0  0  0
    2.4761   -6.9940   26.4111 N   0  0  0  0  0  0  0  0  0  0  0  0
    9.1353   -5.4053   27.8239 C   0  0  0  0  0  0  0  0  0  0  0  0
    0.9922   -9.3232   16.5995 O   0  0  0  0  0  0  0  0  0  0  0  0
    1.5232   -7.6869   27.1182 C   0  0  0  0  0  0  0  0  0  0  0  0
    8.6878   -6.6715   27.7262 N   0  0  0  0  0  0  0  0  0  0  0  0
    6.9911   -8.2423   27.1808 C   0  0  0  0  0  0  0  0  0  0  0  0
    3.8436   -7.2758   16.0578 C   0  0  0  0  0  0  0  0  0  0  0  0
    3.1882   -9.7190   17.2566 C   0  0  0  0  0  0  0  0  0  0  0  0
    5.3488   -6.1737   26.5092 C   0  0  0  0  0  0  0  0  0  0  0  0
    7.4567   -6.9464   27.2858 C   0  0  0  0  0  0  0  0  0  0  0  0
    0.1921   -5.7592   27.1123 C   0  0  0  0  0  0  0  0  0  0  0  0
    3.5517   -7.7407   25.9711 C   0  0  0  0  0  0  0  0  0  0  0  0
  1  4  4  0
  1 22  4  0
  2 20  4  0
  2 27  4  0
  3 12  4  0
  3 23  4  0
  4 25  4  0
  4 28  1  0
  5  8  4  0
  5 17  4  0
  6  7  4  0
  6 16  4  0
  7 18  4  0
  8 27  4  0
  9 13  4  0
  9 23  4  0
 10 11  1  0
 11 14  2  0
 11 27  1  0
 12 19  1  0
 12 24  4  0
 13 24  4  0
 15 18  1  0
 16 25  4  0
 16 26  4  0
 17 20  4  0
 17 28  1  0
 18 21  4  0
 21 26  4  0
 22 26  4  0
M  END
$$$$

 Created by Python create_sdf_string function

 28 30  0  0  0  0  0  0  0  0999 V2000
    5.7174   -8.4529   26.7190 C   0  0  0  0  0  0  0  0  0  0  0  0
    0.3974   -7.0711   27.5149 C   0  0  0  0  0  0  0  0  0  0  0  0
    2.5338   -7.6891   16.0102 C   0  0  0  0  0  0  0  0  0  0  0  0
    4.8690   -7.4380   26.4151 C   0  0  0  0  0  0  0  0  0  0  0  0
    2.3021   -5.6726   26.0378 C   0  0  0  0  0  0  0  0  0  0  0  0
    7.0880   -4.6163   27.0010 C   0  0  0  0  0  0  0  0  0  0  0  0
    8.3117   -4.3698   27.4436 C   0  0  0  0  0  0  0  0  0  0  0  0
    1.1339   -5.0515   26.3541 C   0  0  0  0  0  0  0  0  0  0  0  0
    4.8080   -8.0362   16.7101 C   0  0  0  0  0  0  0  0  0  0  0  0
   -1.2173   -3.9294   26.9717 O   0  0  0  0  0  0  0  0  0  0  0  0
   -1.0025   -5.0942   27.4586 C   0  0  0  0  0  0  0  0  0  0  0  0
    2.2474   -8.9123   16.6273 C   0  0  0  0  0  0  0  0  0  0  0  0
    4.4957   -9.2636   17.3041 C   0  0  0  0  0  0  0  0  0  0  0  0
   -1.8070   -5.6086   28.1920 O   0  0  0  0  0  0  0  0  0  0  0  0
   10.4296   -5.1799   28.3140 C   0  0  0  0  0  0  0  0  0  0  0  0
    6.6017   -5.9004   26.9187 C   0  0  0  0  0  0  0  0  0  0  0  0
    2.4761   -6.9940   26.4111 N   0  0  0  0  0  0  0  0  0  0  0  0
    9.1353   -5.4053   27.8239 C   0  0  0  0  0  0  0  0  0  0  0  0
    0.9922   -9.3232   16.5995 O   0  0  0  0  0  0  0  0  0  0  0  0
    1.5232   -7.6869   27.1182 C   0  0  0  0  0  0  0  0  0  0  0  0
    8.6878   -6.6715   27.7262 N   0  0  0  0  0  0  0  0  0  0  0  0
    6.9911   -8.2423   27.1808 C   0  0  0  0  0  0  0  0  0  0  0  0
    3.8436   -7.2758   16.0578 C   0  0  0  0  0  0  0  0  0  0  0  0
    3.1882   -9.7190   17.2566 C   0  0  0  0  0  0  0  0  0  0  0  0
    5.3488   -6.1737   26.5092 C   0  0  0  0  0  0  0  0  0  0  0  0
    7.4567   -6.9464   27.2858 C   0  0  0  0  0  0  0  0  0  0  0  0
    0.1921   -5.7592   27.1123 C   0  0  0  0  0  0  0  0  0  0  0  0
    3.5517   -7.7407   25.9711 C   0  0  0  0  0  0  0  0  0  0  0  0
  1  4  4  0
  1 22  4  0
  2 20  4  0
  2 27  4  0
  3 12  4  0
  3 23  4  0
  4 25  4  0
  4 28  1  0
  5  8  4  0
  5 17  4  0
  6  7  4  0
  6 16  4  0
  7 18  4  0
  8 27  4  0
  9 13  4  0
  9 23  4  0
 10 11  1  0
 11 14  2  0
 11 27  1  0
 12 19  1  0
 12 24  4  0
 13 24  4  0
 15 18  1  0
 16 25  4  0
 16 26  4  0
 17 20  4  0
 17 28  1  0
 18 21  4  0
 21 26  4  0
 22 26  4  0
M  END
$$$$

 Created by Python create_sdf_string function

 28 30  0  0  0  0  0  0  0  0999 V2000
    5.7174   -8.4529   26.7190 C   0  0  0  0  0  0  0  0  0  0  0  0
    0.3974   -7.0711   27.5149 C   0  0  0  0  0  0  0  0  0  0  0  0
    2.5338   -7.6891   16.0102 C   0  0  0  0  0  0  0  0  0  0  0  0
    4.8690   -7.4380   26.4151 C   0  0  0  0  0  0  0  0  0  0  0  0
    2.3021   -5.6726   26.0378 C   0  0  0  0  0  0  0  0  0  0  0  0
    7.0880   -4.6163   27.0010 C   0  0  0  0  0  0  0  0  0  0  0  0
    8.3117   -4.3698   27.4436 C   0  0  0  0  0  0  0  0  0  0  0  0
    1.1339   -5.0515   26.3541 C   0  0  0  0  0  0  0  0  0  0  0  0
    4.8080   -8.0362   16.7101 C   0  0  0  0  0  0  0  0  0  0  0  0
   -1.2173   -3.9294   26.9717 O   0  0  0  0  0  0  0  0  0  0  0  0
   -1.0025   -5.0942   27.4586 C   0  0  0  0  0  0  0  0  0  0  0  0
    2.2474   -8.9123   16.6273 C   0  0  0  0  0  0  0  0  0  0  0  0
    4.4957   -9.2636   17.3041 C   0  0  0  0  0  0  0  0  0  0  0  0
   -1.8070   -5.6086   28.1920 O   0  0  0  0  0  0  0  0  0  0  0  0
   10.4296   -5.1799   28.3140 C   0  0  0  0  0  0  0  0  0  0  0  0
    6.6017   -5.9004   26.9187 C   0  0  0  0  0  0  0  0  0  0  0  0
    2.4761   -6.9940   26.4111 N   0  0  0  0  0  0  0  0  0  0  0  0
    9.1353   -5.4053   27.8239 C   0  0  0  0  0  0  0  0  0  0  0  0
    0.9922   -9.3232   16.5995 O   0  0  0  0  0  0  0  0  0  0  0  0
    1.5232   -7.6869   27.1182 C   0  0  0  0  0  0  0  0  0  0  0  0
    8.6878   -6.6715   27.7262 N   0  0  0  0  0  0  0  0  0  0  0  0
    6.9911   -8.2423   27.1808 C   0  0  0  0  0  0  0  0  0  0  0  0
    3.8436   -7.2758   16.0578 C   0  0  0  0  0  0  0  0  0  0  0  0
    3.1882   -9.7190   17.2566 C   0  0  0  0  0  0  0  0  0  0  0  0
    5.3488   -6.1737   26.5092 C   0  0  0  0  0  0  0  0  0  0  0  0
    7.4567   -6.9464   27.2858 C   0  0  0  0  0  0  0  0  0  0  0  0
    0.1921   -5.7592   27.1123 C   0  0  0  0  0  0  0  0  0  0  0  0
    3.5517   -7.7407   25.9711 C   0  0  0  0  0  0  0  0  0  0  0  0
  1  4  4  0
  1 22  4  0
  2 20  4  0
  2 27  4  0
  3 12  4  0
  3 23  4  0
  4 25  4  0
  4 28  1  0
  5  8  4  0
  5 17  4  0
  6  7  4  0
  6 16  4  0
  7 18  4  0
  8 27  4  0
  9 13  4  0
  9 23  4  0
 10 11  1  0
 11 14  2  0
 11 27  1  0
 12 19  1  0
 12 24  4  0
 13 24  4  0
 15 18  1  0
 16 25  4  0
 16 26  4  0
 17 20  4  0
 17 28  1  0
 18 21  4  0
 21 26  4  0
 22 26  4  0
M  END
$$$$

 Created by Python create_sdf_string function

 28 30  0  0  0  0  0  0  0  0999 V2000
    5.7174   -8.4529   26.7190 C   0  0  0  0  0  0  0  0  0  0  0  0
    0.3974   -7.0711   27.5149 C   0  0  0  0  0  0  0  0  0  0  0  0
    2.5338   -7.6891   16.0102 C   0  0  0  0  0  0  0  0  0  0  0  0
    4.8690   -7.4380   26.4151 C   0  0  0  0  0  0  0  0  0  0  0  0
    2.3021   -5.6726   26.0378 C   0  0  0  0  0  0  0  0  0  0  0  0
    7.0880   -4.6163   27.0010 C   0  0  0  0  0  0  0  0  0  0  0  0
    8.3117   -4.3698   27.4436 C   0  0  0  0  0  0  0  0  0  0  0  0
    1.1339   -5.0515   26.3541 C   0  0  0  0  0  0  0  0  0  0  0  0
    4.8080   -8.0362   16.7101 C   0  0  0  0  0  0  0  0  0  0  0  0
   -1.2173   -3.9294   26.9717 O   0  0  0  0  0  0  0  0  0  0  0  0
   -1.0025   -5.0942   27.4586 C   0  0  0  0  0  0  0  0  0  0  0  0
    2.2474   -8.9123   16.6273 C   0  0  0  0  0  0  0  0  0  0  0  0
    4.4957   -9.2636   17.3041 C   0  0  0  0  0  0  0  0  0  0  0  0
   -1.8070   -5.6086   28.1920 O   0  0  0  0  0  0  0  0  0  0  0  0
   10.4296   -5.1799   28.3140 C   0  0  0  0  0  0  0  0  0  0  0  0
    6.6017   -5.9004   26.9187 C   0  0  0  0  0  0  0  0  0  0  0  0
    2.4761   -6.9940   26.4111 N   0  0  0  0  0  0  0  0  0  0  0  0
    9.1353   -5.4053   27.8239 C   0  0  0  0  0  0  0  0  0  0  0  0
    0.9922   -9.3232   16.5995 O   0  0  0  0  0  0  0  0  0  0  0  0
    1.5232   -7.6869   27.1182 C   0  0  0  0  0  0  0  0  0  0  0  0
    8.6878   -6.6715   27.7262 N   0  0  0  0  0  0  0  0  0  0  0  0
    6.9911   -8.2423   27.1808 C   0  0  0  0  0  0  0  0  0  0  0  0
    3.8436   -7.2758   16.0578 C   0  0  0  0  0  0  0  0  0  0  0  0
    3.1882   -9.7190   17.2566 C   0  0  0  0  0  0  0  0  0  0  0  0
    5.3488   -6.1737   26.5092 C   0  0  0  0  0  0  0  0  0  0  0  0
    7.4567   -6.9464   27.2858 C   0  0  0  0  0  0  0  0  0  0  0  0
    0.1921   -5.7592   27.1123 C   0  0  0  0  0  0  0  0  0  0  0  0
    3.5517   -7.7407   25.9711 C   0  0  0  0  0  0  0  0  0  0  0  0
  1  4  4  0
  1 22  4  0
  2 20  4  0
  2 27  4  0
  3 12  4  0
  3 23  4  0
  4 25  4  0
  4 28  1  0
  5  8  4  0
  5 17  4  0
  6  7  4  0
  6 16  4  0
  7 18  4  0
  8 27  4  0
  9 13  4  0
  9 23  4  0
 10 11  1  0
 11 14  2  0
 11 27  1  0
 12 19  1  0
 12 24  4  0
 13 24  4  0
 15 18  1  0
 16 25  4  0
 16 26  4  0
 17 20  4  0
 17 28  1  0
 18 21  4  0
 21 26  4  0
 22 26  4  0
M  END
$$$$

 Created by Python create_sdf_string function

 28 30  0  0  0  0  0  0  0  0999 V2000
    5.7174   -8.4529   26.7190 C   0  0  0  0  0  0  0  0  0  0  0  0
    0.3974   -7.0711   27.5149 C   0  0  0  0  0  0  0  0  0  0  0  0
    2.5338   -7.6891   16.0102 C   0  0  0  0  0  0  0  0  0  0  0  0
    4.8690   -7.4380   26.4151 C   0  0  0  0  0  0  0  0  0  0  0  0
    2.3021   -5.6726   26.0378 C   0  0  0  0  0  0  0  0  0  0  0  0
    7.0880   -4.6163   27.0010 C   0  0  0  0  0  0  0  0  0  0  0  0
    8.3117   -4.3698   27.4436 C   0  0  0  0  0  0  0  0  0  0  0  0
    1.1339   -5.0515   26.3541 C   0  0  0  0  0  0  0  0  0  0  0  0
    4.8080   -8.0362   16.7101 C   0  0  0  0  0  0  0  0  0  0  0  0
   -1.2173   -3.9294   26.9717 O   0  0  0  0  0  0  0  0  0  0  0  0
   -1.0025   -5.0942   27.4586 C   0  0  0  0  0  0  0  0  0  0  0  0
    2.2474   -8.9123   16.6273 C   0  0  0  0  0  0  0  0  0  0  0  0
    4.4957   -9.2636   17.3041 C   0  0  0  0  0  0  0  0  0  0  0  0
   -1.8070   -5.6086   28.1920 O   0  0  0  0  0  0  0  0  0  0  0  0
   10.4296   -5.1799   28.3140 C   0  0  0  0  0  0  0  0  0  0  0  0
    6.6017   -5.9004   26.9187 C   0  0  0  0  0  0  0  0  0  0  0  0
    2.4761   -6.9940   26.4111 N   0  0  0  0  0  0  0  0  0  0  0  0
    9.1353   -5.4053   27.8239 C   0  0  0  0  0  0  0  0  0  0  0  0
    0.9922   -9.3232   16.5995 O   0  0  0  0  0  0  0  0  0  0  0  0
    1.5232   -7.6869   27.1182 C   0  0  0  0  0  0  0  0  0  0  0  0
    8.6878   -6.6715   27.7262 N   0  0  0  0  0  0  0  0  0  0  0  0
    6.9911   -8.2423   27.1808 C   0  0  0  0  0  0  0  0  0  0  0  0
    3.8436   -7.2758   16.0578 C   0  0  0  0  0  0  0  0  0  0  0  0
    3.1882   -9.7190   17.2566 C   0  0  0  0  0  0  0  0  0  0  0  0
    5.3488   -6.1737   26.5092 C   0  0  0  0  0  0  0  0  0  0  0  0
    7.4567   -6.9464   27.2858 C   0  0  0  0  0  0  0  0  0  0  0  0
    0.1921   -5.7592   27.1123 C   0  0  0  0  0  0  0  0  0  0  0  0
    3.5517   -7.7407   25.9711 C   0  0  0  0  0  0  0  0  0  0  0  0
  1  4  4  0
  1 22  4  0
  2 20  4  0
  2 27  4  0
  3 12  4  0
  3 23  4  0
  4 25  4  0
  4 28  1  0
  5  8  4  0
  5 17  4  0
  6  7  4  0
  6 16  4  0
  7 18  4  0
  8 27  4  0
  9 13  4  0
  9 23  4  0
 10 11  1  0
 11 14  2  0
 11 27  1  0
 12 19  1  0
 12 24  4  0
 13 24  4  0
 15 18  1  0
 16 25  4  0
 16 26  4  0
 17 20  4  0
 17 28  1  0
 18 21  4  0
 21 26  4  0
 22 26  4  0
M  END
$$$$

 Created by Python create_sdf_string function

 28 30  0  0  0  0  0  0  0  0999 V2000
    5.7174   -8.4529   26.7190 C   0  0  0  0  0  0  0  0  0  0  0  0
    0.3974   -7.0711   27.5149 C   0  0  0  0  0  0  0  0  0  0  0  0
    2.5338   -7.6891   16.0102 C   0  0  0  0  0  0  0  0  0  0  0  0
    4.8690   -7.4380   26.4151 C   0  0  0  0  0  0  0  0  0  0  0  0
    2.3021   -5.6726   26.0378 C   0  0  0  0  0  0  0  0  0  0  0  0
    7.0880   -4.6163   27.0010 C   0  0  0  0  0  0  0  0  0  0  0  0
    8.3117   -4.3698   27.4436 C   0  0  0  0  0  0  0  0  0  0  0  0
    1.1339   -5.0515   26.3541 C   0  0  0  0  0  0  0  0  0  0  0  0
    4.8080   -8.0362   16.7101 C   0  0  0  0  0  0  0  0  0  0  0  0
   -1.2173   -3.9294   26.9717 O   0  0  0  0  0  0  0  0  0  0  0  0
   -1.0025   -5.0942   27.4586 C   0  0  0  0  0  0  0  0  0  0  0  0
    2.2474   -8.9123   16.6273 C   0  0  0  0  0  0  0  0  0  0  0  0
    4.4957   -9.2636   17.3041 C   0  0  0  0  0  0  0  0  0  0  0  0
   -1.8070   -5.6086   28.1920 O   0  0  0  0  0  0  0  0  0  0  0  0
   10.4296   -5.1799   28.3140 C   0  0  0  0  0  0  0  0  0  0  0  0
    6.6017   -5.9004   26.9187 C   0  0  0  0  0  0  0  0  0  0  0  0
    2.4761   -6.9940   26.4111 N   0  0  0  0  0  0  0  0  0  0  0  0
    9.1353   -5.4053   27.8239 C   0  0  0  0  0  0  0  0  0  0  0  0
    0.9922   -9.3232   16.5995 O   0  0  0  0  0  0  0  0  0  0  0  0
    1.5232   -7.6869   27.1182 C   0  0  0  0  0  0  0  0  0  0  0  0
    8.6878   -6.6715   27.7262 N   0  0  0  0  0  0  0  0  0  0  0  0
    6.9911   -8.2423   27.1808 C   0  0  0  0  0  0  0  0  0  0  0  0
    3.8436   -7.2758   16.0578 C   0  0  0  0  0  0  0  0  0  0  0  0
    3.1882   -9.7190   17.2566 C   0  0  0  0  0  0  0  0  0  0  0  0
    5.3488   -6.1737   26.5092 C   0  0  0  0  0  0  0  0  0  0  0  0
    7.4567   -6.9464   27.2858 C   0  0  0  0  0  0  0  0  0  0  0  0
    0.1921   -5.7592   27.1123 C   0  0  0  0  0  0  0  0  0  0  0  0
    3.5517   -7.7407   25.9711 C   0  0  0  0  0  0  0  0  0  0  0  0
  1  4  4  0
  1 22  4  0
  2 20  4  0
  2 27  4  0
  3 12  4  0
  3 23  4  0
  4 25  4  0
  4 28  1  0
  5  8  4  0
  5 17  4  0
  6  7  4  0
  6 16  4  0
  7 18  4  0
  8 27  4  0
  9 13  4  0
  9 23  4  0
 10 11  1  0
 11 14  2  0
 11 27  1  0
 12 19  1  0
 12 24  4  0
 13 24  4  0
 15 18  1  0
 16 25  4  0
 16 26  4  0
 17 20  4  0
 17 28  1  0
 18 21  4  0
 21 26  4  0
 22 26  4  0
M  END
$$$$

 Created by Python create_sdf_string function

 28 30  0  0  0  0  0  0  0  0999 V2000
    5.7174   -8.4529   26.7190 C   0  0  0  0  0  0  0  0  0  0  0  0
    0.3974   -7.0711   27.5149 C   0  0  0  0  0  0  0  0  0  0  0  0
    2.5338   -7.6891   16.0102 C   0  0  0  0  0  0  0  0  0  0  0  0
    4.8690   -7.4380   26.4151 C   0  0  0  0  0  0  0  0  0  0  0  0
    2.3021   -5.6726   26.0378 C   0  0  0  0  0  0  0  0  0  0  0  0
    7.0880   -4.6163   27.0010 C   0  0  0  0  0  0  0  0  0  0  0  0
    8.3117   -4.3698   27.4436 C   0  0  0  0  0  0  0  0  0  0  0  0
    1.1339   -5.0515   26.3541 C   0  0  0  0  0  0  0  0  0  0  0  0
    4.8080   -8.0362   16.7101 C   0  0  0  0  0  0  0  0  0  0  0  0
   -1.2173   -3.9294   26.9717 O   0  0  0  0  0  0  0  0  0  0  0  0
   -1.0025   -5.0942   27.4586 C   0  0  0  0  0  0  0  0  0  0  0  0
    2.2474   -8.9123   16.6273 C   0  0  0  0  0  0  0  0  0  0  0  0
    4.4957   -9.2636   17.3041 C   0  0  0  0  0  0  0  0  0  0  0  0
   -1.8070   -5.6086   28.1920 O   0  0  0  0  0  0  0  0  0  0  0  0
   10.4296   -5.1799   28.3140 C   0  0  0  0  0  0  0  0  0  0  0  0
    6.6017   -5.9004   26.9187 C   0  0  0  0  0  0  0  0  0  0  0  0
    2.4761   -6.9940   26.4111 N   0  0  0  0  0  0  0  0  0  0  0  0
    9.1353   -5.4053   27.8239 C   0  0  0  0  0  0  0  0  0  0  0  0
    0.9922   -9.3232   16.5995 O   0  0  0  0  0  0  0  0  0  0  0  0
    1.5232   -7.6869   27.1182 C   0  0  0  0  0  0  0  0  0  0  0  0
    8.6878   -6.6715   27.7262 N   0  0  0  0  0  0  0  0  0  0  0  0
    6.9911   -8.2423   27.1808 C   0  0  0  0  0  0  0  0  0  0  0  0
    3.8436   -7.2758   16.0578 C   0  0  0  0  0  0  0  0  0  0  0  0
    3.1882   -9.7190   17.2566 C   0  0  0  0  0  0  0  0  0  0  0  0
    5.3488   -6.1737   26.5092 C   0  0  0  0  0  0  0  0  0  0  0  0
    7.4567   -6.9464   27.2858 C   0  0  0  0  0  0  0  0  0  0  0  0
    0.1921   -5.7592   27.1123 C   0  0  0  0  0  0  0  0  0  0  0  0
    3.5517   -7.7407   25.9711 C   0  0  0  0  0  0  0  0  0  0  0  0
  1  4  4  0
  1 22  4  0
  2 20  4  0
  2 27  4  0
  3 12  4  0
  3 23  4  0
  4 25  4  0
  4 28  1  0
  5  8  4  0
  5 17  4  0
  6  7  4  0
  6 16  4  0
  7 18  4  0
  8 27  4  0
  9 13  4  0
  9 23  4  0
 10 11  1  0
 11 14  2  0
 11 27  1  0
 12 19  1  0
 12 24  4  0
 13 24  4  0
 15 18  1  0
 16 25  4  0
 16 26  4  0
 17 20  4  0
 17 28  1  0
 18 21  4  0
 21 26  4  0
 22 26  4  0
M  END
$$$$

 Created by Python create_sdf_string function

 28 30  0  0  0  0  0  0  0  0999 V2000
    5.7174   -8.4529   26.7190 C   0  0  0  0  0  0  0  0  0  0  0  0
    0.3974   -7.0711   27.5149 C   0  0  0  0  0  0  0  0  0  0  0  0
    2.5338   -7.6891   16.0102 C   0  0  0  0  0  0  0  0  0  0  0  0
    4.8690   -7.4380   26.4151 C   0  0  0  0  0  0  0  0  0  0  0  0
    2.3021   -5.6726   26.0378 C   0  0  0  0  0  0  0  0  0  0  0  0
    7.0880   -4.6163   27.0010 C   0  0  0  0  0  0  0  0  0  0  0  0
    8.3117   -4.3698   27.4436 C   0  0  0  0  0  0  0  0  0  0  0  0
    1.1339   -5.0515   26.3541 C   0  0  0  0  0  0  0  0  0  0  0  0
    4.8080   -8.0362   16.7101 C   0  0  0  0  0  0  0  0  0  0  0  0
   -1.2173   -3.9294   26.9717 O   0  0  0  0  0  0  0  0  0  0  0  0
   -1.0025   -5.0942   27.4586 C   0  0  0  0  0  0  0  0  0  0  0  0
    2.2474   -8.9123   16.6273 C   0  0  0  0  0  0  0  0  0  0  0  0
    4.4957   -9.2636   17.3041 C   0  0  0  0  0  0  0  0  0  0  0  0
   -1.8070   -5.6086   28.1920 O   0  0  0  0  0  0  0  0  0  0  0  0
   10.4296   -5.1799   28.3140 C   0  0  0  0  0  0  0  0  0  0  0  0
    6.6017   -5.9004   26.9187 C   0  0  0  0  0  0  0  0  0  0  0  0
    2.4761   -6.9940   26.4111 N   0  0  0  0  0  0  0  0  0  0  0  0
    9.1353   -5.4053   27.8239 C   0  0  0  0  0  0  0  0  0  0  0  0
    0.9922   -9.3232   16.5995 O   0  0  0  0  0  0  0  0  0  0  0  0
    1.5232   -7.6869   27.1182 C   0  0  0  0  0  0  0  0  0  0  0  0
    8.6878   -6.6715   27.7262 N   0  0  0  0  0  0  0  0  0  0  0  0
    6.9911   -8.2423   27.1808 C   0  0  0  0  0  0  0  0  0  0  0  0
    3.8436   -7.2758   16.0578 C   0  0  0  0  0  0  0  0  0  0  0  0
    3.1882   -9.7190   17.2566 C   0  0  0  0  0  0  0  0  0  0  0  0
    5.3488   -6.1737   26.5092 C   0  0  0  0  0  0  0  0  0  0  0  0
    7.4567   -6.9464   27.2858 C   0  0  0  0  0  0  0  0  0  0  0  0
    0.1921   -5.7592   27.1123 C   0  0  0  0  0  0  0  0  0  0  0  0
    3.5517   -7.7407   25.9711 C   0  0  0  0  0  0  0  0  0  0  0  0
  1  4  4  0
  1 22  4  0
  2 20  4  0
  2 27  4  0
  3 12  4  0
  3 23  4  0
  4 25  4  0
  4 28  1  0
  5  8  4  0
  5 17  4  0
  6  7  4  0
  6 16  4  0
  7 18  4  0
  8 27  4  0
  9 13  4  0
  9 23  4  0
 10 11  1  0
 11 14  2  0
 11 27  1  0
 12 19  1  0
 12 24  4  0
 13 24  4  0
 15 18  1  0
 16 25  4  0
 16 26  4  0
 17 20  4  0
 17 28  1  0
 18 21  4  0
 21 26  4  0
 22 26  4  0
M  END
$$$$

 Created by Python create_sdf_string function

 28 30  0  0  0  0  0  0  0  0999 V2000
    5.7174   -8.4529   26.7190 C   0  0  0  0  0  0  0  0  0  0  0  0
    0.3974   -7.0711   27.5149 C   0  0  0  0  0  0  0  0  0  0  0  0
    2.5338   -7.6891   16.0102 C   0  0  0  0  0  0  0  0  0  0  0  0
    4.8690   -7.4380   26.4151 C   0  0  0  0  0  0  0  0  0  0  0  0
    2.3021   -5.6726   26.0378 C   0  0  0  0  0  0  0  0  0  0  0  0
    7.0880   -4.6163   27.0010 C   0  0  0  0  0  0  0  0  0  0  0  0
    8.3117   -4.3698   27.4436 C   0  0  0  0  0  0  0  0  0  0  0  0
    1.1339   -5.0515   26.3541 C   0  0  0  0  0  0  0  0  0  0  0  0
    4.8080   -8.0362   16.7101 C   0  0  0  0  0  0  0  0  0  0  0  0
   -1.2173   -3.9294   26.9717 O   0  0  0  0  0  0  0  0  0  0  0  0
   -1.0025   -5.0942   27.4586 C   0  0  0  0  0  0  0  0  0  0  0  0
    2.2474   -8.9123   16.6273 C   0  0  0  0  0  0  0  0  0  0  0  0
    4.4957   -9.2636   17.3041 C   0  0  0  0  0  0  0  0  0  0  0  0
   -1.8070   -5.6086   28.1920 O   0  0  0  0  0  0  0  0  0  0  0  0
   10.4296   -5.1799   28.3140 C   0  0  0  0  0  0  0  0  0  0  0  0
    6.6017   -5.9004   26.9187 C   0  0  0  0  0  0  0  0  0  0  0  0
    2.4761   -6.9940   26.4111 N   0  0  0  0  0  0  0  0  0  0  0  0
    9.1353   -5.4053   27.8239 C   0  0  0  0  0  0  0  0  0  0  0  0
    0.9922   -9.3232   16.5995 O   0  0  0  0  0  0  0  0  0  0  0  0
    1.5232   -7.6869   27.1182 C   0  0  0  0  0  0  0  0  0  0  0  0
    8.6878   -6.6715   27.7262 N   0  0  0  0  0  0  0  0  0  0  0  0
    6.9911   -8.2423   27.1808 C   0  0  0  0  0  0  0  0  0  0  0  0
    3.8436   -7.2758   16.0578 C   0  0  0  0  0  0  0  0  0  0  0  0
    3.1882   -9.7190   17.2566 C   0  0  0  0  0  0  0  0  0  0  0  0
    5.3488   -6.1737   26.5092 C   0  0  0  0  0  0  0  0  0  0  0  0
    7.4567   -6.9464   27.2858 C   0  0  0  0  0  0  0  0  0  0  0  0
    0.1921   -5.7592   27.1123 C   0  0  0  0  0  0  0  0  0  0  0  0
    3.5517   -7.7407   25.9711 C   0  0  0  0  0  0  0  0  0  0  0  0
  1  4  4  0
  1 22  4  0
  2 20  4  0
  2 27  4  0
  3 12  4  0
  3 23  4  0
  4 25  4  0
  4 28  1  0
  5  8  4  0
  5 17  4  0
  6  7  4  0
  6 16  4  0
  7 18  4  0
  8 27  4  0
  9 13  4  0
  9 23  4  0
 10 11  1  0
 11 14  2  0
 11 27  1  0
 12 19  1  0
 12 24  4  0
 13 24  4  0
 15 18  1  0
 16 25  4  0
 16 26  4  0
 17 20  4  0
 17 28  1  0
 18 21  4  0
 21 26  4  0
 22 26  4  0
M  END
$$$$

 Created by Python create_sdf_string function

 28 30  0  0  0  0  0  0  0  0999 V2000
    5.7174   -8.4529   26.7190 C   0  0  0  0  0  0  0  0  0  0  0  0
    0.3974   -7.0711   27.5149 C   0  0  0  0  0  0  0  0  0  0  0  0
    2.5338   -7.6891   16.0102 C   0  0  0  0  0  0  0  0  0  0  0  0
    4.8690   -7.4380   26.4151 C   0  0  0  0  0  0  0  0  0  0  0  0
    2.3021   -5.6726   26.0378 C   0  0  0  0  0  0  0  0  0  0  0  0
    7.0880   -4.6163   27.0010 C   0  0  0  0  0  0  0  0  0  0  0  0
    8.3117   -4.3698   27.4436 C   0  0  0  0  0  0  0  0  0  0  0  0
    1.1339   -5.0515   26.3541 C   0  0  0  0  0  0  0  0  0  0  0  0
    4.8080   -8.0362   16.7101 C   0  0  0  0  0  0  0  0  0  0  0  0
   -1.2173   -3.9294   26.9717 O   0  0  0  0  0  0  0  0  0  0  0  0
   -1.0025   -5.0942   27.4586 C   0  0  0  0  0  0  0  0  0  0  0  0
    2.2474   -8.9123   16.6273 C   0  0  0  0  0  0  0  0  0  0  0  0
    4.4957   -9.2636   17.3041 C   0  0  0  0  0  0  0  0  0  0  0  0
   -1.8070   -5.6086   28.1920 O   0  0  0  0  0  0  0  0  0  0  0  0
   10.4296   -5.1799   28.3140 C   0  0  0  0  0  0  0  0  0  0  0  0
    6.6017   -5.9004   26.9187 C   0  0  0  0  0  0  0  0  0  0  0  0
    2.4761   -6.9940   26.4111 N   0  0  0  0  0  0  0  0  0  0  0  0
    9.1353   -5.4053   27.8239 C   0  0  0  0  0  0  0  0  0  0  0  0
    0.9922   -9.3232   16.5995 O   0  0  0  0  0  0  0  0  0  0  0  0
    1.5232   -7.6869   27.1182 C   0  0  0  0  0  0  0  0  0  0  0  0
    8.6878   -6.6715   27.7262 N   0  0  0  0  0  0  0  0  0  0  0  0
    6.9911   -8.2423   27.1808 C   0  0  0  0  0  0  0  0  0  0  0  0
    3.8436   -7.2758   16.0578 C   0  0  0  0  0  0  0  0  0  0  0  0
    3.1882   -9.7190   17.2566 C   0  0  0  0  0  0  0  0  0  0  0  0
    5.3488   -6.1737   26.5092 C   0  0  0  0  0  0  0  0  0  0  0  0
    7.4567   -6.9464   27.2858 C   0  0  0  0  0  0  0  0  0  0  0  0
    0.1921   -5.7592   27.1123 C   0  0  0  0  0  0  0  0  0  0  0  0
    3.5517   -7.7407   25.9711 C   0  0  0  0  0  0  0  0  0  0  0  0
  1  4  4  0
  1 22  4  0
  2 20  4  0
  2 27  4  0
  3 12  4  0
  3 23  4  0
  4 25  4  0
  4 28  1  0
  5  8  4  0
  5 17  4  0
  6  7  4  0
  6 16  4  0
  7 18  4  0
  8 27  4  0
  9 13  4  0
  9 23  4  0
 10 11  1  0
 11 14  2  0
 11 27  1  0
 12 19  1  0
 12 24  4  0
 13 24  4  0
 15 18  1  0
 16 25  4  0
 16 26  4  0
 17 20  4  0
 17 28  1  0
 18 21  4  0
 21 26  4  0
 22 26  4  0
M  END
$$$$

 Created by Python create_sdf_string function

 28 30  0  0  0  0  0  0  0  0999 V2000
    5.7174   -8.4529   26.7190 C   0  0  0  0  0  0  0  0  0  0  0  0
    0.3974   -7.0711   27.5149 C   0  0  0  0  0  0  0  0  0  0  0  0
    2.5338   -7.6891   16.0102 C   0  0  0  0  0  0  0  0  0  0  0  0
    4.8690   -7.4380   26.4151 C   0  0  0  0  0  0  0  0  0  0  0  0
    2.3021   -5.6726   26.0378 C   0  0  0  0  0  0  0  0  0  0  0  0
    7.0880   -4.6163   27.0010 C   0  0  0  0  0  0  0  0  0  0  0  0
    8.3117   -4.3698   27.4436 C   0  0  0  0  0  0  0  0  0  0  0  0
    1.1339   -5.0515   26.3541 C   0  0  0  0  0  0  0  0  0  0  0  0
    4.8080   -8.0362   16.7101 C   0  0  0  0  0  0  0  0  0  0  0  0
   -1.2173   -3.9294   26.9717 O   0  0  0  0  0  0  0  0  0  0  0  0
   -1.0025   -5.0942   27.4586 C   0  0  0  0  0  0  0  0  0  0  0  0
    2.2474   -8.9123   16.6273 C   0  0  0  0  0  0  0  0  0  0  0  0
    4.4957   -9.2636   17.3041 C   0  0  0  0  0  0  0  0  0  0  0  0
   -1.8070   -5.6086   28.1920 O   0  0  0  0  0  0  0  0  0  0  0  0
   10.4296   -5.1799   28.3140 C   0  0  0  0  0  0  0  0  0  0  0  0
    6.6017   -5.9004   26.9187 C   0  0  0  0  0  0  0  0  0  0  0  0
    2.4761   -6.9940   26.4111 N   0  0  0  0  0  0  0  0  0  0  0  0
    9.1353   -5.4053   27.8239 C   0  0  0  0  0  0  0  0  0  0  0  0
    0.9922   -9.3232   16.5995 O   0  0  0  0  0  0  0  0  0  0  0  0
    1.5232   -7.6869   27.1182 C   0  0  0  0  0  0  0  0  0  0  0  0
    8.6878   -6.6715   27.7262 N   0  0  0  0  0  0  0  0  0  0  0  0
    6.9911   -8.2423   27.1808 C   0  0  0  0  0  0  0  0  0  0  0  0
    3.8436   -7.2758   16.0578 C   0  0  0  0  0  0  0  0  0  0  0  0
    3.1882   -9.7190   17.2566 C   0  0  0  0  0  0  0  0  0  0  0  0
    5.3488   -6.1737   26.5092 C   0  0  0  0  0  0  0  0  0  0  0  0
    7.4567   -6.9464   27.2858 C   0  0  0  0  0  0  0  0  0  0  0  0
    0.1921   -5.7592   27.1123 C   0  0  0  0  0  0  0  0  0  0  0  0
    3.5517   -7.7407   25.9711 C   0  0  0  0  0  0  0  0  0  0  0  0
  1  4  4  0
  1 22  4  0
  2 20  4  0
  2 27  4  0
  3 12  4  0
  3 23  4  0
  4 25  4  0
  4 28  1  0
  5  8  4  0
  5 17  4  0
  6  7  4  0
  6 16  4  0
  7 18  4  0
  8 27  4  0
  9 13  4  0
  9 23  4  0
 10 11  1  0
 11 14  2  0
 11 27  1  0
 12 19  1  0
 12 24  4  0
 13 24  4  0
 15 18  1  0
 16 25  4  0
 16 26  4  0
 17 20  4  0
 17 28  1  0
 18 21  4  0
 21 26  4  0
 22 26  4  0
M  END
$$$$

 Created by Python create_sdf_string function

 28 30  0  0  0  0  0  0  0  0999 V2000
    5.7174   -8.4529   26.7190 C   0  0  0  0  0  0  0  0  0  0  0  0
    0.3974   -7.0711   27.5149 C   0  0  0  0  0  0  0  0  0  0  0  0
    2.5338   -7.6891   16.0102 C   0  0  0  0  0  0  0  0  0  0  0  0
    4.8690   -7.4380   26.4151 C   0  0  0  0  0  0  0  0  0  0  0  0
    2.3021   -5.6726   26.0378 C   0  0  0  0  0  0  0  0  0  0  0  0
    7.0880   -4.6163   27.0010 C   0  0  0  0  0  0  0  0  0  0  0  0
    8.3117   -4.3698   27.4436 C   0  0  0  0  0  0  0  0  0  0  0  0
    1.1339   -5.0515   26.3541 C   0  0  0  0  0  0  0  0  0  0  0  0
    4.8080   -8.0362   16.7101 C   0  0  0  0  0  0  0  0  0  0  0  0
   -1.2173   -3.9294   26.9717 O   0  0  0  0  0  0  0  0  0  0  0  0
   -1.0025   -5.0942   27.4586 C   0  0  0  0  0  0  0  0  0  0  0  0
    2.2474   -8.9123   16.6273 C   0  0  0  0  0  0  0  0  0  0  0  0
    4.4957   -9.2636   17.3041 C   0  0  0  0  0  0  0  0  0  0  0  0
   -1.8070   -5.6086   28.1920 O   0  0  0  0  0  0  0  0  0  0  0  0
   10.4296   -5.1799   28.3140 C   0  0  0  0  0  0  0  0  0  0  0  0
    6.6017   -5.9004   26.9187 C   0  0  0  0  0  0  0  0  0  0  0  0
    2.4761   -6.9940   26.4111 N   0  0  0  0  0  0  0  0  0  0  0  0
    9.1353   -5.4053   27.8239 C   0  0  0  0  0  0  0  0  0  0  0  0
    0.9922   -9.3232   16.5995 O   0  0  0  0  0  0  0  0  0  0  0  0
    1.5232   -7.6869   27.1182 C   0  0  0  0  0  0  0  0  0  0  0  0
    8.6878   -6.6715   27.7262 N   0  0  0  0  0  0  0  0  0  0  0  0
    6.9911   -8.2423   27.1808 C   0  0  0  0  0  0  0  0  0  0  0  0
    3.8436   -7.2758   16.0578 C   0  0  0  0  0  0  0  0  0  0  0  0
    3.1882   -9.7190   17.2566 C   0  0  0  0  0  0  0  0  0  0  0  0
    5.3488   -6.1737   26.5092 C   0  0  0  0  0  0  0  0  0  0  0  0
    7.4567   -6.9464   27.2858 C   0  0  0  0  0  0  0  0  0  0  0  0
    0.1921   -5.7592   27.1123 C   0  0  0  0  0  0  0  0  0  0  0  0
    3.5517   -7.7407   25.9711 C   0  0  0  0  0  0  0  0  0  0  0  0
  1  4  4  0
  1 22  4  0
  2 20  4  0
  2 27  4  0
  3 12  4  0
  3 23  4  0
  4 25  4  0
  4 28  1  0
  5  8  4  0
  5 17  4  0
  6  7  4  0
  6 16  4  0
  7 18  4  0
  8 27  4  0
  9 13  4  0
  9 23  4  0
 10 11  1  0
 11 14  2  0
 11 27  1  0
 12 19  1  0
 12 24  4  0
 13 24  4  0
 15 18  1  0
 16 25  4  0
 16 26  4  0
 17 20  4  0
 17 28  1  0
 18 21  4  0
 21 26  4  0
 22 26  4  0
M  END
$$$$

 Created by Python create_sdf_string function

 28 30  0  0  0  0  0  0  0  0999 V2000
    5.7174   -8.4529   26.7190 C   0  0  0  0  0  0  0  0  0  0  0  0
    0.3974   -7.0711   27.5149 C   0  0  0  0  0  0  0  0  0  0  0  0
    2.5338   -7.6891   16.0102 C   0  0  0  0  0  0  0  0  0  0  0  0
    4.8690   -7.4380   26.4151 C   0  0  0  0  0  0  0  0  0  0  0  0
    2.3021   -5.6726   26.0378 C   0  0  0  0  0  0  0  0  0  0  0  0
    7.0880   -4.6163   27.0010 C   0  0  0  0  0  0  0  0  0  0  0  0
    8.3117   -4.3698   27.4436 C   0  0  0  0  0  0  0  0  0  0  0  0
    1.1339   -5.0515   26.3541 C   0  0  0  0  0  0  0  0  0  0  0  0
    4.8080   -8.0362   16.7101 C   0  0  0  0  0  0  0  0  0  0  0  0
   -1.2173   -3.9294   26.9717 O   0  0  0  0  0  0  0  0  0  0  0  0
   -1.0025   -5.0942   27.4586 C   0  0  0  0  0  0  0  0  0  0  0  0
    2.2474   -8.9123   16.6273 C   0  0  0  0  0  0  0  0  0  0  0  0
    4.4957   -9.2636   17.3041 C   0  0  0  0  0  0  0  0  0  0  0  0
   -1.8070   -5.6086   28.1920 O   0  0  0  0  0  0  0  0  0  0  0  0
   10.4296   -5.1799   28.3140 C   0  0  0  0  0  0  0  0  0  0  0  0
    6.6017   -5.9004   26.9187 C   0  0  0  0  0  0  0  0  0  0  0  0
    2.4761   -6.9940   26.4111 N   0  0  0  0  0  0  0  0  0  0  0  0
    9.1353   -5.4053   27.8239 C   0  0  0  0  0  0  0  0  0  0  0  0
    0.9922   -9.3232   16.5995 O   0  0  0  0  0  0  0  0  0  0  0  0
    1.5232   -7.6869   27.1182 C   0  0  0  0  0  0  0  0  0  0  0  0
    8.6878   -6.6715   27.7262 N   0  0  0  0  0  0  0  0  0  0  0  0
    6.9911   -8.2423   27.1808 C   0  0  0  0  0  0  0  0  0  0  0  0
    3.8436   -7.2758   16.0578 C   0  0  0  0  0  0  0  0  0  0  0  0
    3.1882   -9.7190   17.2566 C   0  0  0  0  0  0  0  0  0  0  0  0
    5.3488   -6.1737   26.5092 C   0  0  0  0  0  0  0  0  0  0  0  0
    7.4567   -6.9464   27.2858 C   0  0  0  0  0  0  0  0  0  0  0  0
    0.1921   -5.7592   27.1123 C   0  0  0  0  0  0  0  0  0  0  0  0
    3.5517   -7.7407   25.9711 C   0  0  0  0  0  0  0  0  0  0  0  0
  1  4  4  0
  1 22  4  0
  2 20  4  0
  2 27  4  0
  3 12  4  0
  3 23  4  0
  4 25  4  0
  4 28  1  0
  5  8  4  0
  5 17  4  0
  6  7  4  0
  6 16  4  0
  7 18  4  0
  8 27  4  0
  9 13  4  0
  9 23  4  0
 10 11  1  0
 11 14  2  0
 11 27  1  0
 12 19  1  0
 12 24  4  0
 13 24  4  0
 15 18  1  0
 16 25  4  0
 16 26  4  0
 17 20  4  0
 17 28  1  0
 18 21  4  0
 21 26  4  0
 22 26  4  0
M  END
$$$$

 Created by Python create_sdf_string function

 28 30  0  0  0  0  0  0  0  0999 V2000
    5.7174   -8.4529   26.7190 C   0  0  0  0  0  0  0  0  0  0  0  0
    0.3974   -7.0711   27.5149 C   0  0  0  0  0  0  0  0  0  0  0  0
    2.5338   -7.6891   16.0102 C   0  0  0  0  0  0  0  0  0  0  0  0
    4.8690   -7.4380   26.4151 C   0  0  0  0  0  0  0  0  0  0  0  0
    2.3021   -5.6726   26.0378 C   0  0  0  0  0  0  0  0  0  0  0  0
    7.0880   -4.6163   27.0010 C   0  0  0  0  0  0  0  0  0  0  0  0
    8.3117   -4.3698   27.4436 C   0  0  0  0  0  0  0  0  0  0  0  0
    1.1339   -5.0515   26.3541 C   0  0  0  0  0  0  0  0  0  0  0  0
    4.8080   -8.0362   16.7101 C   0  0  0  0  0  0  0  0  0  0  0  0
   -1.2173   -3.9294   26.9717 O   0  0  0  0  0  0  0  0  0  0  0  0
   -1.0025   -5.0942   27.4586 C   0  0  0  0  0  0  0  0  0  0  0  0
    2.2474   -8.9123   16.6273 C   0  0  0  0  0  0  0  0  0  0  0  0
    4.4957   -9.2636   17.3041 C   0  0  0  0  0  0  0  0  0  0  0  0
   -1.8070   -5.6086   28.1920 O   0  0  0  0  0  0  0  0  0  0  0  0
   10.4296   -5.1799   28.3140 C   0  0  0  0  0  0  0  0  0  0  0  0
    6.6017   -5.9004   26.9187 C   0  0  0  0  0  0  0  0  0  0  0  0
    2.4761   -6.9940   26.4111 N   0  0  0  0  0  0  0  0  0  0  0  0
    9.1353   -5.4053   27.8239 C   0  0  0  0  0  0  0  0  0  0  0  0
    0.9922   -9.3232   16.5995 O   0  0  0  0  0  0  0  0  0  0  0  0
    1.5232   -7.6869   27.1182 C   0  0  0  0  0  0  0  0  0  0  0  0
    8.6878   -6.6715   27.7262 N   0  0  0  0  0  0  0  0  0  0  0  0
    6.9911   -8.2423   27.1808 C   0  0  0  0  0  0  0  0  0  0  0  0
    3.8436   -7.2758   16.0578 C   0  0  0  0  0  0  0  0  0  0  0  0
    3.1882   -9.7190   17.2566 C   0  0  0  0  0  0  0  0  0  0  0  0
    5.3488   -6.1737   26.5092 C   0  0  0  0  0  0  0  0  0  0  0  0
    7.4567   -6.9464   27.2858 C   0  0  0  0  0  0  0  0  0  0  0  0
    0.1921   -5.7592   27.1123 C   0  0  0  0  0  0  0  0  0  0  0  0
    3.5517   -7.7407   25.9711 C   0  0  0  0  0  0  0  0  0  0  0  0
  1  4  4  0
  1 22  4  0
  2 20  4  0
  2 27  4  0
  3 12  4  0
  3 23  4  0
  4 25  4  0
  4 28  1  0
  5  8  4  0
  5 17  4  0
  6  7  4  0
  6 16  4  0
  7 18  4  0
  8 27  4  0
  9 13  4  0
  9 23  4  0
 10 11  1  0
 11 14  2  0
 11 27  1  0
 12 19  1  0
 12 24  4  0
 13 24  4  0
 15 18  1  0
 16 25  4  0
 16 26  4  0
 17 20  4  0
 17 28  1  0
 18 21  4  0
 21 26  4  0
 22 26  4  0
M  END
$$$$

 Created by Python create_sdf_string function

 28 30  0  0  0  0  0  0  0  0999 V2000
    5.7174   -8.4529   26.7190 C   0  0  0  0  0  0  0  0  0  0  0  0
    0.3974   -7.0711   27.5149 C   0  0  0  0  0  0  0  0  0  0  0  0
    2.5338   -7.6891   16.0102 C   0  0  0  0  0  0  0  0  0  0  0  0
    4.8690   -7.4380   26.4151 C   0  0  0  0  0  0  0  0  0  0  0  0
    2.3021   -5.6726   26.0378 C   0  0  0  0  0  0  0  0  0  0  0  0
    7.0880   -4.6163   27.0010 C   0  0  0  0  0  0  0  0  0  0  0  0
    8.3117   -4.3698   27.4436 C   0  0  0  0  0  0  0  0  0  0  0  0
    1.1339   -5.0515   26.3541 C   0  0  0  0  0  0  0  0  0  0  0  0
    4.8080   -8.0362   16.7101 C   0  0  0  0  0  0  0  0  0  0  0  0
   -1.2173   -3.9294   26.9717 O   0  0  0  0  0  0  0  0  0  0  0  0
   -1.0025   -5.0942   27.4586 C   0  0  0  0  0  0  0  0  0  0  0  0
    2.2474   -8.9123   16.6273 C   0  0  0  0  0  0  0  0  0  0  0  0
    4.4957   -9.2636   17.3041 C   0  0  0  0  0  0  0  0  0  0  0  0
   -1.8070   -5.6086   28.1920 O   0  0  0  0  0  0  0  0  0  0  0  0
   10.4296   -5.1799   28.3140 C   0  0  0  0  0  0  0  0  0  0  0  0
    6.6017   -5.9004   26.9187 C   0  0  0  0  0  0  0  0  0  0  0  0
    2.4761   -6.9940   26.4111 N   0  0  0  0  0  0  0  0  0  0  0  0
    9.1353   -5.4053   27.8239 C   0  0  0  0  0  0  0  0  0  0  0  0
    0.9922   -9.3232   16.5995 O   0  0  0  0  0  0  0  0  0  0  0  0
    1.5232   -7.6869   27.1182 C   0  0  0  0  0  0  0  0  0  0  0  0
    8.6878   -6.6715   27.7262 N   0  0  0  0  0  0  0  0  0  0  0  0
    6.9911   -8.2423   27.1808 C   0  0  0  0  0  0  0  0  0  0  0  0
    3.8436   -7.2758   16.0578 C   0  0  0  0  0  0  0  0  0  0  0  0
    3.1882   -9.7190   17.2566 C   0  0  0  0  0  0  0  0  0  0  0  0
    5.3488   -6.1737   26.5092 C   0  0  0  0  0  0  0  0  0  0  0  0
    7.4567   -6.9464   27.2858 C   0  0  0  0  0  0  0  0  0  0  0  0
    0.1921   -5.7592   27.1123 C   0  0  0  0  0  0  0  0  0  0  0  0
    3.5517   -7.7407   25.9711 C   0  0  0  0  0  0  0  0  0  0  0  0
  1  4  4  0
  1 22  4  0
  2 20  4  0
  2 27  4  0
  3 12  4  0
  3 23  4  0
  4 25  4  0
  4 28  1  0
  5  8  4  0
  5 17  4  0
  6  7  4  0
  6 16  4  0
  7 18  4  0
  8 27  4  0
  9 13  4  0
  9 23  4  0
 10 11  1  0
 11 14  2  0
 11 27  1  0
 12 19  1  0
 12 24  4  0
 13 24  4  0
 15 18  1  0
 16 25  4  0
 16 26  4  0
 17 20  4  0
 17 28  1  0
 18 21  4  0
 21 26  4  0
 22 26  4  0
M  END
$$$$

 Created by Python create_sdf_string function

 28 30  0  0  0  0  0  0  0  0999 V2000
    5.7174   -8.4529   26.7190 C   0  0  0  0  0  0  0  0  0  0  0  0
    0.3974   -7.0711   27.5149 C   0  0  0  0  0  0  0  0  0  0  0  0
    2.5338   -7.6891   16.0102 C   0  0  0  0  0  0  0  0  0  0  0  0
    4.8690   -7.4380   26.4151 C   0  0  0  0  0  0  0  0  0  0  0  0
    2.3021   -5.6726   26.0378 C   0  0  0  0  0  0  0  0  0  0  0  0
    7.0880   -4.6163   27.0010 C   0  0  0  0  0  0  0  0  0  0  0  0
    8.3117   -4.3698   27.4436 C   0  0  0  0  0  0  0  0  0  0  0  0
    1.1339   -5.0515   26.3541 C   0  0  0  0  0  0  0  0  0  0  0  0
    4.8080   -8.0362   16.7101 C   0  0  0  0  0  0  0  0  0  0  0  0
   -1.2173   -3.9294   26.9717 O   0  0  0  0  0  0  0  0  0  0  0  0
   -1.0025   -5.0942   27.4586 C   0  0  0  0  0  0  0  0  0  0  0  0
    2.2474   -8.9123   16.6273 C   0  0  0  0  0  0  0  0  0  0  0  0
    4.4957   -9.2636   17.3041 C   0  0  0  0  0  0  0  0  0  0  0  0
   -1.8070   -5.6086   28.1920 O   0  0  0  0  0  0  0  0  0  0  0  0
   10.4296   -5.1799   28.3140 C   0  0  0  0  0  0  0  0  0  0  0  0
    6.6017   -5.9004   26.9187 C   0  0  0  0  0  0  0  0  0  0  0  0
    2.4761   -6.9940   26.4111 N   0  0  0  0  0  0  0  0  0  0  0  0
    9.1353   -5.4053   27.8239 C   0  0  0  0  0  0  0  0  0  0  0  0
    0.9922   -9.3232   16.5995 O   0  0  0  0  0  0  0  0  0  0  0  0
    1.5232   -7.6869   27.1182 C   0  0  0  0  0  0  0  0  0  0  0  0
    8.6878   -6.6715   27.7262 N   0  0  0  0  0  0  0  0  0  0  0  0
    6.9911   -8.2423   27.1808 C   0  0  0  0  0  0  0  0  0  0  0  0
    3.8436   -7.2758   16.0578 C   0  0  0  0  0  0  0  0  0  0  0  0
    3.1882   -9.7190   17.2566 C   0  0  0  0  0  0  0  0  0  0  0  0
    5.3488   -6.1737   26.5092 C   0  0  0  0  0  0  0  0  0  0  0  0
    7.4567   -6.9464   27.2858 C   0  0  0  0  0  0  0  0  0  0  0  0
    0.1921   -5.7592   27.1123 C   0  0  0  0  0  0  0  0  0  0  0  0
    3.5517   -7.7407   25.9711 C   0  0  0  0  0  0  0  0  0  0  0  0
  1  4  4  0
  1 22  4  0
  2 20  4  0
  2 27  4  0
  3 12  4  0
  3 23  4  0
  4 25  4  0
  4 28  1  0
  5  8  4  0
  5 17  4  0
  6  7  4  0
  6 16  4  0
  7 18  4  0
  8 27  4  0
  9 13  4  0
  9 23  4  0
 10 11  1  0
 11 14  2  0
 11 27  1  0
 12 19  1  0
 12 24  4  0
 13 24  4  0
 15 18  1  0
 16 25  4  0
 16 26  4  0
 17 20  4  0
 17 28  1  0
 18 21  4  0
 21 26  4  0
 22 26  4  0
M  END
$$$$

 Created by Python create_sdf_string function

 28 30  0  0  0  0  0  0  0  0999 V2000
    5.7174   -8.4529   26.7190 C   0  0  0  0  0  0  0  0  0  0  0  0
    0.3974   -7.0711   27.5149 C   0  0  0  0  0  0  0  0  0  0  0  0
    2.5338   -7.6891   16.0102 C   0  0  0  0  0  0  0  0  0  0  0  0
    4.8690   -7.4380   26.4151 C   0  0  0  0  0  0  0  0  0  0  0  0
    2.3021   -5.6726   26.0378 C   0  0  0  0  0  0  0  0  0  0  0  0
    7.0880   -4.6163   27.0010 C   0  0  0  0  0  0  0  0  0  0  0  0
    8.3117   -4.3698   27.4436 C   0  0  0  0  0  0  0  0  0  0  0  0
    1.1339   -5.0515   26.3541 C   0  0  0  0  0  0  0  0  0  0  0  0
    4.8080   -8.0362   16.7101 C   0  0  0  0  0  0  0  0  0  0  0  0
   -1.2173   -3.9294   26.9717 O   0  0  0  0  0  0  0  0  0  0  0  0
   -1.0025   -5.0942   27.4586 C   0  0  0  0  0  0  0  0  0  0  0  0
    2.2474   -8.9123   16.6273 C   0  0  0  0  0  0  0  0  0  0  0  0
    4.4957   -9.2636   17.3041 C   0  0  0  0  0  0  0  0  0  0  0  0
   -1.8070   -5.6086   28.1920 O   0  0  0  0  0  0  0  0  0  0  0  0
   10.4296   -5.1799   28.3140 C   0  0  0  0  0  0  0  0  0  0  0  0
    6.6017   -5.9004   26.9187 C   0  0  0  0  0  0  0  0  0  0  0  0
    2.4761   -6.9940   26.4111 N   0  0  0  0  0  0  0  0  0  0  0  0
    9.1353   -5.4053   27.8239 C   0  0  0  0  0  0  0  0  0  0  0  0
    0.9922   -9.3232   16.5995 O   0  0  0  0  0  0  0  0  0  0  0  0
    1.5232   -7.6869   27.1182 C   0  0  0  0  0  0  0  0  0  0  0  0
    8.6878   -6.6715   27.7262 N   0  0  0  0  0  0  0  0  0  0  0  0
    6.9911   -8.2423   27.1808 C   0  0  0  0  0  0  0  0  0  0  0  0
    3.8436   -7.2758   16.0578 C   0  0  0  0  0  0  0  0  0  0  0  0
    3.1882   -9.7190   17.2566 C   0  0  0  0  0  0  0  0  0  0  0  0
    5.3488   -6.1737   26.5092 C   0  0  0  0  0  0  0  0  0  0  0  0
    7.4567   -6.9464   27.2858 C   0  0  0  0  0  0  0  0  0  0  0  0
    0.1921   -5.7592   27.1123 C   0  0  0  0  0  0  0  0  0  0  0  0
    3.5517   -7.7407   25.9711 C   0  0  0  0  0  0  0  0  0  0  0  0
  1  4  4  0
  1 22  4  0
  2 20  4  0
  2 27  4  0
  3 12  4  0
  3 23  4  0
  4 25  4  0
  4 28  1  0
  5  8  4  0
  5 17  4  0
  6  7  4  0
  6 16  4  0
  7 18  4  0
  8 27  4  0
  9 13  4  0
  9 23  4  0
 10 11  1  0
 11 14  2  0
 11 27  1  0
 12 19  1  0
 12 24  4  0
 13 24  4  0
 15 18  1  0
 16 25  4  0
 16 26  4  0
 17 20  4  0
 17 28  1  0
 18 21  4  0
 21 26  4  0
 22 26  4  0
M  END
$$$$

 Created by Python create_sdf_string function

 28 30  0  0  0  0  0  0  0  0999 V2000
    5.7174   -8.4529   26.7190 C   0  0  0  0  0  0  0  0  0  0  0  0
    0.3974   -7.0711   27.5149 C   0  0  0  0  0  0  0  0  0  0  0  0
    2.5338   -7.6891   16.0102 C   0  0  0  0  0  0  0  0  0  0  0  0
    4.8690   -7.4380   26.4151 C   0  0  0  0  0  0  0  0  0  0  0  0
    2.3021   -5.6726   26.0378 C   0  0  0  0  0  0  0  0  0  0  0  0
    7.0880   -4.6163   27.0010 C   0  0  0  0  0  0  0  0  0  0  0  0
    8.3117   -4.3698   27.4436 C   0  0  0  0  0  0  0  0  0  0  0  0
    1.1339   -5.0515   26.3541 C   0  0  0  0  0  0  0  0  0  0  0  0
    4.8080   -8.0362   16.7101 C   0  0  0  0  0  0  0  0  0  0  0  0
   -1.2173   -3.9294   26.9717 O   0  0  0  0  0  0  0  0  0  0  0  0
   -1.0025   -5.0942   27.4586 C   0  0  0  0  0  0  0  0  0  0  0  0
    2.2474   -8.9123   16.6273 C   0  0  0  0  0  0  0  0  0  0  0  0
    4.4957   -9.2636   17.3041 C   0  0  0  0  0  0  0  0  0  0  0  0
   -1.8070   -5.6086   28.1920 O   0  0  0  0  0  0  0  0  0  0  0  0
   10.4296   -5.1799   28.3140 C   0  0  0  0  0  0  0  0  0  0  0  0
    6.6017   -5.9004   26.9187 C   0  0  0  0  0  0  0  0  0  0  0  0
    2.4761   -6.9940   26.4111 N   0  0  0  0  0  0  0  0  0  0  0  0
    9.1353   -5.4053   27.8239 C   0  0  0  0  0  0  0  0  0  0  0  0
    0.9922   -9.3232   16.5995 O   0  0  0  0  0  0  0  0  0  0  0  0
    1.5232   -7.6869   27.1182 C   0  0  0  0  0  0  0  0  0  0  0  0
    8.6878   -6.6715   27.7262 N   0  0  0  0  0  0  0  0  0  0  0  0
    6.9911   -8.2423   27.1808 C   0  0  0  0  0  0  0  0  0  0  0  0
    3.8436   -7.2758   16.0578 C   0  0  0  0  0  0  0  0  0  0  0  0
    3.1882   -9.7190   17.2566 C   0  0  0  0  0  0  0  0  0  0  0  0
    5.3488   -6.1737   26.5092 C   0  0  0  0  0  0  0  0  0  0  0  0
    7.4567   -6.9464   27.2858 C   0  0  0  0  0  0  0  0  0  0  0  0
    0.1921   -5.7592   27.1123 C   0  0  0  0  0  0  0  0  0  0  0  0
    3.5517   -7.7407   25.9711 C   0  0  0  0  0  0  0  0  0  0  0  0
  1  4  4  0
  1 22  4  0
  2 20  4  0
  2 27  4  0
  3 12  4  0
  3 23  4  0
  4 25  4  0
  4 28  1  0
  5  8  4  0
  5 17  4  0
  6  7  4  0
  6 16  4  0
  7 18  4  0
  8 27  4  0
  9 13  4  0
  9 23  4  0
 10 11  1  0
 11 14  2  0
 11 27  1  0
 12 19  1  0
 12 24  4  0
 13 24  4  0
 15 18  1  0
 16 25  4  0
 16 26  4  0
 17 20  4  0
 17 28  1  0
 18 21  4  0
 21 26  4  0
 22 26  4  0
M  END
$$$$

 Created by Python create_sdf_string function

 28 30  0  0  0  0  0  0  0  0999 V2000
    5.7174   -8.4529   26.7190 C   0  0  0  0  0  0  0  0  0  0  0  0
    0.3974   -7.0711   27.5149 C   0  0  0  0  0  0  0  0  0  0  0  0
    2.5338   -7.6891   16.0102 C   0  0  0  0  0  0  0  0  0  0  0  0
    4.8690   -7.4380   26.4151 C   0  0  0  0  0  0  0  0  0  0  0  0
    2.3021   -5.6726   26.0378 C   0  0  0  0  0  0  0  0  0  0  0  0
    7.0880   -4.6163   27.0010 C   0  0  0  0  0  0  0  0  0  0  0  0
    8.3117   -4.3698   27.4436 C   0  0  0  0  0  0  0  0  0  0  0  0
    1.1339   -5.0515   26.3541 C   0  0  0  0  0  0  0  0  0  0  0  0
    4.8080   -8.0362   16.7101 C   0  0  0  0  0  0  0  0  0  0  0  0
   -1.2173   -3.9294   26.9717 O   0  0  0  0  0  0  0  0  0  0  0  0
   -1.0025   -5.0942   27.4586 C   0  0  0  0  0  0  0  0  0  0  0  0
    2.2474   -8.9123   16.6273 C   0  0  0  0  0  0  0  0  0  0  0  0
    4.4957   -9.2636   17.3041 C   0  0  0  0  0  0  0  0  0  0  0  0
   -1.8070   -5.6086   28.1920 O   0  0  0  0  0  0  0  0  0  0  0  0
   10.4296   -5.1799   28.3140 C   0  0  0  0  0  0  0  0  0  0  0  0
    6.6017   -5.9004   26.9187 C   0  0  0  0  0  0  0  0  0  0  0  0
    2.4761   -6.9940   26.4111 N   0  0  0  0  0  0  0  0  0  0  0  0
    9.1353   -5.4053   27.8239 C   0  0  0  0  0  0  0  0  0  0  0  0
    0.9922   -9.3232   16.5995 O   0  0  0  0  0  0  0  0  0  0  0  0
    1.5232   -7.6869   27.1182 C   0  0  0  0  0  0  0  0  0  0  0  0
    8.6878   -6.6715   27.7262 N   0  0  0  0  0  0  0  0  0  0  0  0
    6.9911   -8.2423   27.1808 C   0  0  0  0  0  0  0  0  0  0  0  0
    3.8436   -7.2758   16.0578 C   0  0  0  0  0  0  0  0  0  0  0  0
    3.1882   -9.7190   17.2566 C   0  0  0  0  0  0  0  0  0  0  0  0
    5.3488   -6.1737   26.5092 C   0  0  0  0  0  0  0  0  0  0  0  0
    7.4567   -6.9464   27.2858 C   0  0  0  0  0  0  0  0  0  0  0  0
    0.1921   -5.7592   27.1123 C   0  0  0  0  0  0  0  0  0  0  0  0
    3.5517   -7.7407   25.9711 C   0  0  0  0  0  0  0  0  0  0  0  0
  1  4  4  0
  1 22  4  0
  2 20  4  0
  2 27  4  0
  3 12  4  0
  3 23  4  0
  4 25  4  0
  4 28  1  0
  5  8  4  0
  5 17  4  0
  6  7  4  0
  6 16  4  0
  7 18  4  0
  8 27  4  0
  9 13  4  0
  9 23  4  0
 10 11  1  0
 11 14  2  0
 11 27  1  0
 12 19  1  0
 12 24  4  0
 13 24  4  0
 15 18  1  0
 16 25  4  0
 16 26  4  0
 17 20  4  0
 17 28  1  0
 18 21  4  0
 21 26  4  0
 22 26  4  0
M  END
$$$$

 Created by Python create_sdf_string function

 28 30  0  0  0  0  0  0  0  0999 V2000
    5.7174   -8.4529   26.7190 C   0  0  0  0  0  0  0  0  0  0  0  0
    0.3974   -7.0711   27.5149 C   0  0  0  0  0  0  0  0  0  0  0  0
    2.5338   -7.6891   16.0102 C   0  0  0  0  0  0  0  0  0  0  0  0
    4.8690   -7.4380   26.4151 C   0  0  0  0  0  0  0  0  0  0  0  0
    2.3021   -5.6726   26.0378 C   0  0  0  0  0  0  0  0  0  0  0  0
    7.0880   -4.6163   27.0010 C   0  0  0  0  0  0  0  0  0  0  0  0
    8.3117   -4.3698   27.4436 C   0  0  0  0  0  0  0  0  0  0  0  0
    1.1339   -5.0515   26.3541 C   0  0  0  0  0  0  0  0  0  0  0  0
    4.8080   -8.0362   16.7101 C   0  0  0  0  0  0  0  0  0  0  0  0
   -1.2173   -3.9294   26.9717 O   0  0  0  0  0  0  0  0  0  0  0  0
   -1.0025   -5.0942   27.4586 C   0  0  0  0  0  0  0  0  0  0  0  0
    2.2474   -8.9123   16.6273 C   0  0  0  0  0  0  0  0  0  0  0  0
    4.4957   -9.2636   17.3041 C   0  0  0  0  0  0  0  0  0  0  0  0
   -1.8070   -5.6086   28.1920 O   0  0  0  0  0  0  0  0  0  0  0  0
   10.4296   -5.1799   28.3140 C   0  0  0  0  0  0  0  0  0  0  0  0
    6.6017   -5.9004   26.9187 C   0  0  0  0  0  0  0  0  0  0  0  0
    2.4761   -6.9940   26.4111 N   0  0  0  0  0  0  0  0  0  0  0  0
    9.1353   -5.4053   27.8239 C   0  0  0  0  0  0  0  0  0  0  0  0
    0.9922   -9.3232   16.5995 O   0  0  0  0  0  0  0  0  0  0  0  0
    1.5232   -7.6869   27.1182 C   0  0  0  0  0  0  0  0  0  0  0  0
    8.6878   -6.6715   27.7262 N   0  0  0  0  0  0  0  0  0  0  0  0
    6.9911   -8.2423   27.1808 C   0  0  0  0  0  0  0  0  0  0  0  0
    3.8436   -7.2758   16.0578 C   0  0  0  0  0  0  0  0  0  0  0  0
    3.1882   -9.7190   17.2566 C   0  0  0  0  0  0  0  0  0  0  0  0
    5.3488   -6.1737   26.5092 C   0  0  0  0  0  0  0  0  0  0  0  0
    7.4567   -6.9464   27.2858 C   0  0  0  0  0  0  0  0  0  0  0  0
    0.1921   -5.7592   27.1123 C   0  0  0  0  0  0  0  0  0  0  0  0
    3.5517   -7.7407   25.9711 C   0  0  0  0  0  0  0  0  0  0  0  0
  1  4  4  0
  1 22  4  0
  2 20  4  0
  2 27  4  0
  3 12  4  0
  3 23  4  0
  4 25  4  0
  4 28  1  0
  5  8  4  0
  5 17  4  0
  6  7  4  0
  6 16  4  0
  7 18  4  0
  8 27  4  0
  9 13  4  0
  9 23  4  0
 10 11  1  0
 11 14  2  0
 11 27  1  0
 12 19  1  0
 12 24  4  0
 13 24  4  0
 15 18  1  0
 16 25  4  0
 16 26  4  0
 17 20  4  0
 17 28  1  0
 18 21  4  0
 21 26  4  0
 22 26  4  0
M  END
$$$$

 Created by Python create_sdf_string function

 28 30  0  0  0  0  0  0  0  0999 V2000
    5.7174   -8.4529   26.7190 C   0  0  0  0  0  0  0  0  0  0  0  0
    0.3974   -7.0711   27.5149 C   0  0  0  0  0  0  0  0  0  0  0  0
    2.5338   -7.6891   16.0102 C   0  0  0  0  0  0  0  0  0  0  0  0
    4.8690   -7.4380   26.4151 C   0  0  0  0  0  0  0  0  0  0  0  0
    2.3021   -5.6726   26.0378 C   0  0  0  0  0  0  0  0  0  0  0  0
    7.0880   -4.6163   27.0010 C   0  0  0  0  0  0  0  0  0  0  0  0
    8.3117   -4.3698   27.4436 C   0  0  0  0  0  0  0  0  0  0  0  0
    1.1339   -5.0515   26.3541 C   0  0  0  0  0  0  0  0  0  0  0  0
    4.8080   -8.0362   16.7101 C   0  0  0  0  0  0  0  0  0  0  0  0
   -1.2173   -3.9294   26.9717 O   0  0  0  0  0  0  0  0  0  0  0  0
   -1.0025   -5.0942   27.4586 C   0  0  0  0  0  0  0  0  0  0  0  0
    2.2474   -8.9123   16.6273 C   0  0  0  0  0  0  0  0  0  0  0  0
    4.4957   -9.2636   17.3041 C   0  0  0  0  0  0  0  0  0  0  0  0
   -1.8070   -5.6086   28.1920 O   0  0  0  0  0  0  0  0  0  0  0  0
   10.4296   -5.1799   28.3140 C   0  0  0  0  0  0  0  0  0  0  0  0
    6.6017   -5.9004   26.9187 C   0  0  0  0  0  0  0  0  0  0  0  0
    2.4761   -6.9940   26.4111 N   0  0  0  0  0  0  0  0  0  0  0  0
    9.1353   -5.4053   27.8239 C   0  0  0  0  0  0  0  0  0  0  0  0
    0.9922   -9.3232   16.5995 O   0  0  0  0  0  0  0  0  0  0  0  0
    1.5232   -7.6869   27.1182 C   0  0  0  0  0  0  0  0  0  0  0  0
    8.6878   -6.6715   27.7262 N   0  0  0  0  0  0  0  0  0  0  0  0
    6.9911   -8.2423   27.1808 C   0  0  0  0  0  0  0  0  0  0  0  0
    3.8436   -7.2758   16.0578 C   0  0  0  0  0  0  0  0  0  0  0  0
    3.1882   -9.7190   17.2566 C   0  0  0  0  0  0  0  0  0  0  0  0
    5.3488   -6.1737   26.5092 C   0  0  0  0  0  0  0  0  0  0  0  0
    7.4567   -6.9464   27.2858 C   0  0  0  0  0  0  0  0  0  0  0  0
    0.1921   -5.7592   27.1123 C   0  0  0  0  0  0  0  0  0  0  0  0
    3.5517   -7.7407   25.9711 C   0  0  0  0  0  0  0  0  0  0  0  0
  1  4  4  0
  1 22  4  0
  2 20  4  0
  2 27  4  0
  3 12  4  0
  3 23  4  0
  4 25  4  0
  4 28  1  0
  5  8  4  0
  5 17  4  0
  6  7  4  0
  6 16  4  0
  7 18  4  0
  8 27  4  0
  9 13  4  0
  9 23  4  0
 10 11  1  0
 11 14  2  0
 11 27  1  0
 12 19  1  0
 12 24  4  0
 13 24  4  0
 15 18  1  0
 16 25  4  0
 16 26  4  0
 17 20  4  0
 17 28  1  0
 18 21  4  0
 21 26  4  0
 22 26  4  0
M  END
$$$$

 Created by Python create_sdf_string function

 28 30  0  0  0  0  0  0  0  0999 V2000
    5.7174   -8.4529   26.7190 C   0  0  0  0  0  0  0  0  0  0  0  0
    0.3974   -7.0711   27.5149 C   0  0  0  0  0  0  0  0  0  0  0  0
    2.5338   -7.6891   16.0102 C   0  0  0  0  0  0  0  0  0  0  0  0
    4.8690   -7.4380   26.4151 C   0  0  0  0  0  0  0  0  0  0  0  0
    2.3021   -5.6726   26.0378 C   0  0  0  0  0  0  0  0  0  0  0  0
    7.0880   -4.6163   27.0010 C   0  0  0  0  0  0  0  0  0  0  0  0
    8.3117   -4.3698   27.4436 C   0  0  0  0  0  0  0  0  0  0  0  0
    1.1339   -5.0515   26.3541 C   0  0  0  0  0  0  0  0  0  0  0  0
    4.8080   -8.0362   16.7101 C   0  0  0  0  0  0  0  0  0  0  0  0
   -1.2173   -3.9294   26.9717 O   0  0  0  0  0  0  0  0  0  0  0  0
   -1.0025   -5.0942   27.4586 C   0  0  0  0  0  0  0  0  0  0  0  0
    2.2474   -8.9123   16.6273 C   0  0  0  0  0  0  0  0  0  0  0  0
    4.4957   -9.2636   17.3041 C   0  0  0  0  0  0  0  0  0  0  0  0
   -1.8070   -5.6086   28.1920 O   0  0  0  0  0  0  0  0  0  0  0  0
   10.4296   -5.1799   28.3140 C   0  0  0  0  0  0  0  0  0  0  0  0
    6.6017   -5.9004   26.9187 C   0  0  0  0  0  0  0  0  0  0  0  0
    2.4761   -6.9940   26.4111 N   0  0  0  0  0  0  0  0  0  0  0  0
    9.1353   -5.4053   27.8239 C   0  0  0  0  0  0  0  0  0  0  0  0
    0.9922   -9.3232   16.5995 O   0  0  0  0  0  0  0  0  0  0  0  0
    1.5232   -7.6869   27.1182 C   0  0  0  0  0  0  0  0  0  0  0  0
    8.6878   -6.6715   27.7262 N   0  0  0  0  0  0  0  0  0  0  0  0
    6.9911   -8.2423   27.1808 C   0  0  0  0  0  0  0  0  0  0  0  0
    3.8436   -7.2758   16.0578 C   0  0  0  0  0  0  0  0  0  0  0  0
    3.1882   -9.7190   17.2566 C   0  0  0  0  0  0  0  0  0  0  0  0
    5.3488   -6.1737   26.5092 C   0  0  0  0  0  0  0  0  0  0  0  0
    7.4567   -6.9464   27.2858 C   0  0  0  0  0  0  0  0  0  0  0  0
    0.1921   -5.7592   27.1123 C   0  0  0  0  0  0  0  0  0  0  0  0
    3.5517   -7.7407   25.9711 C   0  0  0  0  0  0  0  0  0  0  0  0
  1  4  4  0
  1 22  4  0
  2 20  4  0
  2 27  4  0
  3 12  4  0
  3 23  4  0
  4 25  4  0
  4 28  1  0
  5  8  4  0
  5 17  4  0
  6  7  4  0
  6 16  4  0
  7 18  4  0
  8 27  4  0
  9 13  4  0
  9 23  4  0
 10 11  1  0
 11 14  2  0
 11 27  1  0
 12 19  1  0
 12 24  4  0
 13 24  4  0
 15 18  1  0
 16 25  4  0
 16 26  4  0
 17 20  4  0
 17 28  1  0
 18 21  4  0
 21 26  4  0
 22 26  4  0
M  END
$$$$

 Created by Python create_sdf_string function

 28 30  0  0  0  0  0  0  0  0999 V2000
    5.7174   -8.4529   26.7190 C   0  0  0  0  0  0  0  0  0  0  0  0
    0.3974   -7.0711   27.5149 C   0  0  0  0  0  0  0  0  0  0  0  0
    2.5338   -7.6891   16.0102 C   0  0  0  0  0  0  0  0  0  0  0  0
    4.8690   -7.4380   26.4151 C   0  0  0  0  0  0  0  0  0  0  0  0
    2.3021   -5.6726   26.0378 C   0  0  0  0  0  0  0  0  0  0  0  0
    7.0880   -4.6163   27.0010 C   0  0  0  0  0  0  0  0  0  0  0  0
    8.3117   -4.3698   27.4436 C   0  0  0  0  0  0  0  0  0  0  0  0
    1.1339   -5.0515   26.3541 C   0  0  0  0  0  0  0  0  0  0  0  0
    4.8080   -8.0362   16.7101 C   0  0  0  0  0  0  0  0  0  0  0  0
   -1.2173   -3.9294   26.9717 O   0  0  0  0  0  0  0  0  0  0  0  0
   -1.0025   -5.0942   27.4586 C   0  0  0  0  0  0  0  0  0  0  0  0
    2.2474   -8.9123   16.6273 C   0  0  0  0  0  0  0  0  0  0  0  0
    4.4957   -9.2636   17.3041 C   0  0  0  0  0  0  0  0  0  0  0  0
   -1.8070   -5.6086   28.1920 O   0  0  0  0  0  0  0  0  0  0  0  0
   10.4296   -5.1799   28.3140 C   0  0  0  0  0  0  0  0  0  0  0  0
    6.6017   -5.9004   26.9187 C   0  0  0  0  0  0  0  0  0  0  0  0
    2.4761   -6.9940   26.4111 N   0  0  0  0  0  0  0  0  0  0  0  0
    9.1353   -5.4053   27.8239 C   0  0  0  0  0  0  0  0  0  0  0  0
    0.9922   -9.3232   16.5995 O   0  0  0  0  0  0  0  0  0  0  0  0
    1.5232   -7.6869   27.1182 C   0  0  0  0  0  0  0  0  0  0  0  0
    8.6878   -6.6715   27.7262 N   0  0  0  0  0  0  0  0  0  0  0  0
    6.9911   -8.2423   27.1808 C   0  0  0  0  0  0  0  0  0  0  0  0
    3.8436   -7.2758   16.0578 C   0  0  0  0  0  0  0  0  0  0  0  0
    3.1882   -9.7190   17.2566 C   0  0  0  0  0  0  0  0  0  0  0  0
    5.3488   -6.1737   26.5092 C   0  0  0  0  0  0  0  0  0  0  0  0
    7.4567   -6.9464   27.2858 C   0  0  0  0  0  0  0  0  0  0  0  0
    0.1921   -5.7592   27.1123 C   0  0  0  0  0  0  0  0  0  0  0  0
    3.5517   -7.7407   25.9711 C   0  0  0  0  0  0  0  0  0  0  0  0
  1  4  4  0
  1 22  4  0
  2 20  4  0
  2 27  4  0
  3 12  4  0
  3 23  4  0
  4 25  4  0
  4 28  1  0
  5  8  4  0
  5 17  4  0
  6  7  4  0
  6 16  4  0
  7 18  4  0
  8 27  4  0
  9 13  4  0
  9 23  4  0
 10 11  1  0
 11 14  2  0
 11 27  1  0
 12 19  1  0
 12 24  4  0
 13 24  4  0
 15 18  1  0
 16 25  4  0
 16 26  4  0
 17 20  4  0
 17 28  1  0
 18 21  4  0
 21 26  4  0
 22 26  4  0
M  END
$$$$

 Created by Python create_sdf_string function

 28 30  0  0  0  0  0  0  0  0999 V2000
    5.7174   -8.4529   26.7190 C   0  0  0  0  0  0  0  0  0  0  0  0
    0.3974   -7.0711   27.5149 C   0  0  0  0  0  0  0  0  0  0  0  0
    2.5338   -7.6891   16.0102 C   0  0  0  0  0  0  0  0  0  0  0  0
    4.8690   -7.4380   26.4151 C   0  0  0  0  0  0  0  0  0  0  0  0
    2.3021   -5.6726   26.0378 C   0  0  0  0  0  0  0  0  0  0  0  0
    7.0880   -4.6163   27.0010 C   0  0  0  0  0  0  0  0  0  0  0  0
    8.3117   -4.3698   27.4436 C   0  0  0  0  0  0  0  0  0  0  0  0
    1.1339   -5.0515   26.3541 C   0  0  0  0  0  0  0  0  0  0  0  0
    4.8080   -8.0362   16.7101 C   0  0  0  0  0  0  0  0  0  0  0  0
   -1.2173   -3.9294   26.9717 O   0  0  0  0  0  0  0  0  0  0  0  0
   -1.0025   -5.0942   27.4586 C   0  0  0  0  0  0  0  0  0  0  0  0
    2.2474   -8.9123   16.6273 C   0  0  0  0  0  0  0  0  0  0  0  0
    4.4957   -9.2636   17.3041 C   0  0  0  0  0  0  0  0  0  0  0  0
   -1.8070   -5.6086   28.1920 O   0  0  0  0  0  0  0  0  0  0  0  0
   10.4296   -5.1799   28.3140 C   0  0  0  0  0  0  0  0  0  0  0  0
    6.6017   -5.9004   26.9187 C   0  0  0  0  0  0  0  0  0  0  0  0
    2.4761   -6.9940   26.4111 N   0  0  0  0  0  0  0  0  0  0  0  0
    9.1353   -5.4053   27.8239 C   0  0  0  0  0  0  0  0  0  0  0  0
    0.9922   -9.3232   16.5995 O   0  0  0  0  0  0  0  0  0  0  0  0
    1.5232   -7.6869   27.1182 C   0  0  0  0  0  0  0  0  0  0  0  0
    8.6878   -6.6715   27.7262 N   0  0  0  0  0  0  0  0  0  0  0  0
    6.9911   -8.2423   27.1808 C   0  0  0  0  0  0  0  0  0  0  0  0
    3.8436   -7.2758   16.0578 C   0  0  0  0  0  0  0  0  0  0  0  0
    3.1882   -9.7190   17.2566 C   0  0  0  0  0  0  0  0  0  0  0  0
    5.3488   -6.1737   26.5092 C   0  0  0  0  0  0  0  0  0  0  0  0
    7.4567   -6.9464   27.2858 C   0  0  0  0  0  0  0  0  0  0  0  0
    0.1921   -5.7592   27.1123 C   0  0  0  0  0  0  0  0  0  0  0  0
    3.5517   -7.7407   25.9711 C   0  0  0  0  0  0  0  0  0  0  0  0
  1  4  4  0
  1 22  4  0
  2 20  4  0
  2 27  4  0
  3 12  4  0
  3 23  4  0
  4 25  4  0
  4 28  1  0
  5  8  4  0
  5 17  4  0
  6  7  4  0
  6 16  4  0
  7 18  4  0
  8 27  4  0
  9 13  4  0
  9 23  4  0
 10 11  1  0
 11 14  2  0
 11 27  1  0
 12 19  1  0
 12 24  4  0
 13 24  4  0
 15 18  1  0
 16 25  4  0
 16 26  4  0
 17 20  4  0
 17 28  1  0
 18 21  4  0
 21 26  4  0
 22 26  4  0
M  END
$$$$

 Created by Python create_sdf_string function

 28 30  0  0  0  0  0  0  0  0999 V2000
    5.7174   -8.4529   26.7190 C   0  0  0  0  0  0  0  0  0  0  0  0
    0.3974   -7.0711   27.5149 C   0  0  0  0  0  0  0  0  0  0  0  0
    2.5338   -7.6891   16.0102 C   0  0  0  0  0  0  0  0  0  0  0  0
    4.8690   -7.4380   26.4151 C   0  0  0  0  0  0  0  0  0  0  0  0
    2.3021   -5.6726   26.0378 C   0  0  0  0  0  0  0  0  0  0  0  0
    7.0880   -4.6163   27.0010 C   0  0  0  0  0  0  0  0  0  0  0  0
    8.3117   -4.3698   27.4436 C   0  0  0  0  0  0  0  0  0  0  0  0
    1.1339   -5.0515   26.3541 C   0  0  0  0  0  0  0  0  0  0  0  0
    4.8080   -8.0362   16.7101 C   0  0  0  0  0  0  0  0  0  0  0  0
   -1.2173   -3.9294   26.9717 O   0  0  0  0  0  0  0  0  0  0  0  0
   -1.0025   -5.0942   27.4586 C   0  0  0  0  0  0  0  0  0  0  0  0
    2.2474   -8.9123   16.6273 C   0  0  0  0  0  0  0  0  0  0  0  0
    4.4957   -9.2636   17.3041 C   0  0  0  0  0  0  0  0  0  0  0  0
   -1.8070   -5.6086   28.1920 O   0  0  0  0  0  0  0  0  0  0  0  0
   10.4296   -5.1799   28.3140 C   0  0  0  0  0  0  0  0  0  0  0  0
    6.6017   -5.9004   26.9187 C   0  0  0  0  0  0  0  0  0  0  0  0
    2.4761   -6.9940   26.4111 N   0  0  0  0  0  0  0  0  0  0  0  0
    9.1353   -5.4053   27.8239 C   0  0  0  0  0  0  0  0  0  0  0  0
    0.9922   -9.3232   16.5995 O   0  0  0  0  0  0  0  0  0  0  0  0
    1.5232   -7.6869   27.1182 C   0  0  0  0  0  0  0  0  0  0  0  0
    8.6878   -6.6715   27.7262 N   0  0  0  0  0  0  0  0  0  0  0  0
    6.9911   -8.2423   27.1808 C   0  0  0  0  0  0  0  0  0  0  0  0
    3.8436   -7.2758   16.0578 C   0  0  0  0  0  0  0  0  0  0  0  0
    3.1882   -9.7190   17.2566 C   0  0  0  0  0  0  0  0  0  0  0  0
    5.3488   -6.1737   26.5092 C   0  0  0  0  0  0  0  0  0  0  0  0
    7.4567   -6.9464   27.2858 C   0  0  0  0  0  0  0  0  0  0  0  0
    0.1921   -5.7592   27.1123 C   0  0  0  0  0  0  0  0  0  0  0  0
    3.5517   -7.7407   25.9711 C   0  0  0  0  0  0  0  0  0  0  0  0
  1  4  4  0
  1 22  4  0
  2 20  4  0
  2 27  4  0
  3 12  4  0
  3 23  4  0
  4 25  4  0
  4 28  1  0
  5  8  4  0
  5 17  4  0
  6  7  4  0
  6 16  4  0
  7 18  4  0
  8 27  4  0
  9 13  4  0
  9 23  4  0
 10 11  1  0
 11 14  2  0
 11 27  1  0
 12 19  1  0
 12 24  4  0
 13 24  4  0
 15 18  1  0
 16 25  4  0
 16 26  4  0
 17 20  4  0
 17 28  1  0
 18 21  4  0
 21 26  4  0
 22 26  4  0
M  END
$$$$

 Created by Python create_sdf_string function

 28 30  0  0  0  0  0  0  0  0999 V2000
    5.7174   -8.4529   26.7190 C   0  0  0  0  0  0  0  0  0  0  0  0
    0.3974   -7.0711   27.5149 C   0  0  0  0  0  0  0  0  0  0  0  0
    2.5338   -7.6891   16.0102 C   0  0  0  0  0  0  0  0  0  0  0  0
    4.8690   -7.4380   26.4151 C   0  0  0  0  0  0  0  0  0  0  0  0
    2.3021   -5.6726   26.0378 C   0  0  0  0  0  0  0  0  0  0  0  0
    7.0880   -4.6163   27.0010 C   0  0  0  0  0  0  0  0  0  0  0  0
    8.3117   -4.3698   27.4436 C   0  0  0  0  0  0  0  0  0  0  0  0
    1.1339   -5.0515   26.3541 C   0  0  0  0  0  0  0  0  0  0  0  0
    4.8080   -8.0362   16.7101 C   0  0  0  0  0  0  0  0  0  0  0  0
   -1.2173   -3.9294   26.9717 O   0  0  0  0  0  0  0  0  0  0  0  0
   -1.0025   -5.0942   27.4586 C   0  0  0  0  0  0  0  0  0  0  0  0
    2.2474   -8.9123   16.6273 C   0  0  0  0  0  0  0  0  0  0  0  0
    4.4957   -9.2636   17.3041 C   0  0  0  0  0  0  0  0  0  0  0  0
   -1.8070   -5.6086   28.1920 O   0  0  0  0  0  0  0  0  0  0  0  0
   10.4296   -5.1799   28.3140 C   0  0  0  0  0  0  0  0  0  0  0  0
    6.6017   -5.9004   26.9187 C   0  0  0  0  0  0  0  0  0  0  0  0
    2.4761   -6.9940   26.4111 N   0  0  0  0  0  0  0  0  0  0  0  0
    9.1353   -5.4053   27.8239 C   0  0  0  0  0  0  0  0  0  0  0  0
    0.9922   -9.3232   16.5995 O   0  0  0  0  0  0  0  0  0  0  0  0
    1.5232   -7.6869   27.1182 C   0  0  0  0  0  0  0  0  0  0  0  0
    8.6878   -6.6715   27.7262 N   0  0  0  0  0  0  0  0  0  0  0  0
    6.9911   -8.2423   27.1808 C   0  0  0  0  0  0  0  0  0  0  0  0
    3.8436   -7.2758   16.0578 C   0  0  0  0  0  0  0  0  0  0  0  0
    3.1882   -9.7190   17.2566 C   0  0  0  0  0  0  0  0  0  0  0  0
    5.3488   -6.1737   26.5092 C   0  0  0  0  0  0  0  0  0  0  0  0
    7.4567   -6.9464   27.2858 C   0  0  0  0  0  0  0  0  0  0  0  0
    0.1921   -5.7592   27.1123 C   0  0  0  0  0  0  0  0  0  0  0  0
    3.5517   -7.7407   25.9711 C   0  0  0  0  0  0  0  0  0  0  0  0
  1  4  4  0
  1 22  4  0
  2 20  4  0
  2 27  4  0
  3 12  4  0
  3 23  4  0
  4 25  4  0
  4 28  1  0
  5  8  4  0
  5 17  4  0
  6  7  4  0
  6 16  4  0
  7 18  4  0
  8 27  4  0
  9 13  4  0
  9 23  4  0
 10 11  1  0
 11 14  2  0
 11 27  1  0
 12 19  1  0
 12 24  4  0
 13 24  4  0
 15 18  1  0
 16 25  4  0
 16 26  4  0
 17 20  4  0
 17 28  1  0
 18 21  4  0
 21 26  4  0
 22 26  4  0
M  END
$$$$

 Created by Python create_sdf_string function

 28 30  0  0  0  0  0  0  0  0999 V2000
    5.7174   -8.4529   26.7190 C   0  0  0  0  0  0  0  0  0  0  0  0
    0.3974   -7.0711   27.5149 C   0  0  0  0  0  0  0  0  0  0  0  0
    2.5338   -7.6891   16.0102 C   0  0  0  0  0  0  0  0  0  0  0  0
    4.8690   -7.4380   26.4151 C   0  0  0  0  0  0  0  0  0  0  0  0
    2.3021   -5.6726   26.0378 C   0  0  0  0  0  0  0  0  0  0  0  0
    7.0880   -4.6163   27.0010 C   0  0  0  0  0  0  0  0  0  0  0  0
    8.3117   -4.3698   27.4436 C   0  0  0  0  0  0  0  0  0  0  0  0
    1.1339   -5.0515   26.3541 C   0  0  0  0  0  0  0  0  0  0  0  0
    4.8080   -8.0362   16.7101 C   0  0  0  0  0  0  0  0  0  0  0  0
   -1.2173   -3.9294   26.9717 O   0  0  0  0  0  0  0  0  0  0  0  0
   -1.0025   -5.0942   27.4586 C   0  0  0  0  0  0  0  0  0  0  0  0
    2.2474   -8.9123   16.6273 C   0  0  0  0  0  0  0  0  0  0  0  0
    4.4957   -9.2636   17.3041 C   0  0  0  0  0  0  0  0  0  0  0  0
   -1.8070   -5.6086   28.1920 O   0  0  0  0  0  0  0  0  0  0  0  0
   10.4296   -5.1799   28.3140 C   0  0  0  0  0  0  0  0  0  0  0  0
    6.6017   -5.9004   26.9187 C   0  0  0  0  0  0  0  0  0  0  0  0
    2.4761   -6.9940   26.4111 N   0  0  0  0  0  0  0  0  0  0  0  0
    9.1353   -5.4053   27.8239 C   0  0  0  0  0  0  0  0  0  0  0  0
    0.9922   -9.3232   16.5995 O   0  0  0  0  0  0  0  0  0  0  0  0
    1.5232   -7.6869   27.1182 C   0  0  0  0  0  0  0  0  0  0  0  0
    8.6878   -6.6715   27.7262 N   0  0  0  0  0  0  0  0  0  0  0  0
    6.9911   -8.2423   27.1808 C   0  0  0  0  0  0  0  0  0  0  0  0
    3.8436   -7.2758   16.0578 C   0  0  0  0  0  0  0  0  0  0  0  0
    3.1882   -9.7190   17.2566 C   0  0  0  0  0  0  0  0  0  0  0  0
    5.3488   -6.1737   26.5092 C   0  0  0  0  0  0  0  0  0  0  0  0
    7.4567   -6.9464   27.2858 C   0  0  0  0  0  0  0  0  0  0  0  0
    0.1921   -5.7592   27.1123 C   0  0  0  0  0  0  0  0  0  0  0  0
    3.5517   -7.7407   25.9711 C   0  0  0  0  0  0  0  0  0  0  0  0
  1  4  4  0
  1 22  4  0
  2 20  4  0
  2 27  4  0
  3 12  4  0
  3 23  4  0
  4 25  4  0
  4 28  1  0
  5  8  4  0
  5 17  4  0
  6  7  4  0
  6 16  4  0
  7 18  4  0
  8 27  4  0
  9 13  4  0
  9 23  4  0
 10 11  1  0
 11 14  2  0
 11 27  1  0
 12 19  1  0
 12 24  4  0
 13 24  4  0
 15 18  1  0
 16 25  4  0
 16 26  4  0
 17 20  4  0
 17 28  1  0
 18 21  4  0
 21 26  4  0
 22 26  4  0
M  END
$$$$

 Created by Python create_sdf_string function

 28 30  0  0  0  0  0  0  0  0999 V2000
    5.7174   -8.4529   26.7190 C   0  0  0  0  0  0  0  0  0  0  0  0
    0.3974   -7.0711   27.5149 C   0  0  0  0  0  0  0  0  0  0  0  0
    2.5338   -7.6891   16.0102 C   0  0  0  0  0  0  0  0  0  0  0  0
    4.8690   -7.4380   26.4151 C   0  0  0  0  0  0  0  0  0  0  0  0
    2.3021   -5.6726   26.0378 C   0  0  0  0  0  0  0  0  0  0  0  0
    7.0880   -4.6163   27.0010 C   0  0  0  0  0  0  0  0  0  0  0  0
    8.3117   -4.3698   27.4436 C   0  0  0  0  0  0  0  0  0  0  0  0
    1.1339   -5.0515   26.3541 C   0  0  0  0  0  0  0  0  0  0  0  0
    4.8080   -8.0362   16.7101 C   0  0  0  0  0  0  0  0  0  0  0  0
   -1.2173   -3.9294   26.9717 O   0  0  0  0  0  0  0  0  0  0  0  0
   -1.0025   -5.0942   27.4586 C   0  0  0  0  0  0  0  0  0  0  0  0
    2.2474   -8.9123   16.6273 C   0  0  0  0  0  0  0  0  0  0  0  0
    4.4957   -9.2636   17.3041 C   0  0  0  0  0  0  0  0  0  0  0  0
   -1.8070   -5.6086   28.1920 O   0  0  0  0  0  0  0  0  0  0  0  0
   10.4296   -5.1799   28.3140 C   0  0  0  0  0  0  0  0  0  0  0  0
    6.6017   -5.9004   26.9187 C   0  0  0  0  0  0  0  0  0  0  0  0
    2.4761   -6.9940   26.4111 N   0  0  0  0  0  0  0  0  0  0  0  0
    9.1353   -5.4053   27.8239 C   0  0  0  0  0  0  0  0  0  0  0  0
    0.9922   -9.3232   16.5995 O   0  0  0  0  0  0  0  0  0  0  0  0
    1.5232   -7.6869   27.1182 C   0  0  0  0  0  0  0  0  0  0  0  0
    8.6878   -6.6715   27.7262 N   0  0  0  0  0  0  0  0  0  0  0  0
    6.9911   -8.2423   27.1808 C   0  0  0  0  0  0  0  0  0  0  0  0
    3.8436   -7.2758   16.0578 C   0  0  0  0  0  0  0  0  0  0  0  0
    3.1882   -9.7190   17.2566 C   0  0  0  0  0  0  0  0  0  0  0  0
    5.3488   -6.1737   26.5092 C   0  0  0  0  0  0  0  0  0  0  0  0
    7.4567   -6.9464   27.2858 C   0  0  0  0  0  0  0  0  0  0  0  0
    0.1921   -5.7592   27.1123 C   0  0  0  0  0  0  0  0  0  0  0  0
    3.5517   -7.7407   25.9711 C   0  0  0  0  0  0  0  0  0  0  0  0
  1  4  4  0
  1 22  4  0
  2 20  4  0
  2 27  4  0
  3 12  4  0
  3 23  4  0
  4 25  4  0
  4 28  1  0
  5  8  4  0
  5 17  4  0
  6  7  4  0
  6 16  4  0
  7 18  4  0
  8 27  4  0
  9 13  4  0
  9 23  4  0
 10 11  1  0
 11 14  2  0
 11 27  1  0
 12 19  1  0
 12 24  4  0
 13 24  4  0
 15 18  1  0
 16 25  4  0
 16 26  4  0
 17 20  4  0
 17 28  1  0
 18 21  4  0
 21 26  4  0
 22 26  4  0
M  END
$$$$

 Created by Python create_sdf_string function

 28 30  0  0  0  0  0  0  0  0999 V2000
    5.7174   -8.4529   26.7190 C   0  0  0  0  0  0  0  0  0  0  0  0
    0.3974   -7.0711   27.5149 C   0  0  0  0  0  0  0  0  0  0  0  0
    2.5338   -7.6891   16.0102 C   0  0  0  0  0  0  0  0  0  0  0  0
    4.8690   -7.4380   26.4151 C   0  0  0  0  0  0  0  0  0  0  0  0
    2.3021   -5.6726   26.0378 C   0  0  0  0  0  0  0  0  0  0  0  0
    7.0880   -4.6163   27.0010 C   0  0  0  0  0  0  0  0  0  0  0  0
    8.3117   -4.3698   27.4436 C   0  0  0  0  0  0  0  0  0  0  0  0
    1.1339   -5.0515   26.3541 C   0  0  0  0  0  0  0  0  0  0  0  0
    4.8080   -8.0362   16.7101 C   0  0  0  0  0  0  0  0  0  0  0  0
   -1.2173   -3.9294   26.9717 O   0  0  0  0  0  0  0  0  0  0  0  0
   -1.0025   -5.0942   27.4586 C   0  0  0  0  0  0  0  0  0  0  0  0
    2.2474   -8.9123   16.6273 C   0  0  0  0  0  0  0  0  0  0  0  0
    4.4957   -9.2636   17.3041 C   0  0  0  0  0  0  0  0  0  0  0  0
   -1.8070   -5.6086   28.1920 O   0  0  0  0  0  0  0  0  0  0  0  0
   10.4296   -5.1799   28.3140 C   0  0  0  0  0  0  0  0  0  0  0  0
    6.6017   -5.9004   26.9187 C   0  0  0  0  0  0  0  0  0  0  0  0
    2.4761   -6.9940   26.4111 N   0  0  0  0  0  0  0  0  0  0  0  0
    9.1353   -5.4053   27.8239 C   0  0  0  0  0  0  0  0  0  0  0  0
    0.9922   -9.3232   16.5995 O   0  0  0  0  0  0  0  0  0  0  0  0
    1.5232   -7.6869   27.1182 C   0  0  0  0  0  0  0  0  0  0  0  0
    8.6878   -6.6715   27.7262 N   0  0  0  0  0  0  0  0  0  0  0  0
    6.9911   -8.2423   27.1808 C   0  0  0  0  0  0  0  0  0  0  0  0
    3.8436   -7.2758   16.0578 C   0  0  0  0  0  0  0  0  0  0  0  0
    3.1882   -9.7190   17.2566 C   0  0  0  0  0  0  0  0  0  0  0  0
    5.3488   -6.1737   26.5092 C   0  0  0  0  0  0  0  0  0  0  0  0
    7.4567   -6.9464   27.2858 C   0  0  0  0  0  0  0  0  0  0  0  0
    0.1921   -5.7592   27.1123 C   0  0  0  0  0  0  0  0  0  0  0  0
    3.5517   -7.7407   25.9711 C   0  0  0  0  0  0  0  0  0  0  0  0
  1  4  4  0
  1 22  4  0
  2 20  4  0
  2 27  4  0
  3 12  4  0
  3 23  4  0
  4 25  4  0
  4 28  1  0
  5  8  4  0
  5 17  4  0
  6  7  4  0
  6 16  4  0
  7 18  4  0
  8 27  4  0
  9 13  4  0
  9 23  4  0
 10 11  1  0
 11 14  2  0
 11 27  1  0
 12 19  1  0
 12 24  4  0
 13 24  4  0
 15 18  1  0
 16 25  4  0
 16 26  4  0
 17 20  4  0
 17 28  1  0
 18 21  4  0
 21 26  4  0
 22 26  4  0
M  END
$$$$

 Created by Python create_sdf_string function

 28 30  0  0  0  0  0  0  0  0999 V2000
    5.7174   -8.4529   26.7190 C   0  0  0  0  0  0  0  0  0  0  0  0
    0.3974   -7.0711   27.5149 C   0  0  0  0  0  0  0  0  0  0  0  0
    2.5338   -7.6891   16.0102 C   0  0  0  0  0  0  0  0  0  0  0  0
    4.8690   -7.4380   26.4151 C   0  0  0  0  0  0  0  0  0  0  0  0
    2.3021   -5.6726   26.0378 C   0  0  0  0  0  0  0  0  0  0  0  0
    7.0880   -4.6163   27.0010 C   0  0  0  0  0  0  0  0  0  0  0  0
    8.3117   -4.3698   27.4436 C   0  0  0  0  0  0  0  0  0  0  0  0
    1.1339   -5.0515   26.3541 C   0  0  0  0  0  0  0  0  0  0  0  0
    4.8080   -8.0362   16.7101 C   0  0  0  0  0  0  0  0  0  0  0  0
   -1.2173   -3.9294   26.9717 O   0  0  0  0  0  0  0  0  0  0  0  0
   -1.0025   -5.0942   27.4586 C   0  0  0  0  0  0  0  0  0  0  0  0
    2.2474   -8.9123   16.6273 C   0  0  0  0  0  0  0  0  0  0  0  0
    4.4957   -9.2636   17.3041 C   0  0  0  0  0  0  0  0  0  0  0  0
   -1.8070   -5.6086   28.1920 O   0  0  0  0  0  0  0  0  0  0  0  0
   10.4296   -5.1799   28.3140 C   0  0  0  0  0  0  0  0  0  0  0  0
    6.6017   -5.9004   26.9187 C   0  0  0  0  0  0  0  0  0  0  0  0
    2.4761   -6.9940   26.4111 N   0  0  0  0  0  0  0  0  0  0  0  0
    9.1353   -5.4053   27.8239 C   0  0  0  0  0  0  0  0  0  0  0  0
    0.9922   -9.3232   16.5995 O   0  0  0  0  0  0  0  0  0  0  0  0
    1.5232   -7.6869   27.1182 C   0  0  0  0  0  0  0  0  0  0  0  0
    8.6878   -6.6715   27.7262 N   0  0  0  0  0  0  0  0  0  0  0  0
    6.9911   -8.2423   27.1808 C   0  0  0  0  0  0  0  0  0  0  0  0
    3.8436   -7.2758   16.0578 C   0  0  0  0  0  0  0  0  0  0  0  0
    3.1882   -9.7190   17.2566 C   0  0  0  0  0  0  0  0  0  0  0  0
    5.3488   -6.1737   26.5092 C   0  0  0  0  0  0  0  0  0  0  0  0
    7.4567   -6.9464   27.2858 C   0  0  0  0  0  0  0  0  0  0  0  0
    0.1921   -5.7592   27.1123 C   0  0  0  0  0  0  0  0  0  0  0  0
    3.5517   -7.7407   25.9711 C   0  0  0  0  0  0  0  0  0  0  0  0
  1  4  4  0
  1 22  4  0
  2 20  4  0
  2 27  4  0
  3 12  4  0
  3 23  4  0
  4 25  4  0
  4 28  1  0
  5  8  4  0
  5 17  4  0
  6  7  4  0
  6 16  4  0
  7 18  4  0
  8 27  4  0
  9 13  4  0
  9 23  4  0
 10 11  1  0
 11 14  2  0
 11 27  1  0
 12 19  1  0
 12 24  4  0
 13 24  4  0
 15 18  1  0
 16 25  4  0
 16 26  4  0
 17 20  4  0
 17 28  1  0
 18 21  4  0
 21 26  4  0
 22 26  4  0
M  END
$$$$

 Created by Python create_sdf_string function

 28 30  0  0  0  0  0  0  0  0999 V2000
    5.7174   -8.4529   26.7190 C   0  0  0  0  0  0  0  0  0  0  0  0
    0.3974   -7.0711   27.5149 C   0  0  0  0  0  0  0  0  0  0  0  0
    2.5338   -7.6891   16.0102 C   0  0  0  0  0  0  0  0  0  0  0  0
    4.8690   -7.4380   26.4151 C   0  0  0  0  0  0  0  0  0  0  0  0
    2.3021   -5.6726   26.0378 C   0  0  0  0  0  0  0  0  0  0  0  0
    7.0880   -4.6163   27.0010 C   0  0  0  0  0  0  0  0  0  0  0  0
    8.3117   -4.3698   27.4436 C   0  0  0  0  0  0  0  0  0  0  0  0
    1.1339   -5.0515   26.3541 C   0  0  0  0  0  0  0  0  0  0  0  0
    4.8080   -8.0362   16.7101 C   0  0  0  0  0  0  0  0  0  0  0  0
   -1.2173   -3.9294   26.9717 O   0  0  0  0  0  0  0  0  0  0  0  0
   -1.0025   -5.0942   27.4586 C   0  0  0  0  0  0  0  0  0  0  0  0
    2.2474   -8.9123   16.6273 C   0  0  0  0  0  0  0  0  0  0  0  0
    4.4957   -9.2636   17.3041 C   0  0  0  0  0  0  0  0  0  0  0  0
   -1.8070   -5.6086   28.1920 O   0  0  0  0  0  0  0  0  0  0  0  0
   10.4296   -5.1799   28.3140 C   0  0  0  0  0  0  0  0  0  0  0  0
    6.6017   -5.9004   26.9187 C   0  0  0  0  0  0  0  0  0  0  0  0
    2.4761   -6.9940   26.4111 N   0  0  0  0  0  0  0  0  0  0  0  0
    9.1353   -5.4053   27.8239 C   0  0  0  0  0  0  0  0  0  0  0  0
    0.9922   -9.3232   16.5995 O   0  0  0  0  0  0  0  0  0  0  0  0
    1.5232   -7.6869   27.1182 C   0  0  0  0  0  0  0  0  0  0  0  0
    8.6878   -6.6715   27.7262 N   0  0  0  0  0  0  0  0  0  0  0  0
    6.9911   -8.2423   27.1808 C   0  0  0  0  0  0  0  0  0  0  0  0
    3.8436   -7.2758   16.0578 C   0  0  0  0  0  0  0  0  0  0  0  0
    3.1882   -9.7190   17.2566 C   0  0  0  0  0  0  0  0  0  0  0  0
    5.3488   -6.1737   26.5092 C   0  0  0  0  0  0  0  0  0  0  0  0
    7.4567   -6.9464   27.2858 C   0  0  0  0  0  0  0  0  0  0  0  0
    0.1921   -5.7592   27.1123 C   0  0  0  0  0  0  0  0  0  0  0  0
    3.5517   -7.7407   25.9711 C   0  0  0  0  0  0  0  0  0  0  0  0
  1  4  4  0
  1 22  4  0
  2 20  4  0
  2 27  4  0
  3 12  4  0
  3 23  4  0
  4 25  4  0
  4 28  1  0
  5  8  4  0
  5 17  4  0
  6  7  4  0
  6 16  4  0
  7 18  4  0
  8 27  4  0
  9 13  4  0
  9 23  4  0
 10 11  1  0
 11 14  2  0
 11 27  1  0
 12 19  1  0
 12 24  4  0
 13 24  4  0
 15 18  1  0
 16 25  4  0
 16 26  4  0
 17 20  4  0
 17 28  1  0
 18 21  4  0
 21 26  4  0
 22 26  4  0
M  END
$$$$

 Created by Python create_sdf_string function

 28 30  0  0  0  0  0  0  0  0999 V2000
    5.7174   -8.4529   26.7190 C   0  0  0  0  0  0  0  0  0  0  0  0
    0.3974   -7.0711   27.5149 C   0  0  0  0  0  0  0  0  0  0  0  0
    2.5338   -7.6891   16.0102 C   0  0  0  0  0  0  0  0  0  0  0  0
    4.8690   -7.4380   26.4151 C   0  0  0  0  0  0  0  0  0  0  0  0
    2.3021   -5.6726   26.0378 C   0  0  0  0  0  0  0  0  0  0  0  0
    7.0880   -4.6163   27.0010 C   0  0  0  0  0  0  0  0  0  0  0  0
    8.3117   -4.3698   27.4436 C   0  0  0  0  0  0  0  0  0  0  0  0
    1.1339   -5.0515   26.3541 C   0  0  0  0  0  0  0  0  0  0  0  0
    4.8080   -8.0362   16.7101 C   0  0  0  0  0  0  0  0  0  0  0  0
   -1.2173   -3.9294   26.9717 O   0  0  0  0  0  0  0  0  0  0  0  0
   -1.0025   -5.0942   27.4586 C   0  0  0  0  0  0  0  0  0  0  0  0
    2.2474   -8.9123   16.6273 C   0  0  0  0  0  0  0  0  0  0  0  0
    4.4957   -9.2636   17.3041 C   0  0  0  0  0  0  0  0  0  0  0  0
   -1.8070   -5.6086   28.1920 O   0  0  0  0  0  0  0  0  0  0  0  0
   10.4296   -5.1799   28.3140 C   0  0  0  0  0  0  0  0  0  0  0  0
    6.6017   -5.9004   26.9187 C   0  0  0  0  0  0  0  0  0  0  0  0
    2.4761   -6.9940   26.4111 N   0  0  0  0  0  0  0  0  0  0  0  0
    9.1353   -5.4053   27.8239 C   0  0  0  0  0  0  0  0  0  0  0  0
    0.9922   -9.3232   16.5995 O   0  0  0  0  0  0  0  0  0  0  0  0
    1.5232   -7.6869   27.1182 C   0  0  0  0  0  0  0  0  0  0  0  0
    8.6878   -6.6715   27.7262 N   0  0  0  0  0  0  0  0  0  0  0  0
    6.9911   -8.2423   27.1808 C   0  0  0  0  0  0  0  0  0  0  0  0
    3.8436   -7.2758   16.0578 C   0  0  0  0  0  0  0  0  0  0  0  0
    3.1882   -9.7190   17.2566 C   0  0  0  0  0  0  0  0  0  0  0  0
    5.3488   -6.1737   26.5092 C   0  0  0  0  0  0  0  0  0  0  0  0
    7.4567   -6.9464   27.2858 C   0  0  0  0  0  0  0  0  0  0  0  0
    0.1921   -5.7592   27.1123 C   0  0  0  0  0  0  0  0  0  0  0  0
    3.5517   -7.7407   25.9711 C   0  0  0  0  0  0  0  0  0  0  0  0
  1  4  4  0
  1 22  4  0
  2 20  4  0
  2 27  4  0
  3 12  4  0
  3 23  4  0
  4 25  4  0
  4 28  1  0
  5  8  4  0
  5 17  4  0
  6  7  4  0
  6 16  4  0
  7 18  4  0
  8 27  4  0
  9 13  4  0
  9 23  4  0
 10 11  1  0
 11 14  2  0
 11 27  1  0
 12 19  1  0
 12 24  4  0
 13 24  4  0
 15 18  1  0
 16 25  4  0
 16 26  4  0
 17 20  4  0
 17 28  1  0
 18 21  4  0
 21 26  4  0
 22 26  4  0
M  END
$$$$

 Created by Python create_sdf_string function

 28 30  0  0  0  0  0  0  0  0999 V2000
    5.7174   -8.4529   26.7190 C   0  0  0  0  0  0  0  0  0  0  0  0
    0.3974   -7.0711   27.5149 C   0  0  0  0  0  0  0  0  0  0  0  0
    2.5338   -7.6891   16.0102 C   0  0  0  0  0  0  0  0  0  0  0  0
    4.8690   -7.4380   26.4151 C   0  0  0  0  0  0  0  0  0  0  0  0
    2.3021   -5.6726   26.0378 C   0  0  0  0  0  0  0  0  0  0  0  0
    7.0880   -4.6163   27.0010 C   0  0  0  0  0  0  0  0  0  0  0  0
    8.3117   -4.3698   27.4436 C   0  0  0  0  0  0  0  0  0  0  0  0
    1.1339   -5.0515   26.3541 C   0  0  0  0  0  0  0  0  0  0  0  0
    4.8080   -8.0362   16.7101 C   0  0  0  0  0  0  0  0  0  0  0  0
   -1.2173   -3.9294   26.9717 O   0  0  0  0  0  0  0  0  0  0  0  0
   -1.0025   -5.0942   27.4586 C   0  0  0  0  0  0  0  0  0  0  0  0
    2.2474   -8.9123   16.6273 C   0  0  0  0  0  0  0  0  0  0  0  0
    4.4957   -9.2636   17.3041 C   0  0  0  0  0  0  0  0  0  0  0  0
   -1.8070   -5.6086   28.1920 O   0  0  0  0  0  0  0  0  0  0  0  0
   10.4296   -5.1799   28.3140 C   0  0  0  0  0  0  0  0  0  0  0  0
    6.6017   -5.9004   26.9187 C   0  0  0  0  0  0  0  0  0  0  0  0
    2.4761   -6.9940   26.4111 N   0  0  0  0  0  0  0  0  0  0  0  0
    9.1353   -5.4053   27.8239 C   0  0  0  0  0  0  0  0  0  0  0  0
    0.9922   -9.3232   16.5995 O   0  0  0  0  0  0  0  0  0  0  0  0
    1.5232   -7.6869   27.1182 C   0  0  0  0  0  0  0  0  0  0  0  0
    8.6878   -6.6715   27.7262 N   0  0  0  0  0  0  0  0  0  0  0  0
    6.9911   -8.2423   27.1808 C   0  0  0  0  0  0  0  0  0  0  0  0
    3.8436   -7.2758   16.0578 C   0  0  0  0  0  0  0  0  0  0  0  0
    3.1882   -9.7190   17.2566 C   0  0  0  0  0  0  0  0  0  0  0  0
    5.3488   -6.1737   26.5092 C   0  0  0  0  0  0  0  0  0  0  0  0
    7.4567   -6.9464   27.2858 C   0  0  0  0  0  0  0  0  0  0  0  0
    0.1921   -5.7592   27.1123 C   0  0  0  0  0  0  0  0  0  0  0  0
    3.5517   -7.7407   25.9711 C   0  0  0  0  0  0  0  0  0  0  0  0
  1  4  4  0
  1 22  4  0
  2 20  4  0
  2 27  4  0
  3 12  4  0
  3 23  4  0
  4 25  4  0
  4 28  1  0
  5  8  4  0
  5 17  4  0
  6  7  4  0
  6 16  4  0
  7 18  4  0
  8 27  4  0
  9 13  4  0
  9 23  4  0
 10 11  1  0
 11 14  2  0
 11 27  1  0
 12 19  1  0
 12 24  4  0
 13 24  4  0
 15 18  1  0
 16 25  4  0
 16 26  4  0
 17 20  4  0
 17 28  1  0
 18 21  4  0
 21 26  4  0
 22 26  4  0
M  END
$$$$

 Created by Python create_sdf_string function

 28 30  0  0  0  0  0  0  0  0999 V2000
    5.7174   -8.4529   26.7190 C   0  0  0  0  0  0  0  0  0  0  0  0
    0.3974   -7.0711   27.5149 C   0  0  0  0  0  0  0  0  0  0  0  0
    2.5338   -7.6891   16.0102 C   0  0  0  0  0  0  0  0  0  0  0  0
    4.8690   -7.4380   26.4151 C   0  0  0  0  0  0  0  0  0  0  0  0
    2.3021   -5.6726   26.0378 C   0  0  0  0  0  0  0  0  0  0  0  0
    7.0880   -4.6163   27.0010 C   0  0  0  0  0  0  0  0  0  0  0  0
    8.3117   -4.3698   27.4436 C   0  0  0  0  0  0  0  0  0  0  0  0
    1.1339   -5.0515   26.3541 C   0  0  0  0  0  0  0  0  0  0  0  0
    4.8080   -8.0362   16.7101 C   0  0  0  0  0  0  0  0  0  0  0  0
   -1.2173   -3.9294   26.9717 O   0  0  0  0  0  0  0  0  0  0  0  0
   -1.0025   -5.0942   27.4586 C   0  0  0  0  0  0  0  0  0  0  0  0
    2.2474   -8.9123   16.6273 C   0  0  0  0  0  0  0  0  0  0  0  0
    4.4957   -9.2636   17.3041 C   0  0  0  0  0  0  0  0  0  0  0  0
   -1.8070   -5.6086   28.1920 O   0  0  0  0  0  0  0  0  0  0  0  0
   10.4296   -5.1799   28.3140 C   0  0  0  0  0  0  0  0  0  0  0  0
    6.6017   -5.9004   26.9187 C   0  0  0  0  0  0  0  0  0  0  0  0
    2.4761   -6.9940   26.4111 N   0  0  0  0  0  0  0  0  0  0  0  0
    9.1353   -5.4053   27.8239 C   0  0  0  0  0  0  0  0  0  0  0  0
    0.9922   -9.3232   16.5995 O   0  0  0  0  0  0  0  0  0  0  0  0
    1.5232   -7.6869   27.1182 C   0  0  0  0  0  0  0  0  0  0  0  0
    8.6878   -6.6715   27.7262 N   0  0  0  0  0  0  0  0  0  0  0  0
    6.9911   -8.2423   27.1808 C   0  0  0  0  0  0  0  0  0  0  0  0
    3.8436   -7.2758   16.0578 C   0  0  0  0  0  0  0  0  0  0  0  0
    3.1882   -9.7190   17.2566 C   0  0  0  0  0  0  0  0  0  0  0  0
    5.3488   -6.1737   26.5092 C   0  0  0  0  0  0  0  0  0  0  0  0
    7.4567   -6.9464   27.2858 C   0  0  0  0  0  0  0  0  0  0  0  0
    0.1921   -5.7592   27.1123 C   0  0  0  0  0  0  0  0  0  0  0  0
    3.5517   -7.7407   25.9711 C   0  0  0  0  0  0  0  0  0  0  0  0
  1  4  4  0
  1 22  4  0
  2 20  4  0
  2 27  4  0
  3 12  4  0
  3 23  4  0
  4 25  4  0
  4 28  1  0
  5  8  4  0
  5 17  4  0
  6  7  4  0
  6 16  4  0
  7 18  4  0
  8 27  4  0
  9 13  4  0
  9 23  4  0
 10 11  1  0
 11 14  2  0
 11 27  1  0
 12 19  1  0
 12 24  4  0
 13 24  4  0
 15 18  1  0
 16 25  4  0
 16 26  4  0
 17 20  4  0
 17 28  1  0
 18 21  4  0
 21 26  4  0
 22 26  4  0
M  END
$$$$

 Created by Python create_sdf_string function

 28 30  0  0  0  0  0  0  0  0999 V2000
    5.7174   -8.4529   26.7190 C   0  0  0  0  0  0  0  0  0  0  0  0
    0.3974   -7.0711   27.5149 C   0  0  0  0  0  0  0  0  0  0  0  0
    2.5338   -7.6891   16.0102 C   0  0  0  0  0  0  0  0  0  0  0  0
    4.8690   -7.4380   26.4151 C   0  0  0  0  0  0  0  0  0  0  0  0
    2.3021   -5.6726   26.0378 C   0  0  0  0  0  0  0  0  0  0  0  0
    7.0880   -4.6163   27.0010 C   0  0  0  0  0  0  0  0  0  0  0  0
    8.3117   -4.3698   27.4436 C   0  0  0  0  0  0  0  0  0  0  0  0
    1.1339   -5.0515   26.3541 C   0  0  0  0  0  0  0  0  0  0  0  0
    4.8080   -8.0362   16.7101 C   0  0  0  0  0  0  0  0  0  0  0  0
   -1.2173   -3.9294   26.9717 O   0  0  0  0  0  0  0  0  0  0  0  0
   -1.0025   -5.0942   27.4586 C   0  0  0  0  0  0  0  0  0  0  0  0
    2.2474   -8.9123   16.6273 C   0  0  0  0  0  0  0  0  0  0  0  0
    4.4957   -9.2636   17.3041 C   0  0  0  0  0  0  0  0  0  0  0  0
   -1.8070   -5.6086   28.1920 O   0  0  0  0  0  0  0  0  0  0  0  0
   10.4296   -5.1799   28.3140 C   0  0  0  0  0  0  0  0  0  0  0  0
    6.6017   -5.9004   26.9187 C   0  0  0  0  0  0  0  0  0  0  0  0
    2.4761   -6.9940   26.4111 N   0  0  0  0  0  0  0  0  0  0  0  0
    9.1353   -5.4053   27.8239 C   0  0  0  0  0  0  0  0  0  0  0  0
    0.9922   -9.3232   16.5995 O   0  0  0  0  0  0  0  0  0  0  0  0
    1.5232   -7.6869   27.1182 C   0  0  0  0  0  0  0  0  0  0  0  0
    8.6878   -6.6715   27.7262 N   0  0  0  0  0  0  0  0  0  0  0  0
    6.9911   -8.2423   27.1808 C   0  0  0  0  0  0  0  0  0  0  0  0
    3.8436   -7.2758   16.0578 C   0  0  0  0  0  0  0  0  0  0  0  0
    3.1882   -9.7190   17.2566 C   0  0  0  0  0  0  0  0  0  0  0  0
    5.3488   -6.1737   26.5092 C   0  0  0  0  0  0  0  0  0  0  0  0
    7.4567   -6.9464   27.2858 C   0  0  0  0  0  0  0  0  0  0  0  0
    0.1921   -5.7592   27.1123 C   0  0  0  0  0  0  0  0  0  0  0  0
    3.5517   -7.7407   25.9711 C   0  0  0  0  0  0  0  0  0  0  0  0
  1  4  4  0
  1 22  4  0
  2 20  4  0
  2 27  4  0
  3 12  4  0
  3 23  4  0
  4 25  4  0
  4 28  1  0
  5  8  4  0
  5 17  4  0
  6  7  4  0
  6 16  4  0
  7 18  4  0
  8 27  4  0
  9 13  4  0
  9 23  4  0
 10 11  1  0
 11 14  2  0
 11 27  1  0
 12 19  1  0
 12 24  4  0
 13 24  4  0
 15 18  1  0
 16 25  4  0
 16 26  4  0
 17 20  4  0
 17 28  1  0
 18 21  4  0
 21 26  4  0
 22 26  4  0
M  END
$$$$

 Created by Python create_sdf_string function

 28 30  0  0  0  0  0  0  0  0999 V2000
    5.7174   -8.4529   26.7190 C   0  0  0  0  0  0  0  0  0  0  0  0
    0.3974   -7.0711   27.5149 C   0  0  0  0  0  0  0  0  0  0  0  0
    2.5338   -7.6891   16.0102 C   0  0  0  0  0  0  0  0  0  0  0  0
    4.8690   -7.4380   26.4151 C   0  0  0  0  0  0  0  0  0  0  0  0
    2.3021   -5.6726   26.0378 C   0  0  0  0  0  0  0  0  0  0  0  0
    7.0880   -4.6163   27.0010 C   0  0  0  0  0  0  0  0  0  0  0  0
    8.3117   -4.3698   27.4436 C   0  0  0  0  0  0  0  0  0  0  0  0
    1.1339   -5.0515   26.3541 C   0  0  0  0  0  0  0  0  0  0  0  0
    4.8080   -8.0362   16.7101 C   0  0  0  0  0  0  0  0  0  0  0  0
   -1.2173   -3.9294   26.9717 O   0  0  0  0  0  0  0  0  0  0  0  0
   -1.0025   -5.0942   27.4586 C   0  0  0  0  0  0  0  0  0  0  0  0
    2.2474   -8.9123   16.6273 C   0  0  0  0  0  0  0  0  0  0  0  0
    4.4957   -9.2636   17.3041 C   0  0  0  0  0  0  0  0  0  0  0  0
   -1.8070   -5.6086   28.1920 O   0  0  0  0  0  0  0  0  0  0  0  0
   10.4296   -5.1799   28.3140 C   0  0  0  0  0  0  0  0  0  0  0  0
    6.6017   -5.9004   26.9187 C   0  0  0  0  0  0  0  0  0  0  0  0
    2.4761   -6.9940   26.4111 N   0  0  0  0  0  0  0  0  0  0  0  0
    9.1353   -5.4053   27.8239 C   0  0  0  0  0  0  0  0  0  0  0  0
    0.9922   -9.3232   16.5995 O   0  0  0  0  0  0  0  0  0  0  0  0
    1.5232   -7.6869   27.1182 C   0  0  0  0  0  0  0  0  0  0  0  0
    8.6878   -6.6715   27.7262 N   0  0  0  0  0  0  0  0  0  0  0  0
    6.9911   -8.2423   27.1808 C   0  0  0  0  0  0  0  0  0  0  0  0
    3.8436   -7.2758   16.0578 C   0  0  0  0  0  0  0  0  0  0  0  0
    3.1882   -9.7190   17.2566 C   0  0  0  0  0  0  0  0  0  0  0  0
    5.3488   -6.1737   26.5092 C   0  0  0  0  0  0  0  0  0  0  0  0
    7.4567   -6.9464   27.2858 C   0  0  0  0  0  0  0  0  0  0  0  0
    0.1921   -5.7592   27.1123 C   0  0  0  0  0  0  0  0  0  0  0  0
    3.5517   -7.7407   25.9711 C   0  0  0  0  0  0  0  0  0  0  0  0
  1  4  4  0
  1 22  4  0
  2 20  4  0
  2 27  4  0
  3 12  4  0
  3 23  4  0
  4 25  4  0
  4 28  1  0
  5  8  4  0
  5 17  4  0
  6  7  4  0
  6 16  4  0
  7 18  4  0
  8 27  4  0
  9 13  4  0
  9 23  4  0
 10 11  1  0
 11 14  2  0
 11 27  1  0
 12 19  1  0
 12 24  4  0
 13 24  4  0
 15 18  1  0
 16 25  4  0
 16 26  4  0
 17 20  4  0
 17 28  1  0
 18 21  4  0
 21 26  4  0
 22 26  4  0
M  END
$$$$

 Created by Python create_sdf_string function

 28 30  0  0  0  0  0  0  0  0999 V2000
    5.7174   -8.4529   26.7190 C   0  0  0  0  0  0  0  0  0  0  0  0
    0.3974   -7.0711   27.5149 C   0  0  0  0  0  0  0  0  0  0  0  0
    2.5338   -7.6891   16.0102 C   0  0  0  0  0  0  0  0  0  0  0  0
    4.8690   -7.4380   26.4151 C   0  0  0  0  0  0  0  0  0  0  0  0
    2.3021   -5.6726   26.0378 C   0  0  0  0  0  0  0  0  0  0  0  0
    7.0880   -4.6163   27.0010 C   0  0  0  0  0  0  0  0  0  0  0  0
    8.3117   -4.3698   27.4436 C   0  0  0  0  0  0  0  0  0  0  0  0
    1.1339   -5.0515   26.3541 C   0  0  0  0  0  0  0  0  0  0  0  0
    4.8080   -8.0362   16.7101 C   0  0  0  0  0  0  0  0  0  0  0  0
   -1.2173   -3.9294   26.9717 O   0  0  0  0  0  0  0  0  0  0  0  0
   -1.0025   -5.0942   27.4586 C   0  0  0  0  0  0  0  0  0  0  0  0
    2.2474   -8.9123   16.6273 C   0  0  0  0  0  0  0  0  0  0  0  0
    4.4957   -9.2636   17.3041 C   0  0  0  0  0  0  0  0  0  0  0  0
   -1.8070   -5.6086   28.1920 O   0  0  0  0  0  0  0  0  0  0  0  0
   10.4296   -5.1799   28.3140 C   0  0  0  0  0  0  0  0  0  0  0  0
    6.6017   -5.9004   26.9187 C   0  0  0  0  0  0  0  0  0  0  0  0
    2.4761   -6.9940   26.4111 N   0  0  0  0  0  0  0  0  0  0  0  0
    9.1353   -5.4053   27.8239 C   0  0  0  0  0  0  0  0  0  0  0  0
    0.9922   -9.3232   16.5995 O   0  0  0  0  0  0  0  0  0  0  0  0
    1.5232   -7.6869   27.1182 C   0  0  0  0  0  0  0  0  0  0  0  0
    8.6878   -6.6715   27.7262 N   0  0  0  0  0  0  0  0  0  0  0  0
    6.9911   -8.2423   27.1808 C   0  0  0  0  0  0  0  0  0  0  0  0
    3.8436   -7.2758   16.0578 C   0  0  0  0  0  0  0  0  0  0  0  0
    3.1882   -9.7190   17.2566 C   0  0  0  0  0  0  0  0  0  0  0  0
    5.3488   -6.1737   26.5092 C   0  0  0  0  0  0  0  0  0  0  0  0
    7.4567   -6.9464   27.2858 C   0  0  0  0  0  0  0  0  0  0  0  0
    0.1921   -5.7592   27.1123 C   0  0  0  0  0  0  0  0  0  0  0  0
    3.5517   -7.7407   25.9711 C   0  0  0  0  0  0  0  0  0  0  0  0
  1  4  4  0
  1 22  4  0
  2 20  4  0
  2 27  4  0
  3 12  4  0
  3 23  4  0
  4 25  4  0
  4 28  1  0
  5  8  4  0
  5 17  4  0
  6  7  4  0
  6 16  4  0
  7 18  4  0
  8 27  4  0
  9 13  4  0
  9 23  4  0
 10 11  1  0
 11 14  2  0
 11 27  1  0
 12 19  1  0
 12 24  4  0
 13 24  4  0
 15 18  1  0
 16 25  4  0
 16 26  4  0
 17 20  4  0
 17 28  1  0
 18 21  4  0
 21 26  4  0
 22 26  4  0
M  END
$$$$

 Created by Python create_sdf_string function

 28 30  0  0  0  0  0  0  0  0999 V2000
    5.7174   -8.4529   26.7190 C   0  0  0  0  0  0  0  0  0  0  0  0
    0.3974   -7.0711   27.5149 C   0  0  0  0  0  0  0  0  0  0  0  0
    2.5338   -7.6891   16.0102 C   0  0  0  0  0  0  0  0  0  0  0  0
    4.8690   -7.4380   26.4151 C   0  0  0  0  0  0  0  0  0  0  0  0
    2.3021   -5.6726   26.0378 C   0  0  0  0  0  0  0  0  0  0  0  0
    7.0880   -4.6163   27.0010 C   0  0  0  0  0  0  0  0  0  0  0  0
    8.3117   -4.3698   27.4436 C   0  0  0  0  0  0  0  0  0  0  0  0
    1.1339   -5.0515   26.3541 C   0  0  0  0  0  0  0  0  0  0  0  0
    4.8080   -8.0362   16.7101 C   0  0  0  0  0  0  0  0  0  0  0  0
   -1.2173   -3.9294   26.9717 O   0  0  0  0  0  0  0  0  0  0  0  0
   -1.0025   -5.0942   27.4586 C   0  0  0  0  0  0  0  0  0  0  0  0
    2.2474   -8.9123   16.6273 C   0  0  0  0  0  0  0  0  0  0  0  0
    4.4957   -9.2636   17.3041 C   0  0  0  0  0  0  0  0  0  0  0  0
   -1.8070   -5.6086   28.1920 O   0  0  0  0  0  0  0  0  0  0  0  0
   10.4296   -5.1799   28.3140 C   0  0  0  0  0  0  0  0  0  0  0  0
    6.6017   -5.9004   26.9187 C   0  0  0  0  0  0  0  0  0  0  0  0
    2.4761   -6.9940   26.4111 N   0  0  0  0  0  0  0  0  0  0  0  0
    9.1353   -5.4053   27.8239 C   0  0  0  0  0  0  0  0  0  0  0  0
    0.9922   -9.3232   16.5995 O   0  0  0  0  0  0  0  0  0  0  0  0
    1.5232   -7.6869   27.1182 C   0  0  0  0  0  0  0  0  0  0  0  0
    8.6878   -6.6715   27.7262 N   0  0  0  0  0  0  0  0  0  0  0  0
    6.9911   -8.2423   27.1808 C   0  0  0  0  0  0  0  0  0  0  0  0
    3.8436   -7.2758   16.0578 C   0  0  0  0  0  0  0  0  0  0  0  0
    3.1882   -9.7190   17.2566 C   0  0  0  0  0  0  0  0  0  0  0  0
    5.3488   -6.1737   26.5092 C   0  0  0  0  0  0  0  0  0  0  0  0
    7.4567   -6.9464   27.2858 C   0  0  0  0  0  0  0  0  0  0  0  0
    0.1921   -5.7592   27.1123 C   0  0  0  0  0  0  0  0  0  0  0  0
    3.5517   -7.7407   25.9711 C   0  0  0  0  0  0  0  0  0  0  0  0
  1  4  4  0
  1 22  4  0
  2 20  4  0
  2 27  4  0
  3 12  4  0
  3 23  4  0
  4 25  4  0
  4 28  1  0
  5  8  4  0
  5 17  4  0
  6  7  4  0
  6 16  4  0
  7 18  4  0
  8 27  4  0
  9 13  4  0
  9 23  4  0
 10 11  1  0
 11 14  2  0
 11 27  1  0
 12 19  1  0
 12 24  4  0
 13 24  4  0
 15 18  1  0
 16 25  4  0
 16 26  4  0
 17 20  4  0
 17 28  1  0
 18 21  4  0
 21 26  4  0
 22 26  4  0
M  END
$$$$

 Created by Python create_sdf_string function

 28 30  0  0  0  0  0  0  0  0999 V2000
    5.7174   -8.4529   26.7190 C   0  0  0  0  0  0  0  0  0  0  0  0
    0.3974   -7.0711   27.5149 C   0  0  0  0  0  0  0  0  0  0  0  0
    2.5338   -7.6891   16.0102 C   0  0  0  0  0  0  0  0  0  0  0  0
    4.8690   -7.4380   26.4151 C   0  0  0  0  0  0  0  0  0  0  0  0
    2.3021   -5.6726   26.0378 C   0  0  0  0  0  0  0  0  0  0  0  0
    7.0880   -4.6163   27.0010 C   0  0  0  0  0  0  0  0  0  0  0  0
    8.3117   -4.3698   27.4436 C   0  0  0  0  0  0  0  0  0  0  0  0
    1.1339   -5.0515   26.3541 C   0  0  0  0  0  0  0  0  0  0  0  0
    4.8080   -8.0362   16.7101 C   0  0  0  0  0  0  0  0  0  0  0  0
   -1.2173   -3.9294   26.9717 O   0  0  0  0  0  0  0  0  0  0  0  0
   -1.0025   -5.0942   27.4586 C   0  0  0  0  0  0  0  0  0  0  0  0
    2.2474   -8.9123   16.6273 C   0  0  0  0  0  0  0  0  0  0  0  0
    4.4957   -9.2636   17.3041 C   0  0  0  0  0  0  0  0  0  0  0  0
   -1.8070   -5.6086   28.1920 O   0  0  0  0  0  0  0  0  0  0  0  0
   10.4296   -5.1799   28.3140 C   0  0  0  0  0  0  0  0  0  0  0  0
    6.6017   -5.9004   26.9187 C   0  0  0  0  0  0  0  0  0  0  0  0
    2.4761   -6.9940   26.4111 N   0  0  0  0  0  0  0  0  0  0  0  0
    9.1353   -5.4053   27.8239 C   0  0  0  0  0  0  0  0  0  0  0  0
    0.9922   -9.3232   16.5995 O   0  0  0  0  0  0  0  0  0  0  0  0
    1.5232   -7.6869   27.1182 C   0  0  0  0  0  0  0  0  0  0  0  0
    8.6878   -6.6715   27.7262 N   0  0  0  0  0  0  0  0  0  0  0  0
    6.9911   -8.2423   27.1808 C   0  0  0  0  0  0  0  0  0  0  0  0
    3.8436   -7.2758   16.0578 C   0  0  0  0  0  0  0  0  0  0  0  0
    3.1882   -9.7190   17.2566 C   0  0  0  0  0  0  0  0  0  0  0  0
    5.3488   -6.1737   26.5092 C   0  0  0  0  0  0  0  0  0  0  0  0
    7.4567   -6.9464   27.2858 C   0  0  0  0  0  0  0  0  0  0  0  0
    0.1921   -5.7592   27.1123 C   0  0  0  0  0  0  0  0  0  0  0  0
    3.5517   -7.7407   25.9711 C   0  0  0  0  0  0  0  0  0  0  0  0
  1  4  4  0
  1 22  4  0
  2 20  4  0
  2 27  4  0
  3 12  4  0
  3 23  4  0
  4 25  4  0
  4 28  1  0
  5  8  4  0
  5 17  4  0
  6  7  4  0
  6 16  4  0
  7 18  4  0
  8 27  4  0
  9 13  4  0
  9 23  4  0
 10 11  1  0
 11 14  2  0
 11 27  1  0
 12 19  1  0
 12 24  4  0
 13 24  4  0
 15 18  1  0
 16 25  4  0
 16 26  4  0
 17 20  4  0
 17 28  1  0
 18 21  4  0
 21 26  4  0
 22 26  4  0
M  END
$$$$

 Created by Python create_sdf_string function

 28 30  0  0  0  0  0  0  0  0999 V2000
    5.7174   -8.4529   26.7190 C   0  0  0  0  0  0  0  0  0  0  0  0
    0.3974   -7.0711   27.5149 C   0  0  0  0  0  0  0  0  0  0  0  0
    2.5338   -7.6891   16.0102 C   0  0  0  0  0  0  0  0  0  0  0  0
    4.8690   -7.4380   26.4151 C   0  0  0  0  0  0  0  0  0  0  0  0
    2.3021   -5.6726   26.0378 C   0  0  0  0  0  0  0  0  0  0  0  0
    7.0880   -4.6163   27.0010 C   0  0  0  0  0  0  0  0  0  0  0  0
    8.3117   -4.3698   27.4436 C   0  0  0  0  0  0  0  0  0  0  0  0
    1.1339   -5.0515   26.3541 C   0  0  0  0  0  0  0  0  0  0  0  0
    4.8080   -8.0362   16.7101 C   0  0  0  0  0  0  0  0  0  0  0  0
   -1.2173   -3.9294   26.9717 O   0  0  0  0  0  0  0  0  0  0  0  0
   -1.0025   -5.0942   27.4586 C   0  0  0  0  0  0  0  0  0  0  0  0
    2.2474   -8.9123   16.6273 C   0  0  0  0  0  0  0  0  0  0  0  0
    4.4957   -9.2636   17.3041 C   0  0  0  0  0  0  0  0  0  0  0  0
   -1.8070   -5.6086   28.1920 O   0  0  0  0  0  0  0  0  0  0  0  0
   10.4296   -5.1799   28.3140 C   0  0  0  0  0  0  0  0  0  0  0  0
    6.6017   -5.9004   26.9187 C   0  0  0  0  0  0  0  0  0  0  0  0
    2.4761   -6.9940   26.4111 N   0  0  0  0  0  0  0  0  0  0  0  0
    9.1353   -5.4053   27.8239 C   0  0  0  0  0  0  0  0  0  0  0  0
    0.9922   -9.3232   16.5995 O   0  0  0  0  0  0  0  0  0  0  0  0
    1.5232   -7.6869   27.1182 C   0  0  0  0  0  0  0  0  0  0  0  0
    8.6878   -6.6715   27.7262 N   0  0  0  0  0  0  0  0  0  0  0  0
    6.9911   -8.2423   27.1808 C   0  0  0  0  0  0  0  0  0  0  0  0
    3.8436   -7.2758   16.0578 C   0  0  0  0  0  0  0  0  0  0  0  0
    3.1882   -9.7190   17.2566 C   0  0  0  0  0  0  0  0  0  0  0  0
    5.3488   -6.1737   26.5092 C   0  0  0  0  0  0  0  0  0  0  0  0
    7.4567   -6.9464   27.2858 C   0  0  0  0  0  0  0  0  0  0  0  0
    0.1921   -5.7592   27.1123 C   0  0  0  0  0  0  0  0  0  0  0  0
    3.5517   -7.7407   25.9711 C   0  0  0  0  0  0  0  0  0  0  0  0
  1  4  4  0
  1 22  4  0
  2 20  4  0
  2 27  4  0
  3 12  4  0
  3 23  4  0
  4 25  4  0
  4 28  1  0
  5  8  4  0
  5 17  4  0
  6  7  4  0
  6 16  4  0
  7 18  4  0
  8 27  4  0
  9 13  4  0
  9 23  4  0
 10 11  1  0
 11 14  2  0
 11 27  1  0
 12 19  1  0
 12 24  4  0
 13 24  4  0
 15 18  1  0
 16 25  4  0
 16 26  4  0
 17 20  4  0
 17 28  1  0
 18 21  4  0
 21 26  4  0
 22 26  4  0
M  END
$$$$

 Created by Python create_sdf_string function

 28 30  0  0  0  0  0  0  0  0999 V2000
    5.7174   -8.4529   26.7190 C   0  0  0  0  0  0  0  0  0  0  0  0
    0.3974   -7.0711   27.5149 C   0  0  0  0  0  0  0  0  0  0  0  0
    2.5338   -7.6891   16.0102 C   0  0  0  0  0  0  0  0  0  0  0  0
    4.8690   -7.4380   26.4151 C   0  0  0  0  0  0  0  0  0  0  0  0
    2.3021   -5.6726   26.0378 C   0  0  0  0  0  0  0  0  0  0  0  0
    7.0880   -4.6163   27.0010 C   0  0  0  0  0  0  0  0  0  0  0  0
    8.3117   -4.3698   27.4436 C   0  0  0  0  0  0  0  0  0  0  0  0
    1.1339   -5.0515   26.3541 C   0  0  0  0  0  0  0  0  0  0  0  0
    4.8080   -8.0362   16.7101 C   0  0  0  0  0  0  0  0  0  0  0  0
   -1.2173   -3.9294   26.9717 O   0  0  0  0  0  0  0  0  0  0  0  0
   -1.0025   -5.0942   27.4586 C   0  0  0  0  0  0  0  0  0  0  0  0
    2.2474   -8.9123   16.6273 C   0  0  0  0  0  0  0  0  0  0  0  0
    4.4957   -9.2636   17.3041 C   0  0  0  0  0  0  0  0  0  0  0  0
   -1.8070   -5.6086   28.1920 O   0  0  0  0  0  0  0  0  0  0  0  0
   10.4296   -5.1799   28.3140 C   0  0  0  0  0  0  0  0  0  0  0  0
    6.6017   -5.9004   26.9187 C   0  0  0  0  0  0  0  0  0  0  0  0
    2.4761   -6.9940   26.4111 N   0  0  0  0  0  0  0  0  0  0  0  0
    9.1353   -5.4053   27.8239 C   0  0  0  0  0  0  0  0  0  0  0  0
    0.9922   -9.3232   16.5995 O   0  0  0  0  0  0  0  0  0  0  0  0
    1.5232   -7.6869   27.1182 C   0  0  0  0  0  0  0  0  0  0  0  0
    8.6878   -6.6715   27.7262 N   0  0  0  0  0  0  0  0  0  0  0  0
    6.9911   -8.2423   27.1808 C   0  0  0  0  0  0  0  0  0  0  0  0
    3.8436   -7.2758   16.0578 C   0  0  0  0  0  0  0  0  0  0  0  0
    3.1882   -9.7190   17.2566 C   0  0  0  0  0  0  0  0  0  0  0  0
    5.3488   -6.1737   26.5092 C   0  0  0  0  0  0  0  0  0  0  0  0
    7.4567   -6.9464   27.2858 C   0  0  0  0  0  0  0  0  0  0  0  0
    0.1921   -5.7592   27.1123 C   0  0  0  0  0  0  0  0  0  0  0  0
    3.5517   -7.7407   25.9711 C   0  0  0  0  0  0  0  0  0  0  0  0
  1  4  4  0
  1 22  4  0
  2 20  4  0
  2 27  4  0
  3 12  4  0
  3 23  4  0
  4 25  4  0
  4 28  1  0
  5  8  4  0
  5 17  4  0
  6  7  4  0
  6 16  4  0
  7 18  4  0
  8 27  4  0
  9 13  4  0
  9 23  4  0
 10 11  1  0
 11 14  2  0
 11 27  1  0
 12 19  1  0
 12 24  4  0
 13 24  4  0
 15 18  1  0
 16 25  4  0
 16 26  4  0
 17 20  4  0
 17 28  1  0
 18 21  4  0
 21 26  4  0
 22 26  4  0
M  END
$$$$

 Created by Python create_sdf_string function

 28 30  0  0  0  0  0  0  0  0999 V2000
    5.7174   -8.4529   26.7190 C   0  0  0  0  0  0  0  0  0  0  0  0
    0.3974   -7.0711   27.5149 C   0  0  0  0  0  0  0  0  0  0  0  0
    2.5338   -7.6891   16.0102 C   0  0  0  0  0  0  0  0  0  0  0  0
    4.8690   -7.4380   26.4151 C   0  0  0  0  0  0  0  0  0  0  0  0
    2.3021   -5.6726   26.0378 C   0  0  0  0  0  0  0  0  0  0  0  0
    7.0880   -4.6163   27.0010 C   0  0  0  0  0  0  0  0  0  0  0  0
    8.3117   -4.3698   27.4436 C   0  0  0  0  0  0  0  0  0  0  0  0
    1.1339   -5.0515   26.3541 C   0  0  0  0  0  0  0  0  0  0  0  0
    4.8080   -8.0362   16.7101 C   0  0  0  0  0  0  0  0  0  0  0  0
   -1.2173   -3.9294   26.9717 O   0  0  0  0  0  0  0  0  0  0  0  0
   -1.0025   -5.0942   27.4586 C   0  0  0  0  0  0  0  0  0  0  0  0
    2.2474   -8.9123   16.6273 C   0  0  0  0  0  0  0  0  0  0  0  0
    4.4957   -9.2636   17.3041 C   0  0  0  0  0  0  0  0  0  0  0  0
   -1.8070   -5.6086   28.1920 O   0  0  0  0  0  0  0  0  0  0  0  0
   10.4296   -5.1799   28.3140 C   0  0  0  0  0  0  0  0  0  0  0  0
    6.6017   -5.9004   26.9187 C   0  0  0  0  0  0  0  0  0  0  0  0
    2.4761   -6.9940   26.4111 N   0  0  0  0  0  0  0  0  0  0  0  0
    9.1353   -5.4053   27.8239 C   0  0  0  0  0  0  0  0  0  0  0  0
    0.9922   -9.3232   16.5995 O   0  0  0  0  0  0  0  0  0  0  0  0
    1.5232   -7.6869   27.1182 C   0  0  0  0  0  0  0  0  0  0  0  0
    8.6878   -6.6715   27.7262 N   0  0  0  0  0  0  0  0  0  0  0  0
    6.9911   -8.2423   27.1808 C   0  0  0  0  0  0  0  0  0  0  0  0
    3.8436   -7.2758   16.0578 C   0  0  0  0  0  0  0  0  0  0  0  0
    3.1882   -9.7190   17.2566 C   0  0  0  0  0  0  0  0  0  0  0  0
    5.3488   -6.1737   26.5092 C   0  0  0  0  0  0  0  0  0  0  0  0
    7.4567   -6.9464   27.2858 C   0  0  0  0  0  0  0  0  0  0  0  0
    0.1921   -5.7592   27.1123 C   0  0  0  0  0  0  0  0  0  0  0  0
    3.5517   -7.7407   25.9711 C   0  0  0  0  0  0  0  0  0  0  0  0
  1  4  4  0
  1 22  4  0
  2 20  4  0
  2 27  4  0
  3 12  4  0
  3 23  4  0
  4 25  4  0
  4 28  1  0
  5  8  4  0
  5 17  4  0
  6  7  4  0
  6 16  4  0
  7 18  4  0
  8 27  4  0
  9 13  4  0
  9 23  4  0
 10 11  1  0
 11 14  2  0
 11 27  1  0
 12 19  1  0
 12 24  4  0
 13 24  4  0
 15 18  1  0
 16 25  4  0
 16 26  4  0
 17 20  4  0
 17 28  1  0
 18 21  4  0
 21 26  4  0
 22 26  4  0
M  END
$$$$

 Created by Python create_sdf_string function

 28 30  0  0  0  0  0  0  0  0999 V2000
    5.7174   -8.4529   26.7190 C   0  0  0  0  0  0  0  0  0  0  0  0
    0.3974   -7.0711   27.5149 C   0  0  0  0  0  0  0  0  0  0  0  0
    2.5338   -7.6891   16.0102 C   0  0  0  0  0  0  0  0  0  0  0  0
    4.8690   -7.4380   26.4151 C   0  0  0  0  0  0  0  0  0  0  0  0
    2.3021   -5.6726   26.0378 C   0  0  0  0  0  0  0  0  0  0  0  0
    7.0880   -4.6163   27.0010 C   0  0  0  0  0  0  0  0  0  0  0  0
    8.3117   -4.3698   27.4436 C   0  0  0  0  0  0  0  0  0  0  0  0
    1.1339   -5.0515   26.3541 C   0  0  0  0  0  0  0  0  0  0  0  0
    4.8080   -8.0362   16.7101 C   0  0  0  0  0  0  0  0  0  0  0  0
   -1.2173   -3.9294   26.9717 O   0  0  0  0  0  0  0  0  0  0  0  0
   -1.0025   -5.0942   27.4586 C   0  0  0  0  0  0  0  0  0  0  0  0
    2.2474   -8.9123   16.6273 C   0  0  0  0  0  0  0  0  0  0  0  0
    4.4957   -9.2636   17.3041 C   0  0  0  0  0  0  0  0  0  0  0  0
   -1.8070   -5.6086   28.1920 O   0  0  0  0  0  0  0  0  0  0  0  0
   10.4296   -5.1799   28.3140 C   0  0  0  0  0  0  0  0  0  0  0  0
    6.6017   -5.9004   26.9187 C   0  0  0  0  0  0  0  0  0  0  0  0
    2.4761   -6.9940   26.4111 N   0  0  0  0  0  0  0  0  0  0  0  0
    9.1353   -5.4053   27.8239 C   0  0  0  0  0  0  0  0  0  0  0  0
    0.9922   -9.3232   16.5995 O   0  0  0  0  0  0  0  0  0  0  0  0
    1.5232   -7.6869   27.1182 C   0  0  0  0  0  0  0  0  0  0  0  0
    8.6878   -6.6715   27.7262 N   0  0  0  0  0  0  0  0  0  0  0  0
    6.9911   -8.2423   27.1808 C   0  0  0  0  0  0  0  0  0  0  0  0
    3.8436   -7.2758   16.0578 C   0  0  0  0  0  0  0  0  0  0  0  0
    3.1882   -9.7190   17.2566 C   0  0  0  0  0  0  0  0  0  0  0  0
    5.3488   -6.1737   26.5092 C   0  0  0  0  0  0  0  0  0  0  0  0
    7.4567   -6.9464   27.2858 C   0  0  0  0  0  0  0  0  0  0  0  0
    0.1921   -5.7592   27.1123 C   0  0  0  0  0  0  0  0  0  0  0  0
    3.5517   -7.7407   25.9711 C   0  0  0  0  0  0  0  0  0  0  0  0
  1  4  4  0
  1 22  4  0
  2 20  4  0
  2 27  4  0
  3 12  4  0
  3 23  4  0
  4 25  4  0
  4 28  1  0
  5  8  4  0
  5 17  4  0
  6  7  4  0
  6 16  4  0
  7 18  4  0
  8 27  4  0
  9 13  4  0
  9 23  4  0
 10 11  1  0
 11 14  2  0
 11 27  1  0
 12 19  1  0
 12 24  4  0
 13 24  4  0
 15 18  1  0
 16 25  4  0
 16 26  4  0
 17 20  4  0
 17 28  1  0
 18 21  4  0
 21 26  4  0
 22 26  4  0
M  END
$$$$

 Created by Python create_sdf_string function

 28 30  0  0  0  0  0  0  0  0999 V2000
    5.7174   -8.4529   26.7190 C   0  0  0  0  0  0  0  0  0  0  0  0
    0.3974   -7.0711   27.5149 C   0  0  0  0  0  0  0  0  0  0  0  0
    2.5338   -7.6891   16.0102 C   0  0  0  0  0  0  0  0  0  0  0  0
    4.8690   -7.4380   26.4151 C   0  0  0  0  0  0  0  0  0  0  0  0
    2.3021   -5.6726   26.0378 C   0  0  0  0  0  0  0  0  0  0  0  0
    7.0880   -4.6163   27.0010 C   0  0  0  0  0  0  0  0  0  0  0  0
    8.3117   -4.3698   27.4436 C   0  0  0  0  0  0  0  0  0  0  0  0
    1.1339   -5.0515   26.3541 C   0  0  0  0  0  0  0  0  0  0  0  0
    4.8080   -8.0362   16.7101 C   0  0  0  0  0  0  0  0  0  0  0  0
   -1.2173   -3.9294   26.9717 O   0  0  0  0  0  0  0  0  0  0  0  0
   -1.0025   -5.0942   27.4586 C   0  0  0  0  0  0  0  0  0  0  0  0
    2.2474   -8.9123   16.6273 C   0  0  0  0  0  0  0  0  0  0  0  0
    4.4957   -9.2636   17.3041 C   0  0  0  0  0  0  0  0  0  0  0  0
   -1.8070   -5.6086   28.1920 O   0  0  0  0  0  0  0  0  0  0  0  0
   10.4296   -5.1799   28.3140 C   0  0  0  0  0  0  0  0  0  0  0  0
    6.6017   -5.9004   26.9187 C   0  0  0  0  0  0  0  0  0  0  0  0
    2.4761   -6.9940   26.4111 N   0  0  0  0  0  0  0  0  0  0  0  0
    9.1353   -5.4053   27.8239 C   0  0  0  0  0  0  0  0  0  0  0  0
    0.9922   -9.3232   16.5995 O   0  0  0  0  0  0  0  0  0  0  0  0
    1.5232   -7.6869   27.1182 C   0  0  0  0  0  0  0  0  0  0  0  0
    8.6878   -6.6715   27.7262 N   0  0  0  0  0  0  0  0  0  0  0  0
    6.9911   -8.2423   27.1808 C   0  0  0  0  0  0  0  0  0  0  0  0
    3.8436   -7.2758   16.0578 C   0  0  0  0  0  0  0  0  0  0  0  0
    3.1882   -9.7190   17.2566 C   0  0  0  0  0  0  0  0  0  0  0  0
    5.3488   -6.1737   26.5092 C   0  0  0  0  0  0  0  0  0  0  0  0
    7.4567   -6.9464   27.2858 C   0  0  0  0  0  0  0  0  0  0  0  0
    0.1921   -5.7592   27.1123 C   0  0  0  0  0  0  0  0  0  0  0  0
    3.5517   -7.7407   25.9711 C   0  0  0  0  0  0  0  0  0  0  0  0
  1  4  4  0
  1 22  4  0
  2 20  4  0
  2 27  4  0
  3 12  4  0
  3 23  4  0
  4 25  4  0
  4 28  1  0
  5  8  4  0
  5 17  4  0
  6  7  4  0
  6 16  4  0
  7 18  4  0
  8 27  4  0
  9 13  4  0
  9 23  4  0
 10 11  1  0
 11 14  2  0
 11 27  1  0
 12 19  1  0
 12 24  4  0
 13 24  4  0
 15 18  1  0
 16 25  4  0
 16 26  4  0
 17 20  4  0
 17 28  1  0
 18 21  4  0
 21 26  4  0
 22 26  4  0
M  END
$$$$

 Created by Python create_sdf_string function

 28 30  0  0  0  0  0  0  0  0999 V2000
    5.7174   -8.4529   26.7190 C   0  0  0  0  0  0  0  0  0  0  0  0
    0.3974   -7.0711   27.5149 C   0  0  0  0  0  0  0  0  0  0  0  0
    2.5338   -7.6891   16.0102 C   0  0  0  0  0  0  0  0  0  0  0  0
    4.8690   -7.4380   26.4151 C   0  0  0  0  0  0  0  0  0  0  0  0
    2.3021   -5.6726   26.0378 C   0  0  0  0  0  0  0  0  0  0  0  0
    7.0880   -4.6163   27.0010 C   0  0  0  0  0  0  0  0  0  0  0  0
    8.3117   -4.3698   27.4436 C   0  0  0  0  0  0  0  0  0  0  0  0
    1.1339   -5.0515   26.3541 C   0  0  0  0  0  0  0  0  0  0  0  0
    4.8080   -8.0362   16.7101 C   0  0  0  0  0  0  0  0  0  0  0  0
   -1.2173   -3.9294   26.9717 O   0  0  0  0  0  0  0  0  0  0  0  0
   -1.0025   -5.0942   27.4586 C   0  0  0  0  0  0  0  0  0  0  0  0
    2.2474   -8.9123   16.6273 C   0  0  0  0  0  0  0  0  0  0  0  0
    4.4957   -9.2636   17.3041 C   0  0  0  0  0  0  0  0  0  0  0  0
   -1.8070   -5.6086   28.1920 O   0  0  0  0  0  0  0  0  0  0  0  0
   10.4296   -5.1799   28.3140 C   0  0  0  0  0  0  0  0  0  0  0  0
    6.6017   -5.9004   26.9187 C   0  0  0  0  0  0  0  0  0  0  0  0
    2.4761   -6.9940   26.4111 N   0  0  0  0  0  0  0  0  0  0  0  0
    9.1353   -5.4053   27.8239 C   0  0  0  0  0  0  0  0  0  0  0  0
    0.9922   -9.3232   16.5995 O   0  0  0  0  0  0  0  0  0  0  0  0
    1.5232   -7.6869   27.1182 C   0  0  0  0  0  0  0  0  0  0  0  0
    8.6878   -6.6715   27.7262 N   0  0  0  0  0  0  0  0  0  0  0  0
    6.9911   -8.2423   27.1808 C   0  0  0  0  0  0  0  0  0  0  0  0
    3.8436   -7.2758   16.0578 C   0  0  0  0  0  0  0  0  0  0  0  0
    3.1882   -9.7190   17.2566 C   0  0  0  0  0  0  0  0  0  0  0  0
    5.3488   -6.1737   26.5092 C   0  0  0  0  0  0  0  0  0  0  0  0
    7.4567   -6.9464   27.2858 C   0  0  0  0  0  0  0  0  0  0  0  0
    0.1921   -5.7592   27.1123 C   0  0  0  0  0  0  0  0  0  0  0  0
    3.5517   -7.7407   25.9711 C   0  0  0  0  0  0  0  0  0  0  0  0
  1  4  4  0
  1 22  4  0
  2 20  4  0
  2 27  4  0
  3 12  4  0
  3 23  4  0
  4 25  4  0
  4 28  1  0
  5  8  4  0
  5 17  4  0
  6  7  4  0
  6 16  4  0
  7 18  4  0
  8 27  4  0
  9 13  4  0
  9 23  4  0
 10 11  1  0
 11 14  2  0
 11 27  1  0
 12 19  1  0
 12 24  4  0
 13 24  4  0
 15 18  1  0
 16 25  4  0
 16 26  4  0
 17 20  4  0
 17 28  1  0
 18 21  4  0
 21 26  4  0
 22 26  4  0
M  END
$$$$

 Created by Python create_sdf_string function

 28 30  0  0  0  0  0  0  0  0999 V2000
    5.7174   -8.4529   26.7190 C   0  0  0  0  0  0  0  0  0  0  0  0
    0.3974   -7.0711   27.5149 C   0  0  0  0  0  0  0  0  0  0  0  0
    2.5338   -7.6891   16.0102 C   0  0  0  0  0  0  0  0  0  0  0  0
    4.8690   -7.4380   26.4151 C   0  0  0  0  0  0  0  0  0  0  0  0
    2.3021   -5.6726   26.0378 C   0  0  0  0  0  0  0  0  0  0  0  0
    7.0880   -4.6163   27.0010 C   0  0  0  0  0  0  0  0  0  0  0  0
    8.3117   -4.3698   27.4436 C   0  0  0  0  0  0  0  0  0  0  0  0
    1.1339   -5.0515   26.3541 C   0  0  0  0  0  0  0  0  0  0  0  0
    4.8080   -8.0362   16.7101 C   0  0  0  0  0  0  0  0  0  0  0  0
   -1.2173   -3.9294   26.9717 O   0  0  0  0  0  0  0  0  0  0  0  0
   -1.0025   -5.0942   27.4586 C   0  0  0  0  0  0  0  0  0  0  0  0
    2.2474   -8.9123   16.6273 C   0  0  0  0  0  0  0  0  0  0  0  0
    4.4957   -9.2636   17.3041 C   0  0  0  0  0  0  0  0  0  0  0  0
   -1.8070   -5.6086   28.1920 O   0  0  0  0  0  0  0  0  0  0  0  0
   10.4296   -5.1799   28.3140 C   0  0  0  0  0  0  0  0  0  0  0  0
    6.6017   -5.9004   26.9187 C   0  0  0  0  0  0  0  0  0  0  0  0
    2.4761   -6.9940   26.4111 N   0  0  0  0  0  0  0  0  0  0  0  0
    9.1353   -5.4053   27.8239 C   0  0  0  0  0  0  0  0  0  0  0  0
    0.9922   -9.3232   16.5995 O   0  0  0  0  0  0  0  0  0  0  0  0
    1.5232   -7.6869   27.1182 C   0  0  0  0  0  0  0  0  0  0  0  0
    8.6878   -6.6715   27.7262 N   0  0  0  0  0  0  0  0  0  0  0  0
    6.9911   -8.2423   27.1808 C   0  0  0  0  0  0  0  0  0  0  0  0
    3.8436   -7.2758   16.0578 C   0  0  0  0  0  0  0  0  0  0  0  0
    3.1882   -9.7190   17.2566 C   0  0  0  0  0  0  0  0  0  0  0  0
    5.3488   -6.1737   26.5092 C   0  0  0  0  0  0  0  0  0  0  0  0
    7.4567   -6.9464   27.2858 C   0  0  0  0  0  0  0  0  0  0  0  0
    0.1921   -5.7592   27.1123 C   0  0  0  0  0  0  0  0  0  0  0  0
    3.5517   -7.7407   25.9711 C   0  0  0  0  0  0  0  0  0  0  0  0
  1  4  4  0
  1 22  4  0
  2 20  4  0
  2 27  4  0
  3 12  4  0
  3 23  4  0
  4 25  4  0
  4 28  1  0
  5  8  4  0
  5 17  4  0
  6  7  4  0
  6 16  4  0
  7 18  4  0
  8 27  4  0
  9 13  4  0
  9 23  4  0
 10 11  1  0
 11 14  2  0
 11 27  1  0
 12 19  1  0
 12 24  4  0
 13 24  4  0
 15 18  1  0
 16 25  4  0
 16 26  4  0
 17 20  4  0
 17 28  1  0
 18 21  4  0
 21 26  4  0
 22 26  4  0
M  END
$$$$

 Created by Python create_sdf_string function

 28 30  0  0  0  0  0  0  0  0999 V2000
    5.7174   -8.4529   26.7190 C   0  0  0  0  0  0  0  0  0  0  0  0
    0.3974   -7.0711   27.5149 C   0  0  0  0  0  0  0  0  0  0  0  0
    2.5338   -7.6891   16.0102 C   0  0  0  0  0  0  0  0  0  0  0  0
    4.8690   -7.4380   26.4151 C   0  0  0  0  0  0  0  0  0  0  0  0
    2.3021   -5.6726   26.0378 C   0  0  0  0  0  0  0  0  0  0  0  0
    7.0880   -4.6163   27.0010 C   0  0  0  0  0  0  0  0  0  0  0  0
    8.3117   -4.3698   27.4436 C   0  0  0  0  0  0  0  0  0  0  0  0
    1.1339   -5.0515   26.3541 C   0  0  0  0  0  0  0  0  0  0  0  0
    4.8080   -8.0362   16.7101 C   0  0  0  0  0  0  0  0  0  0  0  0
   -1.2173   -3.9294   26.9717 O   0  0  0  0  0  0  0  0  0  0  0  0
   -1.0025   -5.0942   27.4586 C   0  0  0  0  0  0  0  0  0  0  0  0
    2.2474   -8.9123   16.6273 C   0  0  0  0  0  0  0  0  0  0  0  0
    4.4957   -9.2636   17.3041 C   0  0  0  0  0  0  0  0  0  0  0  0
   -1.8070   -5.6086   28.1920 O   0  0  0  0  0  0  0  0  0  0  0  0
   10.4296   -5.1799   28.3140 C   0  0  0  0  0  0  0  0  0  0  0  0
    6.6017   -5.9004   26.9187 C   0  0  0  0  0  0  0  0  0  0  0  0
    2.4761   -6.9940   26.4111 N   0  0  0  0  0  0  0  0  0  0  0  0
    9.1353   -5.4053   27.8239 C   0  0  0  0  0  0  0  0  0  0  0  0
    0.9922   -9.3232   16.5995 O   0  0  0  0  0  0  0  0  0  0  0  0
    1.5232   -7.6869   27.1182 C   0  0  0  0  0  0  0  0  0  0  0  0
    8.6878   -6.6715   27.7262 N   0  0  0  0  0  0  0  0  0  0  0  0
    6.9911   -8.2423   27.1808 C   0  0  0  0  0  0  0  0  0  0  0  0
    3.8436   -7.2758   16.0578 C   0  0  0  0  0  0  0  0  0  0  0  0
    3.1882   -9.7190   17.2566 C   0  0  0  0  0  0  0  0  0  0  0  0
    5.3488   -6.1737   26.5092 C   0  0  0  0  0  0  0  0  0  0  0  0
    7.4567   -6.9464   27.2858 C   0  0  0  0  0  0  0  0  0  0  0  0
    0.1921   -5.7592   27.1123 C   0  0  0  0  0  0  0  0  0  0  0  0
    3.5517   -7.7407   25.9711 C   0  0  0  0  0  0  0  0  0  0  0  0
  1  4  4  0
  1 22  4  0
  2 20  4  0
  2 27  4  0
  3 12  4  0
  3 23  4  0
  4 25  4  0
  4 28  1  0
  5  8  4  0
  5 17  4  0
  6  7  4  0
  6 16  4  0
  7 18  4  0
  8 27  4  0
  9 13  4  0
  9 23  4  0
 10 11  1  0
 11 14  2  0
 11 27  1  0
 12 19  1  0
 12 24  4  0
 13 24  4  0
 15 18  1  0
 16 25  4  0
 16 26  4  0
 17 20  4  0
 17 28  1  0
 18 21  4  0
 21 26  4  0
 22 26  4  0
M  END
$$$$

 Created by Python create_sdf_string function

 28 30  0  0  0  0  0  0  0  0999 V2000
    5.7174   -8.4529   26.7190 C   0  0  0  0  0  0  0  0  0  0  0  0
    0.3974   -7.0711   27.5149 C   0  0  0  0  0  0  0  0  0  0  0  0
    2.5338   -7.6891   16.0102 C   0  0  0  0  0  0  0  0  0  0  0  0
    4.8690   -7.4380   26.4151 C   0  0  0  0  0  0  0  0  0  0  0  0
    2.3021   -5.6726   26.0378 C   0  0  0  0  0  0  0  0  0  0  0  0
    7.0880   -4.6163   27.0010 C   0  0  0  0  0  0  0  0  0  0  0  0
    8.3117   -4.3698   27.4436 C   0  0  0  0  0  0  0  0  0  0  0  0
    1.1339   -5.0515   26.3541 C   0  0  0  0  0  0  0  0  0  0  0  0
    4.8080   -8.0362   16.7101 C   0  0  0  0  0  0  0  0  0  0  0  0
   -1.2173   -3.9294   26.9717 O   0  0  0  0  0  0  0  0  0  0  0  0
   -1.0025   -5.0942   27.4586 C   0  0  0  0  0  0  0  0  0  0  0  0
    2.2474   -8.9123   16.6273 C   0  0  0  0  0  0  0  0  0  0  0  0
    4.4957   -9.2636   17.3041 C   0  0  0  0  0  0  0  0  0  0  0  0
   -1.8070   -5.6086   28.1920 O   0  0  0  0  0  0  0  0  0  0  0  0
   10.4296   -5.1799   28.3140 C   0  0  0  0  0  0  0  0  0  0  0  0
    6.6017   -5.9004   26.9187 C   0  0  0  0  0  0  0  0  0  0  0  0
    2.4761   -6.9940   26.4111 N   0  0  0  0  0  0  0  0  0  0  0  0
    9.1353   -5.4053   27.8239 C   0  0  0  0  0  0  0  0  0  0  0  0
    0.9922   -9.3232   16.5995 O   0  0  0  0  0  0  0  0  0  0  0  0
    1.5232   -7.6869   27.1182 C   0  0  0  0  0  0  0  0  0  0  0  0
    8.6878   -6.6715   27.7262 N   0  0  0  0  0  0  0  0  0  0  0  0
    6.9911   -8.2423   27.1808 C   0  0  0  0  0  0  0  0  0  0  0  0
    3.8436   -7.2758   16.0578 C   0  0  0  0  0  0  0  0  0  0  0  0
    3.1882   -9.7190   17.2566 C   0  0  0  0  0  0  0  0  0  0  0  0
    5.3488   -6.1737   26.5092 C   0  0  0  0  0  0  0  0  0  0  0  0
    7.4567   -6.9464   27.2858 C   0  0  0  0  0  0  0  0  0  0  0  0
    0.1921   -5.7592   27.1123 C   0  0  0  0  0  0  0  0  0  0  0  0
    3.5517   -7.7407   25.9711 C   0  0  0  0  0  0  0  0  0  0  0  0
  1  4  4  0
  1 22  4  0
  2 20  4  0
  2 27  4  0
  3 12  4  0
  3 23  4  0
  4 25  4  0
  4 28  1  0
  5  8  4  0
  5 17  4  0
  6  7  4  0
  6 16  4  0
  7 18  4  0
  8 27  4  0
  9 13  4  0
  9 23  4  0
 10 11  1  0
 11 14  2  0
 11 27  1  0
 12 19  1  0
 12 24  4  0
 13 24  4  0
 15 18  1  0
 16 25  4  0
 16 26  4  0
 17 20  4  0
 17 28  1  0
 18 21  4  0
 21 26  4  0
 22 26  4  0
M  END
$$$$

 Created by Python create_sdf_string function

 28 30  0  0  0  0  0  0  0  0999 V2000
    5.7174   -8.4529   26.7190 C   0  0  0  0  0  0  0  0  0  0  0  0
    0.3974   -7.0711   27.5149 C   0  0  0  0  0  0  0  0  0  0  0  0
    2.5338   -7.6891   16.0102 C   0  0  0  0  0  0  0  0  0  0  0  0
    4.8690   -7.4380   26.4151 C   0  0  0  0  0  0  0  0  0  0  0  0
    2.3021   -5.6726   26.0378 C   0  0  0  0  0  0  0  0  0  0  0  0
    7.0880   -4.6163   27.0010 C   0  0  0  0  0  0  0  0  0  0  0  0
    8.3117   -4.3698   27.4436 C   0  0  0  0  0  0  0  0  0  0  0  0
    1.1339   -5.0515   26.3541 C   0  0  0  0  0  0  0  0  0  0  0  0
    4.8080   -8.0362   16.7101 C   0  0  0  0  0  0  0  0  0  0  0  0
   -1.2173   -3.9294   26.9717 O   0  0  0  0  0  0  0  0  0  0  0  0
   -1.0025   -5.0942   27.4586 C   0  0  0  0  0  0  0  0  0  0  0  0
    2.2474   -8.9123   16.6273 C   0  0  0  0  0  0  0  0  0  0  0  0
    4.4957   -9.2636   17.3041 C   0  0  0  0  0  0  0  0  0  0  0  0
   -1.8070   -5.6086   28.1920 O   0  0  0  0  0  0  0  0  0  0  0  0
   10.4296   -5.1799   28.3140 C   0  0  0  0  0  0  0  0  0  0  0  0
    6.6017   -5.9004   26.9187 C   0  0  0  0  0  0  0  0  0  0  0  0
    2.4761   -6.9940   26.4111 N   0  0  0  0  0  0  0  0  0  0  0  0
    9.1353   -5.4053   27.8239 C   0  0  0  0  0  0  0  0  0  0  0  0
    0.9922   -9.3232   16.5995 O   0  0  0  0  0  0  0  0  0  0  0  0
    1.5232   -7.6869   27.1182 C   0  0  0  0  0  0  0  0  0  0  0  0
    8.6878   -6.6715   27.7262 N   0  0  0  0  0  0  0  0  0  0  0  0
    6.9911   -8.2423   27.1808 C   0  0  0  0  0  0  0  0  0  0  0  0
    3.8436   -7.2758   16.0578 C   0  0  0  0  0  0  0  0  0  0  0  0
    3.1882   -9.7190   17.2566 C   0  0  0  0  0  0  0  0  0  0  0  0
    5.3488   -6.1737   26.5092 C   0  0  0  0  0  0  0  0  0  0  0  0
    7.4567   -6.9464   27.2858 C   0  0  0  0  0  0  0  0  0  0  0  0
    0.1921   -5.7592   27.1123 C   0  0  0  0  0  0  0  0  0  0  0  0
    3.5517   -7.7407   25.9711 C   0  0  0  0  0  0  0  0  0  0  0  0
  1  4  4  0
  1 22  4  0
  2 20  4  0
  2 27  4  0
  3 12  4  0
  3 23  4  0
  4 25  4  0
  4 28  1  0
  5  8  4  0
  5 17  4  0
  6  7  4  0
  6 16  4  0
  7 18  4  0
  8 27  4  0
  9 13  4  0
  9 23  4  0
 10 11  1  0
 11 14  2  0
 11 27  1  0
 12 19  1  0
 12 24  4  0
 13 24  4  0
 15 18  1  0
 16 25  4  0
 16 26  4  0
 17 20  4  0
 17 28  1  0
 18 21  4  0
 21 26  4  0
 22 26  4  0
M  END
$$$$

 Created by Python create_sdf_string function

 28 30  0  0  0  0  0  0  0  0999 V2000
    5.7174   -8.4529   26.7190 C   0  0  0  0  0  0  0  0  0  0  0  0
    0.3974   -7.0711   27.5149 C   0  0  0  0  0  0  0  0  0  0  0  0
    2.5338   -7.6891   16.0102 C   0  0  0  0  0  0  0  0  0  0  0  0
    4.8690   -7.4380   26.4151 C   0  0  0  0  0  0  0  0  0  0  0  0
    2.3021   -5.6726   26.0378 C   0  0  0  0  0  0  0  0  0  0  0  0
    7.0880   -4.6163   27.0010 C   0  0  0  0  0  0  0  0  0  0  0  0
    8.3117   -4.3698   27.4436 C   0  0  0  0  0  0  0  0  0  0  0  0
    1.1339   -5.0515   26.3541 C   0  0  0  0  0  0  0  0  0  0  0  0
    4.8080   -8.0362   16.7101 C   0  0  0  0  0  0  0  0  0  0  0  0
   -1.2173   -3.9294   26.9717 O   0  0  0  0  0  0  0  0  0  0  0  0
   -1.0025   -5.0942   27.4586 C   0  0  0  0  0  0  0  0  0  0  0  0
    2.2474   -8.9123   16.6273 C   0  0  0  0  0  0  0  0  0  0  0  0
    4.4957   -9.2636   17.3041 C   0  0  0  0  0  0  0  0  0  0  0  0
   -1.8070   -5.6086   28.1920 O   0  0  0  0  0  0  0  0  0  0  0  0
   10.4296   -5.1799   28.3140 C   0  0  0  0  0  0  0  0  0  0  0  0
    6.6017   -5.9004   26.9187 C   0  0  0  0  0  0  0  0  0  0  0  0
    2.4761   -6.9940   26.4111 N   0  0  0  0  0  0  0  0  0  0  0  0
    9.1353   -5.4053   27.8239 C   0  0  0  0  0  0  0  0  0  0  0  0
    0.9922   -9.3232   16.5995 O   0  0  0  0  0  0  0  0  0  0  0  0
    1.5232   -7.6869   27.1182 C   0  0  0  0  0  0  0  0  0  0  0  0
    8.6878   -6.6715   27.7262 N   0  0  0  0  0  0  0  0  0  0  0  0
    6.9911   -8.2423   27.1808 C   0  0  0  0  0  0  0  0  0  0  0  0
    3.8436   -7.2758   16.0578 C   0  0  0  0  0  0  0  0  0  0  0  0
    3.1882   -9.7190   17.2566 C   0  0  0  0  0  0  0  0  0  0  0  0
    5.3488   -6.1737   26.5092 C   0  0  0  0  0  0  0  0  0  0  0  0
    7.4567   -6.9464   27.2858 C   0  0  0  0  0  0  0  0  0  0  0  0
    0.1921   -5.7592   27.1123 C   0  0  0  0  0  0  0  0  0  0  0  0
    3.5517   -7.7407   25.9711 C   0  0  0  0  0  0  0  0  0  0  0  0
  1  4  4  0
  1 22  4  0
  2 20  4  0
  2 27  4  0
  3 12  4  0
  3 23  4  0
  4 25  4  0
  4 28  1  0
  5  8  4  0
  5 17  4  0
  6  7  4  0
  6 16  4  0
  7 18  4  0
  8 27  4  0
  9 13  4  0
  9 23  4  0
 10 11  1  0
 11 14  2  0
 11 27  1  0
 12 19  1  0
 12 24  4  0
 13 24  4  0
 15 18  1  0
 16 25  4  0
 16 26  4  0
 17 20  4  0
 17 28  1  0
 18 21  4  0
 21 26  4  0
 22 26  4  0
M  END
$$$$

 Created by Python create_sdf_string function

 28 30  0  0  0  0  0  0  0  0999 V2000
    5.7174   -8.4529   26.7190 C   0  0  0  0  0  0  0  0  0  0  0  0
    0.3974   -7.0711   27.5149 C   0  0  0  0  0  0  0  0  0  0  0  0
    2.5338   -7.6891   16.0102 C   0  0  0  0  0  0  0  0  0  0  0  0
    4.8690   -7.4380   26.4151 C   0  0  0  0  0  0  0  0  0  0  0  0
    2.3021   -5.6726   26.0378 C   0  0  0  0  0  0  0  0  0  0  0  0
    7.0880   -4.6163   27.0010 C   0  0  0  0  0  0  0  0  0  0  0  0
    8.3117   -4.3698   27.4436 C   0  0  0  0  0  0  0  0  0  0  0  0
    1.1339   -5.0515   26.3541 C   0  0  0  0  0  0  0  0  0  0  0  0
    4.8080   -8.0362   16.7101 C   0  0  0  0  0  0  0  0  0  0  0  0
   -1.2173   -3.9294   26.9717 O   0  0  0  0  0  0  0  0  0  0  0  0
   -1.0025   -5.0942   27.4586 C   0  0  0  0  0  0  0  0  0  0  0  0
    2.2474   -8.9123   16.6273 C   0  0  0  0  0  0  0  0  0  0  0  0
    4.4957   -9.2636   17.3041 C   0  0  0  0  0  0  0  0  0  0  0  0
   -1.8070   -5.6086   28.1920 O   0  0  0  0  0  0  0  0  0  0  0  0
   10.4296   -5.1799   28.3140 C   0  0  0  0  0  0  0  0  0  0  0  0
    6.6017   -5.9004   26.9187 C   0  0  0  0  0  0  0  0  0  0  0  0
    2.4761   -6.9940   26.4111 N   0  0  0  0  0  0  0  0  0  0  0  0
    9.1353   -5.4053   27.8239 C   0  0  0  0  0  0  0  0  0  0  0  0
    0.9922   -9.3232   16.5995 O   0  0  0  0  0  0  0  0  0  0  0  0
    1.5232   -7.6869   27.1182 C   0  0  0  0  0  0  0  0  0  0  0  0
    8.6878   -6.6715   27.7262 N   0  0  0  0  0  0  0  0  0  0  0  0
    6.9911   -8.2423   27.1808 C   0  0  0  0  0  0  0  0  0  0  0  0
    3.8436   -7.2758   16.0578 C   0  0  0  0  0  0  0  0  0  0  0  0
    3.1882   -9.7190   17.2566 C   0  0  0  0  0  0  0  0  0  0  0  0
    5.3488   -6.1737   26.5092 C   0  0  0  0  0  0  0  0  0  0  0  0
    7.4567   -6.9464   27.2858 C   0  0  0  0  0  0  0  0  0  0  0  0
    0.1921   -5.7592   27.1123 C   0  0  0  0  0  0  0  0  0  0  0  0
    3.5517   -7.7407   25.9711 C   0  0  0  0  0  0  0  0  0  0  0  0
  1  4  4  0
  1 22  4  0
  2 20  4  0
  2 27  4  0
  3 12  4  0
  3 23  4  0
  4 25  4  0
  4 28  1  0
  5  8  4  0
  5 17  4  0
  6  7  4  0
  6 16  4  0
  7 18  4  0
  8 27  4  0
  9 13  4  0
  9 23  4  0
 10 11  1  0
 11 14  2  0
 11 27  1  0
 12 19  1  0
 12 24  4  0
 13 24  4  0
 15 18  1  0
 16 25  4  0
 16 26  4  0
 17 20  4  0
 17 28  1  0
 18 21  4  0
 21 26  4  0
 22 26  4  0
M  END
$$$$

 Created by Python create_sdf_string function

 28 30  0  0  0  0  0  0  0  0999 V2000
    5.7174   -8.4529   26.7190 C   0  0  0  0  0  0  0  0  0  0  0  0
    0.3974   -7.0711   27.5149 C   0  0  0  0  0  0  0  0  0  0  0  0
    2.5338   -7.6891   16.0102 C   0  0  0  0  0  0  0  0  0  0  0  0
    4.8690   -7.4380   26.4151 C   0  0  0  0  0  0  0  0  0  0  0  0
    2.3021   -5.6726   26.0378 C   0  0  0  0  0  0  0  0  0  0  0  0
    7.0880   -4.6163   27.0010 C   0  0  0  0  0  0  0  0  0  0  0  0
    8.3117   -4.3698   27.4436 C   0  0  0  0  0  0  0  0  0  0  0  0
    1.1339   -5.0515   26.3541 C   0  0  0  0  0  0  0  0  0  0  0  0
    4.8080   -8.0362   16.7101 C   0  0  0  0  0  0  0  0  0  0  0  0
   -1.2173   -3.9294   26.9717 O   0  0  0  0  0  0  0  0  0  0  0  0
   -1.0025   -5.0942   27.4586 C   0  0  0  0  0  0  0  0  0  0  0  0
    2.2474   -8.9123   16.6273 C   0  0  0  0  0  0  0  0  0  0  0  0
    4.4957   -9.2636   17.3041 C   0  0  0  0  0  0  0  0  0  0  0  0
   -1.8070   -5.6086   28.1920 O   0  0  0  0  0  0  0  0  0  0  0  0
   10.4296   -5.1799   28.3140 C   0  0  0  0  0  0  0  0  0  0  0  0
    6.6017   -5.9004   26.9187 C   0  0  0  0  0  0  0  0  0  0  0  0
    2.4761   -6.9940   26.4111 N   0  0  0  0  0  0  0  0  0  0  0  0
    9.1353   -5.4053   27.8239 C   0  0  0  0  0  0  0  0  0  0  0  0
    0.9922   -9.3232   16.5995 O   0  0  0  0  0  0  0  0  0  0  0  0
    1.5232   -7.6869   27.1182 C   0  0  0  0  0  0  0  0  0  0  0  0
    8.6878   -6.6715   27.7262 N   0  0  0  0  0  0  0  0  0  0  0  0
    6.9911   -8.2423   27.1808 C   0  0  0  0  0  0  0  0  0  0  0  0
    3.8436   -7.2758   16.0578 C   0  0  0  0  0  0  0  0  0  0  0  0
    3.1882   -9.7190   17.2566 C   0  0  0  0  0  0  0  0  0  0  0  0
    5.3488   -6.1737   26.5092 C   0  0  0  0  0  0  0  0  0  0  0  0
    7.4567   -6.9464   27.2858 C   0  0  0  0  0  0  0  0  0  0  0  0
    0.1921   -5.7592   27.1123 C   0  0  0  0  0  0  0  0  0  0  0  0
    3.5517   -7.7407   25.9711 C   0  0  0  0  0  0  0  0  0  0  0  0
  1  4  4  0
  1 22  4  0
  2 20  4  0
  2 27  4  0
  3 12  4  0
  3 23  4  0
  4 25  4  0
  4 28  1  0
  5  8  4  0
  5 17  4  0
  6  7  4  0
  6 16  4  0
  7 18  4  0
  8 27  4  0
  9 13  4  0
  9 23  4  0
 10 11  1  0
 11 14  2  0
 11 27  1  0
 12 19  1  0
 12 24  4  0
 13 24  4  0
 15 18  1  0
 16 25  4  0
 16 26  4  0
 17 20  4  0
 17 28  1  0
 18 21  4  0
 21 26  4  0
 22 26  4  0
M  END
$$$$

 Created by Python create_sdf_string function

 28 30  0  0  0  0  0  0  0  0999 V2000
    5.7174   -8.4529   26.7190 C   0  0  0  0  0  0  0  0  0  0  0  0
    0.3974   -7.0711   27.5149 C   0  0  0  0  0  0  0  0  0  0  0  0
    2.5338   -7.6891   16.0102 C   0  0  0  0  0  0  0  0  0  0  0  0
    4.8690   -7.4380   26.4151 C   0  0  0  0  0  0  0  0  0  0  0  0
    2.3021   -5.6726   26.0378 C   0  0  0  0  0  0  0  0  0  0  0  0
    7.0880   -4.6163   27.0010 C   0  0  0  0  0  0  0  0  0  0  0  0
    8.3117   -4.3698   27.4436 C   0  0  0  0  0  0  0  0  0  0  0  0
    1.1339   -5.0515   26.3541 C   0  0  0  0  0  0  0  0  0  0  0  0
    4.8080   -8.0362   16.7101 C   0  0  0  0  0  0  0  0  0  0  0  0
   -1.2173   -3.9294   26.9717 O   0  0  0  0  0  0  0  0  0  0  0  0
   -1.0025   -5.0942   27.4586 C   0  0  0  0  0  0  0  0  0  0  0  0
    2.2474   -8.9123   16.6273 C   0  0  0  0  0  0  0  0  0  0  0  0
    4.4957   -9.2636   17.3041 C   0  0  0  0  0  0  0  0  0  0  0  0
   -1.8070   -5.6086   28.1920 O   0  0  0  0  0  0  0  0  0  0  0  0
   10.4296   -5.1799   28.3140 C   0  0  0  0  0  0  0  0  0  0  0  0
    6.6017   -5.9004   26.9187 C   0  0  0  0  0  0  0  0  0  0  0  0
    2.4761   -6.9940   26.4111 N   0  0  0  0  0  0  0  0  0  0  0  0
    9.1353   -5.4053   27.8239 C   0  0  0  0  0  0  0  0  0  0  0  0
    0.9922   -9.3232   16.5995 O   0  0  0  0  0  0  0  0  0  0  0  0
    1.5232   -7.6869   27.1182 C   0  0  0  0  0  0  0  0  0  0  0  0
    8.6878   -6.6715   27.7262 N   0  0  0  0  0  0  0  0  0  0  0  0
    6.9911   -8.2423   27.1808 C   0  0  0  0  0  0  0  0  0  0  0  0
    3.8436   -7.2758   16.0578 C   0  0  0  0  0  0  0  0  0  0  0  0
    3.1882   -9.7190   17.2566 C   0  0  0  0  0  0  0  0  0  0  0  0
    5.3488   -6.1737   26.5092 C   0  0  0  0  0  0  0  0  0  0  0  0
    7.4567   -6.9464   27.2858 C   0  0  0  0  0  0  0  0  0  0  0  0
    0.1921   -5.7592   27.1123 C   0  0  0  0  0  0  0  0  0  0  0  0
    3.5517   -7.7407   25.9711 C   0  0  0  0  0  0  0  0  0  0  0  0
  1  4  4  0
  1 22  4  0
  2 20  4  0
  2 27  4  0
  3 12  4  0
  3 23  4  0
  4 25  4  0
  4 28  1  0
  5  8  4  0
  5 17  4  0
  6  7  4  0
  6 16  4  0
  7 18  4  0
  8 27  4  0
  9 13  4  0
  9 23  4  0
 10 11  1  0
 11 14  2  0
 11 27  1  0
 12 19  1  0
 12 24  4  0
 13 24  4  0
 15 18  1  0
 16 25  4  0
 16 26  4  0
 17 20  4  0
 17 28  1  0
 18 21  4  0
 21 26  4  0
 22 26  4  0
M  END
$$$$

 Created by Python create_sdf_string function

 28 30  0  0  0  0  0  0  0  0999 V2000
    5.7174   -8.4529   26.7190 C   0  0  0  0  0  0  0  0  0  0  0  0
    0.3974   -7.0711   27.5149 C   0  0  0  0  0  0  0  0  0  0  0  0
    2.5338   -7.6891   16.0102 C   0  0  0  0  0  0  0  0  0  0  0  0
    4.8690   -7.4380   26.4151 C   0  0  0  0  0  0  0  0  0  0  0  0
    2.3021   -5.6726   26.0378 C   0  0  0  0  0  0  0  0  0  0  0  0
    7.0880   -4.6163   27.0010 C   0  0  0  0  0  0  0  0  0  0  0  0
    8.3117   -4.3698   27.4436 C   0  0  0  0  0  0  0  0  0  0  0  0
    1.1339   -5.0515   26.3541 C   0  0  0  0  0  0  0  0  0  0  0  0
    4.8080   -8.0362   16.7101 C   0  0  0  0  0  0  0  0  0  0  0  0
   -1.2173   -3.9294   26.9717 O   0  0  0  0  0  0  0  0  0  0  0  0
   -1.0025   -5.0942   27.4586 C   0  0  0  0  0  0  0  0  0  0  0  0
    2.2474   -8.9123   16.6273 C   0  0  0  0  0  0  0  0  0  0  0  0
    4.4957   -9.2636   17.3041 C   0  0  0  0  0  0  0  0  0  0  0  0
   -1.8070   -5.6086   28.1920 O   0  0  0  0  0  0  0  0  0  0  0  0
   10.4296   -5.1799   28.3140 C   0  0  0  0  0  0  0  0  0  0  0  0
    6.6017   -5.9004   26.9187 C   0  0  0  0  0  0  0  0  0  0  0  0
    2.4761   -6.9940   26.4111 N   0  0  0  0  0  0  0  0  0  0  0  0
    9.1353   -5.4053   27.8239 C   0  0  0  0  0  0  0  0  0  0  0  0
    0.9922   -9.3232   16.5995 O   0  0  0  0  0  0  0  0  0  0  0  0
    1.5232   -7.6869   27.1182 C   0  0  0  0  0  0  0  0  0  0  0  0
    8.6878   -6.6715   27.7262 N   0  0  0  0  0  0  0  0  0  0  0  0
    6.9911   -8.2423   27.1808 C   0  0  0  0  0  0  0  0  0  0  0  0
    3.8436   -7.2758   16.0578 C   0  0  0  0  0  0  0  0  0  0  0  0
    3.1882   -9.7190   17.2566 C   0  0  0  0  0  0  0  0  0  0  0  0
    5.3488   -6.1737   26.5092 C   0  0  0  0  0  0  0  0  0  0  0  0
    7.4567   -6.9464   27.2858 C   0  0  0  0  0  0  0  0  0  0  0  0
    0.1921   -5.7592   27.1123 C   0  0  0  0  0  0  0  0  0  0  0  0
    3.5517   -7.7407   25.9711 C   0  0  0  0  0  0  0  0  0  0  0  0
  1  4  4  0
  1 22  4  0
  2 20  4  0
  2 27  4  0
  3 12  4  0
  3 23  4  0
  4 25  4  0
  4 28  1  0
  5  8  4  0
  5 17  4  0
  6  7  4  0
  6 16  4  0
  7 18  4  0
  8 27  4  0
  9 13  4  0
  9 23  4  0
 10 11  1  0
 11 14  2  0
 11 27  1  0
 12 19  1  0
 12 24  4  0
 13 24  4  0
 15 18  1  0
 16 25  4  0
 16 26  4  0
 17 20  4  0
 17 28  1  0
 18 21  4  0
 21 26  4  0
 22 26  4  0
M  END
$$$$

 Created by Python create_sdf_string function

 28 30  0  0  0  0  0  0  0  0999 V2000
    5.7174   -8.4529   26.7190 C   0  0  0  0  0  0  0  0  0  0  0  0
    0.3974   -7.0711   27.5149 C   0  0  0  0  0  0  0  0  0  0  0  0
    2.5338   -7.6891   16.0102 C   0  0  0  0  0  0  0  0  0  0  0  0
    4.8690   -7.4380   26.4151 C   0  0  0  0  0  0  0  0  0  0  0  0
    2.3021   -5.6726   26.0378 C   0  0  0  0  0  0  0  0  0  0  0  0
    7.0880   -4.6163   27.0010 C   0  0  0  0  0  0  0  0  0  0  0  0
    8.3117   -4.3698   27.4436 C   0  0  0  0  0  0  0  0  0  0  0  0
    1.1339   -5.0515   26.3541 C   0  0  0  0  0  0  0  0  0  0  0  0
    4.8080   -8.0362   16.7101 C   0  0  0  0  0  0  0  0  0  0  0  0
   -1.2173   -3.9294   26.9717 O   0  0  0  0  0  0  0  0  0  0  0  0
   -1.0025   -5.0942   27.4586 C   0  0  0  0  0  0  0  0  0  0  0  0
    2.2474   -8.9123   16.6273 C   0  0  0  0  0  0  0  0  0  0  0  0
    4.4957   -9.2636   17.3041 C   0  0  0  0  0  0  0  0  0  0  0  0
   -1.8070   -5.6086   28.1920 O   0  0  0  0  0  0  0  0  0  0  0  0
   10.4296   -5.1799   28.3140 C   0  0  0  0  0  0  0  0  0  0  0  0
    6.6017   -5.9004   26.9187 C   0  0  0  0  0  0  0  0  0  0  0  0
    2.4761   -6.9940   26.4111 N   0  0  0  0  0  0  0  0  0  0  0  0
    9.1353   -5.4053   27.8239 C   0  0  0  0  0  0  0  0  0  0  0  0
    0.9922   -9.3232   16.5995 O   0  0  0  0  0  0  0  0  0  0  0  0
    1.5232   -7.6869   27.1182 C   0  0  0  0  0  0  0  0  0  0  0  0
    8.6878   -6.6715   27.7262 N   0  0  0  0  0  0  0  0  0  0  0  0
    6.9911   -8.2423   27.1808 C   0  0  0  0  0  0  0  0  0  0  0  0
    3.8436   -7.2758   16.0578 C   0  0  0  0  0  0  0  0  0  0  0  0
    3.1882   -9.7190   17.2566 C   0  0  0  0  0  0  0  0  0  0  0  0
    5.3488   -6.1737   26.5092 C   0  0  0  0  0  0  0  0  0  0  0  0
    7.4567   -6.9464   27.2858 C   0  0  0  0  0  0  0  0  0  0  0  0
    0.1921   -5.7592   27.1123 C   0  0  0  0  0  0  0  0  0  0  0  0
    3.5517   -7.7407   25.9711 C   0  0  0  0  0  0  0  0  0  0  0  0
  1  4  4  0
  1 22  4  0
  2 20  4  0
  2 27  4  0
  3 12  4  0
  3 23  4  0
  4 25  4  0
  4 28  1  0
  5  8  4  0
  5 17  4  0
  6  7  4  0
  6 16  4  0
  7 18  4  0
  8 27  4  0
  9 13  4  0
  9 23  4  0
 10 11  1  0
 11 14  2  0
 11 27  1  0
 12 19  1  0
 12 24  4  0
 13 24  4  0
 15 18  1  0
 16 25  4  0
 16 26  4  0
 17 20  4  0
 17 28  1  0
 18 21  4  0
 21 26  4  0
 22 26  4  0
M  END
$$$$

 Created by Python create_sdf_string function

 28 30  0  0  0  0  0  0  0  0999 V2000
    5.7174   -8.4529   26.7190 C   0  0  0  0  0  0  0  0  0  0  0  0
    0.3974   -7.0711   27.5149 C   0  0  0  0  0  0  0  0  0  0  0  0
    2.5338   -7.6891   16.0102 C   0  0  0  0  0  0  0  0  0  0  0  0
    4.8690   -7.4380   26.4151 C   0  0  0  0  0  0  0  0  0  0  0  0
    2.3021   -5.6726   26.0378 C   0  0  0  0  0  0  0  0  0  0  0  0
    7.0880   -4.6163   27.0010 C   0  0  0  0  0  0  0  0  0  0  0  0
    8.3117   -4.3698   27.4436 C   0  0  0  0  0  0  0  0  0  0  0  0
    1.1339   -5.0515   26.3541 C   0  0  0  0  0  0  0  0  0  0  0  0
    4.8080   -8.0362   16.7101 C   0  0  0  0  0  0  0  0  0  0  0  0
   -1.2173   -3.9294   26.9717 O   0  0  0  0  0  0  0  0  0  0  0  0
   -1.0025   -5.0942   27.4586 C   0  0  0  0  0  0  0  0  0  0  0  0
    2.2474   -8.9123   16.6273 C   0  0  0  0  0  0  0  0  0  0  0  0
    4.4957   -9.2636   17.3041 C   0  0  0  0  0  0  0  0  0  0  0  0
   -1.8070   -5.6086   28.1920 O   0  0  0  0  0  0  0  0  0  0  0  0
   10.4296   -5.1799   28.3140 C   0  0  0  0  0  0  0  0  0  0  0  0
    6.6017   -5.9004   26.9187 C   0  0  0  0  0  0  0  0  0  0  0  0
    2.4761   -6.9940   26.4111 N   0  0  0  0  0  0  0  0  0  0  0  0
    9.1353   -5.4053   27.8239 C   0  0  0  0  0  0  0  0  0  0  0  0
    0.9922   -9.3232   16.5995 O   0  0  0  0  0  0  0  0  0  0  0  0
    1.5232   -7.6869   27.1182 C   0  0  0  0  0  0  0  0  0  0  0  0
    8.6878   -6.6715   27.7262 N   0  0  0  0  0  0  0  0  0  0  0  0
    6.9911   -8.2423   27.1808 C   0  0  0  0  0  0  0  0  0  0  0  0
    3.8436   -7.2758   16.0578 C   0  0  0  0  0  0  0  0  0  0  0  0
    3.1882   -9.7190   17.2566 C   0  0  0  0  0  0  0  0  0  0  0  0
    5.3488   -6.1737   26.5092 C   0  0  0  0  0  0  0  0  0  0  0  0
    7.4567   -6.9464   27.2858 C   0  0  0  0  0  0  0  0  0  0  0  0
    0.1921   -5.7592   27.1123 C   0  0  0  0  0  0  0  0  0  0  0  0
    3.5517   -7.7407   25.9711 C   0  0  0  0  0  0  0  0  0  0  0  0
  1  4  4  0
  1 22  4  0
  2 20  4  0
  2 27  4  0
  3 12  4  0
  3 23  4  0
  4 25  4  0
  4 28  1  0
  5  8  4  0
  5 17  4  0
  6  7  4  0
  6 16  4  0
  7 18  4  0
  8 27  4  0
  9 13  4  0
  9 23  4  0
 10 11  1  0
 11 14  2  0
 11 27  1  0
 12 19  1  0
 12 24  4  0
 13 24  4  0
 15 18  1  0
 16 25  4  0
 16 26  4  0
 17 20  4  0
 17 28  1  0
 18 21  4  0
 21 26  4  0
 22 26  4  0
M  END
$$$$

 Created by Python create_sdf_string function

 28 30  0  0  0  0  0  0  0  0999 V2000
    5.7174   -8.4529   26.7190 C   0  0  0  0  0  0  0  0  0  0  0  0
    0.3974   -7.0711   27.5149 C   0  0  0  0  0  0  0  0  0  0  0  0
    2.5338   -7.6891   16.0102 C   0  0  0  0  0  0  0  0  0  0  0  0
    4.8690   -7.4380   26.4151 C   0  0  0  0  0  0  0  0  0  0  0  0
    2.3021   -5.6726   26.0378 C   0  0  0  0  0  0  0  0  0  0  0  0
    7.0880   -4.6163   27.0010 C   0  0  0  0  0  0  0  0  0  0  0  0
    8.3117   -4.3698   27.4436 C   0  0  0  0  0  0  0  0  0  0  0  0
    1.1339   -5.0515   26.3541 C   0  0  0  0  0  0  0  0  0  0  0  0
    4.8080   -8.0362   16.7101 C   0  0  0  0  0  0  0  0  0  0  0  0
   -1.2173   -3.9294   26.9717 O   0  0  0  0  0  0  0  0  0  0  0  0
   -1.0025   -5.0942   27.4586 C   0  0  0  0  0  0  0  0  0  0  0  0
    2.2474   -8.9123   16.6273 C   0  0  0  0  0  0  0  0  0  0  0  0
    4.4957   -9.2636   17.3041 C   0  0  0  0  0  0  0  0  0  0  0  0
   -1.8070   -5.6086   28.1920 O   0  0  0  0  0  0  0  0  0  0  0  0
   10.4296   -5.1799   28.3140 C   0  0  0  0  0  0  0  0  0  0  0  0
    6.6017   -5.9004   26.9187 C   0  0  0  0  0  0  0  0  0  0  0  0
    2.4761   -6.9940   26.4111 N   0  0  0  0  0  0  0  0  0  0  0  0
    9.1353   -5.4053   27.8239 C   0  0  0  0  0  0  0  0  0  0  0  0
    0.9922   -9.3232   16.5995 O   0  0  0  0  0  0  0  0  0  0  0  0
    1.5232   -7.6869   27.1182 C   0  0  0  0  0  0  0  0  0  0  0  0
    8.6878   -6.6715   27.7262 N   0  0  0  0  0  0  0  0  0  0  0  0
    6.9911   -8.2423   27.1808 C   0  0  0  0  0  0  0  0  0  0  0  0
    3.8436   -7.2758   16.0578 C   0  0  0  0  0  0  0  0  0  0  0  0
    3.1882   -9.7190   17.2566 C   0  0  0  0  0  0  0  0  0  0  0  0
    5.3488   -6.1737   26.5092 C   0  0  0  0  0  0  0  0  0  0  0  0
    7.4567   -6.9464   27.2858 C   0  0  0  0  0  0  0  0  0  0  0  0
    0.1921   -5.7592   27.1123 C   0  0  0  0  0  0  0  0  0  0  0  0
    3.5517   -7.7407   25.9711 C   0  0  0  0  0  0  0  0  0  0  0  0
  1  4  4  0
  1 22  4  0
  2 20  4  0
  2 27  4  0
  3 12  4  0
  3 23  4  0
  4 25  4  0
  4 28  1  0
  5  8  4  0
  5 17  4  0
  6  7  4  0
  6 16  4  0
  7 18  4  0
  8 27  4  0
  9 13  4  0
  9 23  4  0
 10 11  1  0
 11 14  2  0
 11 27  1  0
 12 19  1  0
 12 24  4  0
 13 24  4  0
 15 18  1  0
 16 25  4  0
 16 26  4  0
 17 20  4  0
 17 28  1  0
 18 21  4  0
 21 26  4  0
 22 26  4  0
M  END
$$$$

 Created by Python create_sdf_string function

 28 30  0  0  0  0  0  0  0  0999 V2000
    5.7174   -8.4529   26.7190 C   0  0  0  0  0  0  0  0  0  0  0  0
    0.3974   -7.0711   27.5149 C   0  0  0  0  0  0  0  0  0  0  0  0
    2.5338   -7.6891   16.0102 C   0  0  0  0  0  0  0  0  0  0  0  0
    4.8690   -7.4380   26.4151 C   0  0  0  0  0  0  0  0  0  0  0  0
    2.3021   -5.6726   26.0378 C   0  0  0  0  0  0  0  0  0  0  0  0
    7.0880   -4.6163   27.0010 C   0  0  0  0  0  0  0  0  0  0  0  0
    8.3117   -4.3698   27.4436 C   0  0  0  0  0  0  0  0  0  0  0  0
    1.1339   -5.0515   26.3541 C   0  0  0  0  0  0  0  0  0  0  0  0
    4.8080   -8.0362   16.7101 C   0  0  0  0  0  0  0  0  0  0  0  0
   -1.2173   -3.9294   26.9717 O   0  0  0  0  0  0  0  0  0  0  0  0
   -1.0025   -5.0942   27.4586 C   0  0  0  0  0  0  0  0  0  0  0  0
    2.2474   -8.9123   16.6273 C   0  0  0  0  0  0  0  0  0  0  0  0
    4.4957   -9.2636   17.3041 C   0  0  0  0  0  0  0  0  0  0  0  0
   -1.8070   -5.6086   28.1920 O   0  0  0  0  0  0  0  0  0  0  0  0
   10.4296   -5.1799   28.3140 C   0  0  0  0  0  0  0  0  0  0  0  0
    6.6017   -5.9004   26.9187 C   0  0  0  0  0  0  0  0  0  0  0  0
    2.4761   -6.9940   26.4111 N   0  0  0  0  0  0  0  0  0  0  0  0
    9.1353   -5.4053   27.8239 C   0  0  0  0  0  0  0  0  0  0  0  0
    0.9922   -9.3232   16.5995 O   0  0  0  0  0  0  0  0  0  0  0  0
    1.5232   -7.6869   27.1182 C   0  0  0  0  0  0  0  0  0  0  0  0
    8.6878   -6.6715   27.7262 N   0  0  0  0  0  0  0  0  0  0  0  0
    6.9911   -8.2423   27.1808 C   0  0  0  0  0  0  0  0  0  0  0  0
    3.8436   -7.2758   16.0578 C   0  0  0  0  0  0  0  0  0  0  0  0
    3.1882   -9.7190   17.2566 C   0  0  0  0  0  0  0  0  0  0  0  0
    5.3488   -6.1737   26.5092 C   0  0  0  0  0  0  0  0  0  0  0  0
    7.4567   -6.9464   27.2858 C   0  0  0  0  0  0  0  0  0  0  0  0
    0.1921   -5.7592   27.1123 C   0  0  0  0  0  0  0  0  0  0  0  0
    3.5517   -7.7407   25.9711 C   0  0  0  0  0  0  0  0  0  0  0  0
  1  4  4  0
  1 22  4  0
  2 20  4  0
  2 27  4  0
  3 12  4  0
  3 23  4  0
  4 25  4  0
  4 28  1  0
  5  8  4  0
  5 17  4  0
  6  7  4  0
  6 16  4  0
  7 18  4  0
  8 27  4  0
  9 13  4  0
  9 23  4  0
 10 11  1  0
 11 14  2  0
 11 27  1  0
 12 19  1  0
 12 24  4  0
 13 24  4  0
 15 18  1  0
 16 25  4  0
 16 26  4  0
 17 20  4  0
 17 28  1  0
 18 21  4  0
 21 26  4  0
 22 26  4  0
M  END
$$$$

 Created by Python create_sdf_string function

 28 30  0  0  0  0  0  0  0  0999 V2000
    5.7174   -8.4529   26.7190 C   0  0  0  0  0  0  0  0  0  0  0  0
    0.3974   -7.0711   27.5149 C   0  0  0  0  0  0  0  0  0  0  0  0
    2.5338   -7.6891   16.0102 C   0  0  0  0  0  0  0  0  0  0  0  0
    4.8690   -7.4380   26.4151 C   0  0  0  0  0  0  0  0  0  0  0  0
    2.3021   -5.6726   26.0378 C   0  0  0  0  0  0  0  0  0  0  0  0
    7.0880   -4.6163   27.0010 C   0  0  0  0  0  0  0  0  0  0  0  0
    8.3117   -4.3698   27.4436 C   0  0  0  0  0  0  0  0  0  0  0  0
    1.1339   -5.0515   26.3541 C   0  0  0  0  0  0  0  0  0  0  0  0
    4.8080   -8.0362   16.7101 C   0  0  0  0  0  0  0  0  0  0  0  0
   -1.2173   -3.9294   26.9717 O   0  0  0  0  0  0  0  0  0  0  0  0
   -1.0025   -5.0942   27.4586 C   0  0  0  0  0  0  0  0  0  0  0  0
    2.2474   -8.9123   16.6273 C   0  0  0  0  0  0  0  0  0  0  0  0
    4.4957   -9.2636   17.3041 C   0  0  0  0  0  0  0  0  0  0  0  0
   -1.8070   -5.6086   28.1920 O   0  0  0  0  0  0  0  0  0  0  0  0
   10.4296   -5.1799   28.3140 C   0  0  0  0  0  0  0  0  0  0  0  0
    6.6017   -5.9004   26.9187 C   0  0  0  0  0  0  0  0  0  0  0  0
    2.4761   -6.9940   26.4111 N   0  0  0  0  0  0  0  0  0  0  0  0
    9.1353   -5.4053   27.8239 C   0  0  0  0  0  0  0  0  0  0  0  0
    0.9922   -9.3232   16.5995 O   0  0  0  0  0  0  0  0  0  0  0  0
    1.5232   -7.6869   27.1182 C   0  0  0  0  0  0  0  0  0  0  0  0
    8.6878   -6.6715   27.7262 N   0  0  0  0  0  0  0  0  0  0  0  0
    6.9911   -8.2423   27.1808 C   0  0  0  0  0  0  0  0  0  0  0  0
    3.8436   -7.2758   16.0578 C   0  0  0  0  0  0  0  0  0  0  0  0
    3.1882   -9.7190   17.2566 C   0  0  0  0  0  0  0  0  0  0  0  0
    5.3488   -6.1737   26.5092 C   0  0  0  0  0  0  0  0  0  0  0  0
    7.4567   -6.9464   27.2858 C   0  0  0  0  0  0  0  0  0  0  0  0
    0.1921   -5.7592   27.1123 C   0  0  0  0  0  0  0  0  0  0  0  0
    3.5517   -7.7407   25.9711 C   0  0  0  0  0  0  0  0  0  0  0  0
  1  4  4  0
  1 22  4  0
  2 20  4  0
  2 27  4  0
  3 12  4  0
  3 23  4  0
  4 25  4  0
  4 28  1  0
  5  8  4  0
  5 17  4  0
  6  7  4  0
  6 16  4  0
  7 18  4  0
  8 27  4  0
  9 13  4  0
  9 23  4  0
 10 11  1  0
 11 14  2  0
 11 27  1  0
 12 19  1  0
 12 24  4  0
 13 24  4  0
 15 18  1  0
 16 25  4  0
 16 26  4  0
 17 20  4  0
 17 28  1  0
 18 21  4  0
 21 26  4  0
 22 26  4  0
M  END
$$$$

 Created by Python create_sdf_string function

 28 30  0  0  0  0  0  0  0  0999 V2000
    5.7174   -8.4529   26.7190 C   0  0  0  0  0  0  0  0  0  0  0  0
    0.3974   -7.0711   27.5149 C   0  0  0  0  0  0  0  0  0  0  0  0
    2.5338   -7.6891   16.0102 C   0  0  0  0  0  0  0  0  0  0  0  0
    4.8690   -7.4380   26.4151 C   0  0  0  0  0  0  0  0  0  0  0  0
    2.3021   -5.6726   26.0378 C   0  0  0  0  0  0  0  0  0  0  0  0
    7.0880   -4.6163   27.0010 C   0  0  0  0  0  0  0  0  0  0  0  0
    8.3117   -4.3698   27.4436 C   0  0  0  0  0  0  0  0  0  0  0  0
    1.1339   -5.0515   26.3541 C   0  0  0  0  0  0  0  0  0  0  0  0
    4.8080   -8.0362   16.7101 C   0  0  0  0  0  0  0  0  0  0  0  0
   -1.2173   -3.9294   26.9717 O   0  0  0  0  0  0  0  0  0  0  0  0
   -1.0025   -5.0942   27.4586 C   0  0  0  0  0  0  0  0  0  0  0  0
    2.2474   -8.9123   16.6273 C   0  0  0  0  0  0  0  0  0  0  0  0
    4.4957   -9.2636   17.3041 C   0  0  0  0  0  0  0  0  0  0  0  0
   -1.8070   -5.6086   28.1920 O   0  0  0  0  0  0  0  0  0  0  0  0
   10.4296   -5.1799   28.3140 C   0  0  0  0  0  0  0  0  0  0  0  0
    6.6017   -5.9004   26.9187 C   0  0  0  0  0  0  0  0  0  0  0  0
    2.4761   -6.9940   26.4111 N   0  0  0  0  0  0  0  0  0  0  0  0
    9.1353   -5.4053   27.8239 C   0  0  0  0  0  0  0  0  0  0  0  0
    0.9922   -9.3232   16.5995 O   0  0  0  0  0  0  0  0  0  0  0  0
    1.5232   -7.6869   27.1182 C   0  0  0  0  0  0  0  0  0  0  0  0
    8.6878   -6.6715   27.7262 N   0  0  0  0  0  0  0  0  0  0  0  0
    6.9911   -8.2423   27.1808 C   0  0  0  0  0  0  0  0  0  0  0  0
    3.8436   -7.2758   16.0578 C   0  0  0  0  0  0  0  0  0  0  0  0
    3.1882   -9.7190   17.2566 C   0  0  0  0  0  0  0  0  0  0  0  0
    5.3488   -6.1737   26.5092 C   0  0  0  0  0  0  0  0  0  0  0  0
    7.4567   -6.9464   27.2858 C   0  0  0  0  0  0  0  0  0  0  0  0
    0.1921   -5.7592   27.1123 C   0  0  0  0  0  0  0  0  0  0  0  0
    3.5517   -7.7407   25.9711 C   0  0  0  0  0  0  0  0  0  0  0  0
  1  4  4  0
  1 22  4  0
  2 20  4  0
  2 27  4  0
  3 12  4  0
  3 23  4  0
  4 25  4  0
  4 28  1  0
  5  8  4  0
  5 17  4  0
  6  7  4  0
  6 16  4  0
  7 18  4  0
  8 27  4  0
  9 13  4  0
  9 23  4  0
 10 11  1  0
 11 14  2  0
 11 27  1  0
 12 19  1  0
 12 24  4  0
 13 24  4  0
 15 18  1  0
 16 25  4  0
 16 26  4  0
 17 20  4  0
 17 28  1  0
 18 21  4  0
 21 26  4  0
 22 26  4  0
M  END
$$$$

 Created by Python create_sdf_string function

 28 30  0  0  0  0  0  0  0  0999 V2000
    5.7174   -8.4529   26.7190 C   0  0  0  0  0  0  0  0  0  0  0  0
    0.3974   -7.0711   27.5149 C   0  0  0  0  0  0  0  0  0  0  0  0
    2.5338   -7.6891   16.0102 C   0  0  0  0  0  0  0  0  0  0  0  0
    4.8690   -7.4380   26.4151 C   0  0  0  0  0  0  0  0  0  0  0  0
    2.3021   -5.6726   26.0378 C   0  0  0  0  0  0  0  0  0  0  0  0
    7.0880   -4.6163   27.0010 C   0  0  0  0  0  0  0  0  0  0  0  0
    8.3117   -4.3698   27.4436 C   0  0  0  0  0  0  0  0  0  0  0  0
    1.1339   -5.0515   26.3541 C   0  0  0  0  0  0  0  0  0  0  0  0
    4.8080   -8.0362   16.7101 C   0  0  0  0  0  0  0  0  0  0  0  0
   -1.2173   -3.9294   26.9717 O   0  0  0  0  0  0  0  0  0  0  0  0
   -1.0025   -5.0942   27.4586 C   0  0  0  0  0  0  0  0  0  0  0  0
    2.2474   -8.9123   16.6273 C   0  0  0  0  0  0  0  0  0  0  0  0
    4.4957   -9.2636   17.3041 C   0  0  0  0  0  0  0  0  0  0  0  0
   -1.8070   -5.6086   28.1920 O   0  0  0  0  0  0  0  0  0  0  0  0
   10.4296   -5.1799   28.3140 C   0  0  0  0  0  0  0  0  0  0  0  0
    6.6017   -5.9004   26.9187 C   0  0  0  0  0  0  0  0  0  0  0  0
    2.4761   -6.9940   26.4111 N   0  0  0  0  0  0  0  0  0  0  0  0
    9.1353   -5.4053   27.8239 C   0  0  0  0  0  0  0  0  0  0  0  0
    0.9922   -9.3232   16.5995 O   0  0  0  0  0  0  0  0  0  0  0  0
    1.5232   -7.6869   27.1182 C   0  0  0  0  0  0  0  0  0  0  0  0
    8.6878   -6.6715   27.7262 N   0  0  0  0  0  0  0  0  0  0  0  0
    6.9911   -8.2423   27.1808 C   0  0  0  0  0  0  0  0  0  0  0  0
    3.8436   -7.2758   16.0578 C   0  0  0  0  0  0  0  0  0  0  0  0
    3.1882   -9.7190   17.2566 C   0  0  0  0  0  0  0  0  0  0  0  0
    5.3488   -6.1737   26.5092 C   0  0  0  0  0  0  0  0  0  0  0  0
    7.4567   -6.9464   27.2858 C   0  0  0  0  0  0  0  0  0  0  0  0
    0.1921   -5.7592   27.1123 C   0  0  0  0  0  0  0  0  0  0  0  0
    3.5517   -7.7407   25.9711 C   0  0  0  0  0  0  0  0  0  0  0  0
  1  4  4  0
  1 22  4  0
  2 20  4  0
  2 27  4  0
  3 12  4  0
  3 23  4  0
  4 25  4  0
  4 28  1  0
  5  8  4  0
  5 17  4  0
  6  7  4  0
  6 16  4  0
  7 18  4  0
  8 27  4  0
  9 13  4  0
  9 23  4  0
 10 11  1  0
 11 14  2  0
 11 27  1  0
 12 19  1  0
 12 24  4  0
 13 24  4  0
 15 18  1  0
 16 25  4  0
 16 26  4  0
 17 20  4  0
 17 28  1  0
 18 21  4  0
 21 26  4  0
 22 26  4  0
M  END
$$$$

 Created by Python create_sdf_string function

 28 30  0  0  0  0  0  0  0  0999 V2000
    5.7174   -8.4529   26.7190 C   0  0  0  0  0  0  0  0  0  0  0  0
    0.3974   -7.0711   27.5149 C   0  0  0  0  0  0  0  0  0  0  0  0
    2.5338   -7.6891   16.0102 C   0  0  0  0  0  0  0  0  0  0  0  0
    4.8690   -7.4380   26.4151 C   0  0  0  0  0  0  0  0  0  0  0  0
    2.3021   -5.6726   26.0378 C   0  0  0  0  0  0  0  0  0  0  0  0
    7.0880   -4.6163   27.0010 C   0  0  0  0  0  0  0  0  0  0  0  0
    8.3117   -4.3698   27.4436 C   0  0  0  0  0  0  0  0  0  0  0  0
    1.1339   -5.0515   26.3541 C   0  0  0  0  0  0  0  0  0  0  0  0
    4.8080   -8.0362   16.7101 C   0  0  0  0  0  0  0  0  0  0  0  0
   -1.2173   -3.9294   26.9717 O   0  0  0  0  0  0  0  0  0  0  0  0
   -1.0025   -5.0942   27.4586 C   0  0  0  0  0  0  0  0  0  0  0  0
    2.2474   -8.9123   16.6273 C   0  0  0  0  0  0  0  0  0  0  0  0
    4.4957   -9.2636   17.3041 C   0  0  0  0  0  0  0  0  0  0  0  0
   -1.8070   -5.6086   28.1920 O   0  0  0  0  0  0  0  0  0  0  0  0
   10.4296   -5.1799   28.3140 C   0  0  0  0  0  0  0  0  0  0  0  0
    6.6017   -5.9004   26.9187 C   0  0  0  0  0  0  0  0  0  0  0  0
    2.4761   -6.9940   26.4111 N   0  0  0  0  0  0  0  0  0  0  0  0
    9.1353   -5.4053   27.8239 C   0  0  0  0  0  0  0  0  0  0  0  0
    0.9922   -9.3232   16.5995 O   0  0  0  0  0  0  0  0  0  0  0  0
    1.5232   -7.6869   27.1182 C   0  0  0  0  0  0  0  0  0  0  0  0
    8.6878   -6.6715   27.7262 N   0  0  0  0  0  0  0  0  0  0  0  0
    6.9911   -8.2423   27.1808 C   0  0  0  0  0  0  0  0  0  0  0  0
    3.8436   -7.2758   16.0578 C   0  0  0  0  0  0  0  0  0  0  0  0
    3.1882   -9.7190   17.2566 C   0  0  0  0  0  0  0  0  0  0  0  0
    5.3488   -6.1737   26.5092 C   0  0  0  0  0  0  0  0  0  0  0  0
    7.4567   -6.9464   27.2858 C   0  0  0  0  0  0  0  0  0  0  0  0
    0.1921   -5.7592   27.1123 C   0  0  0  0  0  0  0  0  0  0  0  0
    3.5517   -7.7407   25.9711 C   0  0  0  0  0  0  0  0  0  0  0  0
  1  4  4  0
  1 22  4  0
  2 20  4  0
  2 27  4  0
  3 12  4  0
  3 23  4  0
  4 25  4  0
  4 28  1  0
  5  8  4  0
  5 17  4  0
  6  7  4  0
  6 16  4  0
  7 18  4  0
  8 27  4  0
  9 13  4  0
  9 23  4  0
 10 11  1  0
 11 14  2  0
 11 27  1  0
 12 19  1  0
 12 24  4  0
 13 24  4  0
 15 18  1  0
 16 25  4  0
 16 26  4  0
 17 20  4  0
 17 28  1  0
 18 21  4  0
 21 26  4  0
 22 26  4  0
M  END
$$$$

 Created by Python create_sdf_string function

 28 30  0  0  0  0  0  0  0  0999 V2000
    5.7174   -8.4529   26.7190 C   0  0  0  0  0  0  0  0  0  0  0  0
    0.3974   -7.0711   27.5149 C   0  0  0  0  0  0  0  0  0  0  0  0
    2.5338   -7.6891   16.0102 C   0  0  0  0  0  0  0  0  0  0  0  0
    4.8690   -7.4380   26.4151 C   0  0  0  0  0  0  0  0  0  0  0  0
    2.3021   -5.6726   26.0378 C   0  0  0  0  0  0  0  0  0  0  0  0
    7.0880   -4.6163   27.0010 C   0  0  0  0  0  0  0  0  0  0  0  0
    8.3117   -4.3698   27.4436 C   0  0  0  0  0  0  0  0  0  0  0  0
    1.1339   -5.0515   26.3541 C   0  0  0  0  0  0  0  0  0  0  0  0
    4.8080   -8.0362   16.7101 C   0  0  0  0  0  0  0  0  0  0  0  0
   -1.2173   -3.9294   26.9717 O   0  0  0  0  0  0  0  0  0  0  0  0
   -1.0025   -5.0942   27.4586 C   0  0  0  0  0  0  0  0  0  0  0  0
    2.2474   -8.9123   16.6273 C   0  0  0  0  0  0  0  0  0  0  0  0
    4.4957   -9.2636   17.3041 C   0  0  0  0  0  0  0  0  0  0  0  0
   -1.8070   -5.6086   28.1920 O   0  0  0  0  0  0  0  0  0  0  0  0
   10.4296   -5.1799   28.3140 C   0  0  0  0  0  0  0  0  0  0  0  0
    6.6017   -5.9004   26.9187 C   0  0  0  0  0  0  0  0  0  0  0  0
    2.4761   -6.9940   26.4111 N   0  0  0  0  0  0  0  0  0  0  0  0
    9.1353   -5.4053   27.8239 C   0  0  0  0  0  0  0  0  0  0  0  0
    0.9922   -9.3232   16.5995 O   0  0  0  0  0  0  0  0  0  0  0  0
    1.5232   -7.6869   27.1182 C   0  0  0  0  0  0  0  0  0  0  0  0
    8.6878   -6.6715   27.7262 N   0  0  0  0  0  0  0  0  0  0  0  0
    6.9911   -8.2423   27.1808 C   0  0  0  0  0  0  0  0  0  0  0  0
    3.8436   -7.2758   16.0578 C   0  0  0  0  0  0  0  0  0  0  0  0
    3.1882   -9.7190   17.2566 C   0  0  0  0  0  0  0  0  0  0  0  0
    5.3488   -6.1737   26.5092 C   0  0  0  0  0  0  0  0  0  0  0  0
    7.4567   -6.9464   27.2858 C   0  0  0  0  0  0  0  0  0  0  0  0
    0.1921   -5.7592   27.1123 C   0  0  0  0  0  0  0  0  0  0  0  0
    3.5517   -7.7407   25.9711 C   0  0  0  0  0  0  0  0  0  0  0  0
  1  4  4  0
  1 22  4  0
  2 20  4  0
  2 27  4  0
  3 12  4  0
  3 23  4  0
  4 25  4  0
  4 28  1  0
  5  8  4  0
  5 17  4  0
  6  7  4  0
  6 16  4  0
  7 18  4  0
  8 27  4  0
  9 13  4  0
  9 23  4  0
 10 11  1  0
 11 14  2  0
 11 27  1  0
 12 19  1  0
 12 24  4  0
 13 24  4  0
 15 18  1  0
 16 25  4  0
 16 26  4  0
 17 20  4  0
 17 28  1  0
 18 21  4  0
 21 26  4  0
 22 26  4  0
M  END
$$$$

 Created by Python create_sdf_string function

 28 30  0  0  0  0  0  0  0  0999 V2000
    5.7174   -8.4529   26.7190 C   0  0  0  0  0  0  0  0  0  0  0  0
    0.3974   -7.0711   27.5149 C   0  0  0  0  0  0  0  0  0  0  0  0
    2.5338   -7.6891   16.0102 C   0  0  0  0  0  0  0  0  0  0  0  0
    4.8690   -7.4380   26.4151 C   0  0  0  0  0  0  0  0  0  0  0  0
    2.3021   -5.6726   26.0378 C   0  0  0  0  0  0  0  0  0  0  0  0
    7.0880   -4.6163   27.0010 C   0  0  0  0  0  0  0  0  0  0  0  0
    8.3117   -4.3698   27.4436 C   0  0  0  0  0  0  0  0  0  0  0  0
    1.1339   -5.0515   26.3541 C   0  0  0  0  0  0  0  0  0  0  0  0
    4.8080   -8.0362   16.7101 C   0  0  0  0  0  0  0  0  0  0  0  0
   -1.2173   -3.9294   26.9717 O   0  0  0  0  0  0  0  0  0  0  0  0
   -1.0025   -5.0942   27.4586 C   0  0  0  0  0  0  0  0  0  0  0  0
    2.2474   -8.9123   16.6273 C   0  0  0  0  0  0  0  0  0  0  0  0
    4.4957   -9.2636   17.3041 C   0  0  0  0  0  0  0  0  0  0  0  0
   -1.8070   -5.6086   28.1920 O   0  0  0  0  0  0  0  0  0  0  0  0
   10.4296   -5.1799   28.3140 C   0  0  0  0  0  0  0  0  0  0  0  0
    6.6017   -5.9004   26.9187 C   0  0  0  0  0  0  0  0  0  0  0  0
    2.4761   -6.9940   26.4111 N   0  0  0  0  0  0  0  0  0  0  0  0
    9.1353   -5.4053   27.8239 C   0  0  0  0  0  0  0  0  0  0  0  0
    0.9922   -9.3232   16.5995 O   0  0  0  0  0  0  0  0  0  0  0  0
    1.5232   -7.6869   27.1182 C   0  0  0  0  0  0  0  0  0  0  0  0
    8.6878   -6.6715   27.7262 N   0  0  0  0  0  0  0  0  0  0  0  0
    6.9911   -8.2423   27.1808 C   0  0  0  0  0  0  0  0  0  0  0  0
    3.8436   -7.2758   16.0578 C   0  0  0  0  0  0  0  0  0  0  0  0
    3.1882   -9.7190   17.2566 C   0  0  0  0  0  0  0  0  0  0  0  0
    5.3488   -6.1737   26.5092 C   0  0  0  0  0  0  0  0  0  0  0  0
    7.4567   -6.9464   27.2858 C   0  0  0  0  0  0  0  0  0  0  0  0
    0.1921   -5.7592   27.1123 C   0  0  0  0  0  0  0  0  0  0  0  0
    3.5517   -7.7407   25.9711 C   0  0  0  0  0  0  0  0  0  0  0  0
  1  4  4  0
  1 22  4  0
  2 20  4  0
  2 27  4  0
  3 12  4  0
  3 23  4  0
  4 25  4  0
  4 28  1  0
  5  8  4  0
  5 17  4  0
  6  7  4  0
  6 16  4  0
  7 18  4  0
  8 27  4  0
  9 13  4  0
  9 23  4  0
 10 11  1  0
 11 14  2  0
 11 27  1  0
 12 19  1  0
 12 24  4  0
 13 24  4  0
 15 18  1  0
 16 25  4  0
 16 26  4  0
 17 20  4  0
 17 28  1  0
 18 21  4  0
 21 26  4  0
 22 26  4  0
M  END
$$$$

 Created by Python create_sdf_string function

 28 30  0  0  0  0  0  0  0  0999 V2000
    5.7174   -8.4529   26.7190 C   0  0  0  0  0  0  0  0  0  0  0  0
    0.3974   -7.0711   27.5149 C   0  0  0  0  0  0  0  0  0  0  0  0
    2.5338   -7.6891   16.0102 C   0  0  0  0  0  0  0  0  0  0  0  0
    4.8690   -7.4380   26.4151 C   0  0  0  0  0  0  0  0  0  0  0  0
    2.3021   -5.6726   26.0378 C   0  0  0  0  0  0  0  0  0  0  0  0
    7.0880   -4.6163   27.0010 C   0  0  0  0  0  0  0  0  0  0  0  0
    8.3117   -4.3698   27.4436 C   0  0  0  0  0  0  0  0  0  0  0  0
    1.1339   -5.0515   26.3541 C   0  0  0  0  0  0  0  0  0  0  0  0
    4.8080   -8.0362   16.7101 C   0  0  0  0  0  0  0  0  0  0  0  0
   -1.2173   -3.9294   26.9717 O   0  0  0  0  0  0  0  0  0  0  0  0
   -1.0025   -5.0942   27.4586 C   0  0  0  0  0  0  0  0  0  0  0  0
    2.2474   -8.9123   16.6273 C   0  0  0  0  0  0  0  0  0  0  0  0
    4.4957   -9.2636   17.3041 C   0  0  0  0  0  0  0  0  0  0  0  0
   -1.8070   -5.6086   28.1920 O   0  0  0  0  0  0  0  0  0  0  0  0
   10.4296   -5.1799   28.3140 C   0  0  0  0  0  0  0  0  0  0  0  0
    6.6017   -5.9004   26.9187 C   0  0  0  0  0  0  0  0  0  0  0  0
    2.4761   -6.9940   26.4111 N   0  0  0  0  0  0  0  0  0  0  0  0
    9.1353   -5.4053   27.8239 C   0  0  0  0  0  0  0  0  0  0  0  0
    0.9922   -9.3232   16.5995 O   0  0  0  0  0  0  0  0  0  0  0  0
    1.5232   -7.6869   27.1182 C   0  0  0  0  0  0  0  0  0  0  0  0
    8.6878   -6.6715   27.7262 N   0  0  0  0  0  0  0  0  0  0  0  0
    6.9911   -8.2423   27.1808 C   0  0  0  0  0  0  0  0  0  0  0  0
    3.8436   -7.2758   16.0578 C   0  0  0  0  0  0  0  0  0  0  0  0
    3.1882   -9.7190   17.2566 C   0  0  0  0  0  0  0  0  0  0  0  0
    5.3488   -6.1737   26.5092 C   0  0  0  0  0  0  0  0  0  0  0  0
    7.4567   -6.9464   27.2858 C   0  0  0  0  0  0  0  0  0  0  0  0
    0.1921   -5.7592   27.1123 C   0  0  0  0  0  0  0  0  0  0  0  0
    3.5517   -7.7407   25.9711 C   0  0  0  0  0  0  0  0  0  0  0  0
  1  4  4  0
  1 22  4  0
  2 20  4  0
  2 27  4  0
  3 12  4  0
  3 23  4  0
  4 25  4  0
  4 28  1  0
  5  8  4  0
  5 17  4  0
  6  7  4  0
  6 16  4  0
  7 18  4  0
  8 27  4  0
  9 13  4  0
  9 23  4  0
 10 11  1  0
 11 14  2  0
 11 27  1  0
 12 19  1  0
 12 24  4  0
 13 24  4  0
 15 18  1  0
 16 25  4  0
 16 26  4  0
 17 20  4  0
 17 28  1  0
 18 21  4  0
 21 26  4  0
 22 26  4  0
M  END
$$$$

 Created by Python create_sdf_string function

 28 30  0  0  0  0  0  0  0  0999 V2000
    5.7174   -8.4529   26.7190 C   0  0  0  0  0  0  0  0  0  0  0  0
    0.3974   -7.0711   27.5149 C   0  0  0  0  0  0  0  0  0  0  0  0
    2.5338   -7.6891   16.0102 C   0  0  0  0  0  0  0  0  0  0  0  0
    4.8690   -7.4380   26.4151 C   0  0  0  0  0  0  0  0  0  0  0  0
    2.3021   -5.6726   26.0378 C   0  0  0  0  0  0  0  0  0  0  0  0
    7.0880   -4.6163   27.0010 C   0  0  0  0  0  0  0  0  0  0  0  0
    8.3117   -4.3698   27.4436 C   0  0  0  0  0  0  0  0  0  0  0  0
    1.1339   -5.0515   26.3541 C   0  0  0  0  0  0  0  0  0  0  0  0
    4.8080   -8.0362   16.7101 C   0  0  0  0  0  0  0  0  0  0  0  0
   -1.2173   -3.9294   26.9717 O   0  0  0  0  0  0  0  0  0  0  0  0
   -1.0025   -5.0942   27.4586 C   0  0  0  0  0  0  0  0  0  0  0  0
    2.2474   -8.9123   16.6273 C   0  0  0  0  0  0  0  0  0  0  0  0
    4.4957   -9.2636   17.3041 C   0  0  0  0  0  0  0  0  0  0  0  0
   -1.8070   -5.6086   28.1920 O   0  0  0  0  0  0  0  0  0  0  0  0
   10.4296   -5.1799   28.3140 C   0  0  0  0  0  0  0  0  0  0  0  0
    6.6017   -5.9004   26.9187 C   0  0  0  0  0  0  0  0  0  0  0  0
    2.4761   -6.9940   26.4111 N   0  0  0  0  0  0  0  0  0  0  0  0
    9.1353   -5.4053   27.8239 C   0  0  0  0  0  0  0  0  0  0  0  0
    0.9922   -9.3232   16.5995 O   0  0  0  0  0  0  0  0  0  0  0  0
    1.5232   -7.6869   27.1182 C   0  0  0  0  0  0  0  0  0  0  0  0
    8.6878   -6.6715   27.7262 N   0  0  0  0  0  0  0  0  0  0  0  0
    6.9911   -8.2423   27.1808 C   0  0  0  0  0  0  0  0  0  0  0  0
    3.8436   -7.2758   16.0578 C   0  0  0  0  0  0  0  0  0  0  0  0
    3.1882   -9.7190   17.2566 C   0  0  0  0  0  0  0  0  0  0  0  0
    5.3488   -6.1737   26.5092 C   0  0  0  0  0  0  0  0  0  0  0  0
    7.4567   -6.9464   27.2858 C   0  0  0  0  0  0  0  0  0  0  0  0
    0.1921   -5.7592   27.1123 C   0  0  0  0  0  0  0  0  0  0  0  0
    3.5517   -7.7407   25.9711 C   0  0  0  0  0  0  0  0  0  0  0  0
  1  4  4  0
  1 22  4  0
  2 20  4  0
  2 27  4  0
  3 12  4  0
  3 23  4  0
  4 25  4  0
  4 28  1  0
  5  8  4  0
  5 17  4  0
  6  7  4  0
  6 16  4  0
  7 18  4  0
  8 27  4  0
  9 13  4  0
  9 23  4  0
 10 11  1  0
 11 14  2  0
 11 27  1  0
 12 19  1  0
 12 24  4  0
 13 24  4  0
 15 18  1  0
 16 25  4  0
 16 26  4  0
 17 20  4  0
 17 28  1  0
 18 21  4  0
 21 26  4  0
 22 26  4  0
M  END
$$$$

 Created by Python create_sdf_string function

 28 30  0  0  0  0  0  0  0  0999 V2000
    5.7174   -8.4529   26.7190 C   0  0  0  0  0  0  0  0  0  0  0  0
    0.3974   -7.0711   27.5149 C   0  0  0  0  0  0  0  0  0  0  0  0
    2.5338   -7.6891   16.0102 C   0  0  0  0  0  0  0  0  0  0  0  0
    4.8690   -7.4380   26.4151 C   0  0  0  0  0  0  0  0  0  0  0  0
    2.3021   -5.6726   26.0378 C   0  0  0  0  0  0  0  0  0  0  0  0
    7.0880   -4.6163   27.0010 C   0  0  0  0  0  0  0  0  0  0  0  0
    8.3117   -4.3698   27.4436 C   0  0  0  0  0  0  0  0  0  0  0  0
    1.1339   -5.0515   26.3541 C   0  0  0  0  0  0  0  0  0  0  0  0
    4.8080   -8.0362   16.7101 C   0  0  0  0  0  0  0  0  0  0  0  0
   -1.2173   -3.9294   26.9717 O   0  0  0  0  0  0  0  0  0  0  0  0
   -1.0025   -5.0942   27.4586 C   0  0  0  0  0  0  0  0  0  0  0  0
    2.2474   -8.9123   16.6273 C   0  0  0  0  0  0  0  0  0  0  0  0
    4.4957   -9.2636   17.3041 C   0  0  0  0  0  0  0  0  0  0  0  0
   -1.8070   -5.6086   28.1920 O   0  0  0  0  0  0  0  0  0  0  0  0
   10.4296   -5.1799   28.3140 C   0  0  0  0  0  0  0  0  0  0  0  0
    6.6017   -5.9004   26.9187 C   0  0  0  0  0  0  0  0  0  0  0  0
    2.4761   -6.9940   26.4111 N   0  0  0  0  0  0  0  0  0  0  0  0
    9.1353   -5.4053   27.8239 C   0  0  0  0  0  0  0  0  0  0  0  0
    0.9922   -9.3232   16.5995 O   0  0  0  0  0  0  0  0  0  0  0  0
    1.5232   -7.6869   27.1182 C   0  0  0  0  0  0  0  0  0  0  0  0
    8.6878   -6.6715   27.7262 N   0  0  0  0  0  0  0  0  0  0  0  0
    6.9911   -8.2423   27.1808 C   0  0  0  0  0  0  0  0  0  0  0  0
    3.8436   -7.2758   16.0578 C   0  0  0  0  0  0  0  0  0  0  0  0
    3.1882   -9.7190   17.2566 C   0  0  0  0  0  0  0  0  0  0  0  0
    5.3488   -6.1737   26.5092 C   0  0  0  0  0  0  0  0  0  0  0  0
    7.4567   -6.9464   27.2858 C   0  0  0  0  0  0  0  0  0  0  0  0
    0.1921   -5.7592   27.1123 C   0  0  0  0  0  0  0  0  0  0  0  0
    3.5517   -7.7407   25.9711 C   0  0  0  0  0  0  0  0  0  0  0  0
  1  4  4  0
  1 22  4  0
  2 20  4  0
  2 27  4  0
  3 12  4  0
  3 23  4  0
  4 25  4  0
  4 28  1  0
  5  8  4  0
  5 17  4  0
  6  7  4  0
  6 16  4  0
  7 18  4  0
  8 27  4  0
  9 13  4  0
  9 23  4  0
 10 11  1  0
 11 14  2  0
 11 27  1  0
 12 19  1  0
 12 24  4  0
 13 24  4  0
 15 18  1  0
 16 25  4  0
 16 26  4  0
 17 20  4  0
 17 28  1  0
 18 21  4  0
 21 26  4  0
 22 26  4  0
M  END
$$$$

 Created by Python create_sdf_string function

 28 30  0  0  0  0  0  0  0  0999 V2000
    5.7174   -8.4529   26.7190 C   0  0  0  0  0  0  0  0  0  0  0  0
    0.3974   -7.0711   27.5149 C   0  0  0  0  0  0  0  0  0  0  0  0
    2.5338   -7.6891   16.0102 C   0  0  0  0  0  0  0  0  0  0  0  0
    4.8690   -7.4380   26.4151 C   0  0  0  0  0  0  0  0  0  0  0  0
    2.3021   -5.6726   26.0378 C   0  0  0  0  0  0  0  0  0  0  0  0
    7.0880   -4.6163   27.0010 C   0  0  0  0  0  0  0  0  0  0  0  0
    8.3117   -4.3698   27.4436 C   0  0  0  0  0  0  0  0  0  0  0  0
    1.1339   -5.0515   26.3541 C   0  0  0  0  0  0  0  0  0  0  0  0
    4.8080   -8.0362   16.7101 C   0  0  0  0  0  0  0  0  0  0  0  0
   -1.2173   -3.9294   26.9717 O   0  0  0  0  0  0  0  0  0  0  0  0
   -1.0025   -5.0942   27.4586 C   0  0  0  0  0  0  0  0  0  0  0  0
    2.2474   -8.9123   16.6273 C   0  0  0  0  0  0  0  0  0  0  0  0
    4.4957   -9.2636   17.3041 C   0  0  0  0  0  0  0  0  0  0  0  0
   -1.8070   -5.6086   28.1920 O   0  0  0  0  0  0  0  0  0  0  0  0
   10.4296   -5.1799   28.3140 C   0  0  0  0  0  0  0  0  0  0  0  0
    6.6017   -5.9004   26.9187 C   0  0  0  0  0  0  0  0  0  0  0  0
    2.4761   -6.9940   26.4111 N   0  0  0  0  0  0  0  0  0  0  0  0
    9.1353   -5.4053   27.8239 C   0  0  0  0  0  0  0  0  0  0  0  0
    0.9922   -9.3232   16.5995 O   0  0  0  0  0  0  0  0  0  0  0  0
    1.5232   -7.6869   27.1182 C   0  0  0  0  0  0  0  0  0  0  0  0
    8.6878   -6.6715   27.7262 N   0  0  0  0  0  0  0  0  0  0  0  0
    6.9911   -8.2423   27.1808 C   0  0  0  0  0  0  0  0  0  0  0  0
    3.8436   -7.2758   16.0578 C   0  0  0  0  0  0  0  0  0  0  0  0
    3.1882   -9.7190   17.2566 C   0  0  0  0  0  0  0  0  0  0  0  0
    5.3488   -6.1737   26.5092 C   0  0  0  0  0  0  0  0  0  0  0  0
    7.4567   -6.9464   27.2858 C   0  0  0  0  0  0  0  0  0  0  0  0
    0.1921   -5.7592   27.1123 C   0  0  0  0  0  0  0  0  0  0  0  0
    3.5517   -7.7407   25.9711 C   0  0  0  0  0  0  0  0  0  0  0  0
  1  4  4  0
  1 22  4  0
  2 20  4  0
  2 27  4  0
  3 12  4  0
  3 23  4  0
  4 25  4  0
  4 28  1  0
  5  8  4  0
  5 17  4  0
  6  7  4  0
  6 16  4  0
  7 18  4  0
  8 27  4  0
  9 13  4  0
  9 23  4  0
 10 11  1  0
 11 14  2  0
 11 27  1  0
 12 19  1  0
 12 24  4  0
 13 24  4  0
 15 18  1  0
 16 25  4  0
 16 26  4  0
 17 20  4  0
 17 28  1  0
 18 21  4  0
 21 26  4  0
 22 26  4  0
M  END
$$$$

 Created by Python create_sdf_string function

 28 30  0  0  0  0  0  0  0  0999 V2000
    5.7174   -8.4529   26.7190 C   0  0  0  0  0  0  0  0  0  0  0  0
    0.3974   -7.0711   27.5149 C   0  0  0  0  0  0  0  0  0  0  0  0
    2.5338   -7.6891   16.0102 C   0  0  0  0  0  0  0  0  0  0  0  0
    4.8690   -7.4380   26.4151 C   0  0  0  0  0  0  0  0  0  0  0  0
    2.3021   -5.6726   26.0378 C   0  0  0  0  0  0  0  0  0  0  0  0
    7.0880   -4.6163   27.0010 C   0  0  0  0  0  0  0  0  0  0  0  0
    8.3117   -4.3698   27.4436 C   0  0  0  0  0  0  0  0  0  0  0  0
    1.1339   -5.0515   26.3541 C   0  0  0  0  0  0  0  0  0  0  0  0
    4.8080   -8.0362   16.7101 C   0  0  0  0  0  0  0  0  0  0  0  0
   -1.2173   -3.9294   26.9717 O   0  0  0  0  0  0  0  0  0  0  0  0
   -1.0025   -5.0942   27.4586 C   0  0  0  0  0  0  0  0  0  0  0  0
    2.2474   -8.9123   16.6273 C   0  0  0  0  0  0  0  0  0  0  0  0
    4.4957   -9.2636   17.3041 C   0  0  0  0  0  0  0  0  0  0  0  0
   -1.8070   -5.6086   28.1920 O   0  0  0  0  0  0  0  0  0  0  0  0
   10.4296   -5.1799   28.3140 C   0  0  0  0  0  0  0  0  0  0  0  0
    6.6017   -5.9004   26.9187 C   0  0  0  0  0  0  0  0  0  0  0  0
    2.4761   -6.9940   26.4111 N   0  0  0  0  0  0  0  0  0  0  0  0
    9.1353   -5.4053   27.8239 C   0  0  0  0  0  0  0  0  0  0  0  0
    0.9922   -9.3232   16.5995 O   0  0  0  0  0  0  0  0  0  0  0  0
    1.5232   -7.6869   27.1182 C   0  0  0  0  0  0  0  0  0  0  0  0
    8.6878   -6.6715   27.7262 N   0  0  0  0  0  0  0  0  0  0  0  0
    6.9911   -8.2423   27.1808 C   0  0  0  0  0  0  0  0  0  0  0  0
    3.8436   -7.2758   16.0578 C   0  0  0  0  0  0  0  0  0  0  0  0
    3.1882   -9.7190   17.2566 C   0  0  0  0  0  0  0  0  0  0  0  0
    5.3488   -6.1737   26.5092 C   0  0  0  0  0  0  0  0  0  0  0  0
    7.4567   -6.9464   27.2858 C   0  0  0  0  0  0  0  0  0  0  0  0
    0.1921   -5.7592   27.1123 C   0  0  0  0  0  0  0  0  0  0  0  0
    3.5517   -7.7407   25.9711 C   0  0  0  0  0  0  0  0  0  0  0  0
  1  4  4  0
  1 22  4  0
  2 20  4  0
  2 27  4  0
  3 12  4  0
  3 23  4  0
  4 25  4  0
  4 28  1  0
  5  8  4  0
  5 17  4  0
  6  7  4  0
  6 16  4  0
  7 18  4  0
  8 27  4  0
  9 13  4  0
  9 23  4  0
 10 11  1  0
 11 14  2  0
 11 27  1  0
 12 19  1  0
 12 24  4  0
 13 24  4  0
 15 18  1  0
 16 25  4  0
 16 26  4  0
 17 20  4  0
 17 28  1  0
 18 21  4  0
 21 26  4  0
 22 26  4  0
M  END
$$$$

 Created by Python create_sdf_string function

 28 30  0  0  0  0  0  0  0  0999 V2000
    5.7174   -8.4529   26.7190 C   0  0  0  0  0  0  0  0  0  0  0  0
    0.3974   -7.0711   27.5149 C   0  0  0  0  0  0  0  0  0  0  0  0
    2.5338   -7.6891   16.0102 C   0  0  0  0  0  0  0  0  0  0  0  0
    4.8690   -7.4380   26.4151 C   0  0  0  0  0  0  0  0  0  0  0  0
    2.3021   -5.6726   26.0378 C   0  0  0  0  0  0  0  0  0  0  0  0
    7.0880   -4.6163   27.0010 C   0  0  0  0  0  0  0  0  0  0  0  0
    8.3117   -4.3698   27.4436 C   0  0  0  0  0  0  0  0  0  0  0  0
    1.1339   -5.0515   26.3541 C   0  0  0  0  0  0  0  0  0  0  0  0
    4.8080   -8.0362   16.7101 C   0  0  0  0  0  0  0  0  0  0  0  0
   -1.2173   -3.9294   26.9717 O   0  0  0  0  0  0  0  0  0  0  0  0
   -1.0025   -5.0942   27.4586 C   0  0  0  0  0  0  0  0  0  0  0  0
    2.2474   -8.9123   16.6273 C   0  0  0  0  0  0  0  0  0  0  0  0
    4.4957   -9.2636   17.3041 C   0  0  0  0  0  0  0  0  0  0  0  0
   -1.8070   -5.6086   28.1920 O   0  0  0  0  0  0  0  0  0  0  0  0
   10.4296   -5.1799   28.3140 C   0  0  0  0  0  0  0  0  0  0  0  0
    6.6017   -5.9004   26.9187 C   0  0  0  0  0  0  0  0  0  0  0  0
    2.4761   -6.9940   26.4111 N   0  0  0  0  0  0  0  0  0  0  0  0
    9.1353   -5.4053   27.8239 C   0  0  0  0  0  0  0  0  0  0  0  0
    0.9922   -9.3232   16.5995 O   0  0  0  0  0  0  0  0  0  0  0  0
    1.5232   -7.6869   27.1182 C   0  0  0  0  0  0  0  0  0  0  0  0
    8.6878   -6.6715   27.7262 N   0  0  0  0  0  0  0  0  0  0  0  0
    6.9911   -8.2423   27.1808 C   0  0  0  0  0  0  0  0  0  0  0  0
    3.8436   -7.2758   16.0578 C   0  0  0  0  0  0  0  0  0  0  0  0
    3.1882   -9.7190   17.2566 C   0  0  0  0  0  0  0  0  0  0  0  0
    5.3488   -6.1737   26.5092 C   0  0  0  0  0  0  0  0  0  0  0  0
    7.4567   -6.9464   27.2858 C   0  0  0  0  0  0  0  0  0  0  0  0
    0.1921   -5.7592   27.1123 C   0  0  0  0  0  0  0  0  0  0  0  0
    3.5517   -7.7407   25.9711 C   0  0  0  0  0  0  0  0  0  0  0  0
  1  4  4  0
  1 22  4  0
  2 20  4  0
  2 27  4  0
  3 12  4  0
  3 23  4  0
  4 25  4  0
  4 28  1  0
  5  8  4  0
  5 17  4  0
  6  7  4  0
  6 16  4  0
  7 18  4  0
  8 27  4  0
  9 13  4  0
  9 23  4  0
 10 11  1  0
 11 14  2  0
 11 27  1  0
 12 19  1  0
 12 24  4  0
 13 24  4  0
 15 18  1  0
 16 25  4  0
 16 26  4  0
 17 20  4  0
 17 28  1  0
 18 21  4  0
 21 26  4  0
 22 26  4  0
M  END
$$$$

 Created by Python create_sdf_string function

 28 30  0  0  0  0  0  0  0  0999 V2000
    5.7174   -8.4529   26.7190 C   0  0  0  0  0  0  0  0  0  0  0  0
    0.3974   -7.0711   27.5149 C   0  0  0  0  0  0  0  0  0  0  0  0
    2.5338   -7.6891   16.0102 C   0  0  0  0  0  0  0  0  0  0  0  0
    4.8690   -7.4380   26.4151 C   0  0  0  0  0  0  0  0  0  0  0  0
    2.3021   -5.6726   26.0378 C   0  0  0  0  0  0  0  0  0  0  0  0
    7.0880   -4.6163   27.0010 C   0  0  0  0  0  0  0  0  0  0  0  0
    8.3117   -4.3698   27.4436 C   0  0  0  0  0  0  0  0  0  0  0  0
    1.1339   -5.0515   26.3541 C   0  0  0  0  0  0  0  0  0  0  0  0
    4.8080   -8.0362   16.7101 C   0  0  0  0  0  0  0  0  0  0  0  0
   -1.2173   -3.9294   26.9717 O   0  0  0  0  0  0  0  0  0  0  0  0
   -1.0025   -5.0942   27.4586 C   0  0  0  0  0  0  0  0  0  0  0  0
    2.2474   -8.9123   16.6273 C   0  0  0  0  0  0  0  0  0  0  0  0
    4.4957   -9.2636   17.3041 C   0  0  0  0  0  0  0  0  0  0  0  0
   -1.8070   -5.6086   28.1920 O   0  0  0  0  0  0  0  0  0  0  0  0
   10.4296   -5.1799   28.3140 C   0  0  0  0  0  0  0  0  0  0  0  0
    6.6017   -5.9004   26.9187 C   0  0  0  0  0  0  0  0  0  0  0  0
    2.4761   -6.9940   26.4111 N   0  0  0  0  0  0  0  0  0  0  0  0
    9.1353   -5.4053   27.8239 C   0  0  0  0  0  0  0  0  0  0  0  0
    0.9922   -9.3232   16.5995 O   0  0  0  0  0  0  0  0  0  0  0  0
    1.5232   -7.6869   27.1182 C   0  0  0  0  0  0  0  0  0  0  0  0
    8.6878   -6.6715   27.7262 N   0  0  0  0  0  0  0  0  0  0  0  0
    6.9911   -8.2423   27.1808 C   0  0  0  0  0  0  0  0  0  0  0  0
    3.8436   -7.2758   16.0578 C   0  0  0  0  0  0  0  0  0  0  0  0
    3.1882   -9.7190   17.2566 C   0  0  0  0  0  0  0  0  0  0  0  0
    5.3488   -6.1737   26.5092 C   0  0  0  0  0  0  0  0  0  0  0  0
    7.4567   -6.9464   27.2858 C   0  0  0  0  0  0  0  0  0  0  0  0
    0.1921   -5.7592   27.1123 C   0  0  0  0  0  0  0  0  0  0  0  0
    3.5517   -7.7407   25.9711 C   0  0  0  0  0  0  0  0  0  0  0  0
  1  4  4  0
  1 22  4  0
  2 20  4  0
  2 27  4  0
  3 12  4  0
  3 23  4  0
  4 25  4  0
  4 28  1  0
  5  8  4  0
  5 17  4  0
  6  7  4  0
  6 16  4  0
  7 18  4  0
  8 27  4  0
  9 13  4  0
  9 23  4  0
 10 11  1  0
 11 14  2  0
 11 27  1  0
 12 19  1  0
 12 24  4  0
 13 24  4  0
 15 18  1  0
 16 25  4  0
 16 26  4  0
 17 20  4  0
 17 28  1  0
 18 21  4  0
 21 26  4  0
 22 26  4  0
M  END
$$$$

 Created by Python create_sdf_string function

 28 30  0  0  0  0  0  0  0  0999 V2000
    5.7174   -8.4529   26.7190 C   0  0  0  0  0  0  0  0  0  0  0  0
    0.3974   -7.0711   27.5149 C   0  0  0  0  0  0  0  0  0  0  0  0
    2.5338   -7.6891   16.0102 C   0  0  0  0  0  0  0  0  0  0  0  0
    4.8690   -7.4380   26.4151 C   0  0  0  0  0  0  0  0  0  0  0  0
    2.3021   -5.6726   26.0378 C   0  0  0  0  0  0  0  0  0  0  0  0
    7.0880   -4.6163   27.0010 C   0  0  0  0  0  0  0  0  0  0  0  0
    8.3117   -4.3698   27.4436 C   0  0  0  0  0  0  0  0  0  0  0  0
    1.1339   -5.0515   26.3541 C   0  0  0  0  0  0  0  0  0  0  0  0
    4.8080   -8.0362   16.7101 C   0  0  0  0  0  0  0  0  0  0  0  0
   -1.2173   -3.9294   26.9717 O   0  0  0  0  0  0  0  0  0  0  0  0
   -1.0025   -5.0942   27.4586 C   0  0  0  0  0  0  0  0  0  0  0  0
    2.2474   -8.9123   16.6273 C   0  0  0  0  0  0  0  0  0  0  0  0
    4.4957   -9.2636   17.3041 C   0  0  0  0  0  0  0  0  0  0  0  0
   -1.8070   -5.6086   28.1920 O   0  0  0  0  0  0  0  0  0  0  0  0
   10.4296   -5.1799   28.3140 C   0  0  0  0  0  0  0  0  0  0  0  0
    6.6017   -5.9004   26.9187 C   0  0  0  0  0  0  0  0  0  0  0  0
    2.4761   -6.9940   26.4111 N   0  0  0  0  0  0  0  0  0  0  0  0
    9.1353   -5.4053   27.8239 C   0  0  0  0  0  0  0  0  0  0  0  0
    0.9922   -9.3232   16.5995 O   0  0  0  0  0  0  0  0  0  0  0  0
    1.5232   -7.6869   27.1182 C   0  0  0  0  0  0  0  0  0  0  0  0
    8.6878   -6.6715   27.7262 N   0  0  0  0  0  0  0  0  0  0  0  0
    6.9911   -8.2423   27.1808 C   0  0  0  0  0  0  0  0  0  0  0  0
    3.8436   -7.2758   16.0578 C   0  0  0  0  0  0  0  0  0  0  0  0
    3.1882   -9.7190   17.2566 C   0  0  0  0  0  0  0  0  0  0  0  0
    5.3488   -6.1737   26.5092 C   0  0  0  0  0  0  0  0  0  0  0  0
    7.4567   -6.9464   27.2858 C   0  0  0  0  0  0  0  0  0  0  0  0
    0.1921   -5.7592   27.1123 C   0  0  0  0  0  0  0  0  0  0  0  0
    3.5517   -7.7407   25.9711 C   0  0  0  0  0  0  0  0  0  0  0  0
  1  4  4  0
  1 22  4  0
  2 20  4  0
  2 27  4  0
  3 12  4  0
  3 23  4  0
  4 25  4  0
  4 28  1  0
  5  8  4  0
  5 17  4  0
  6  7  4  0
  6 16  4  0
  7 18  4  0
  8 27  4  0
  9 13  4  0
  9 23  4  0
 10 11  1  0
 11 14  2  0
 11 27  1  0
 12 19  1  0
 12 24  4  0
 13 24  4  0
 15 18  1  0
 16 25  4  0
 16 26  4  0
 17 20  4  0
 17 28  1  0
 18 21  4  0
 21 26  4  0
 22 26  4  0
M  END
$$$$

 Created by Python create_sdf_string function

 28 30  0  0  0  0  0  0  0  0999 V2000
    5.7174   -8.4529   26.7190 C   0  0  0  0  0  0  0  0  0  0  0  0
    0.3974   -7.0711   27.5149 C   0  0  0  0  0  0  0  0  0  0  0  0
    2.5338   -7.6891   16.0102 C   0  0  0  0  0  0  0  0  0  0  0  0
    4.8690   -7.4380   26.4151 C   0  0  0  0  0  0  0  0  0  0  0  0
    2.3021   -5.6726   26.0378 C   0  0  0  0  0  0  0  0  0  0  0  0
    7.0880   -4.6163   27.0010 C   0  0  0  0  0  0  0  0  0  0  0  0
    8.3117   -4.3698   27.4436 C   0  0  0  0  0  0  0  0  0  0  0  0
    1.1339   -5.0515   26.3541 C   0  0  0  0  0  0  0  0  0  0  0  0
    4.8080   -8.0362   16.7101 C   0  0  0  0  0  0  0  0  0  0  0  0
   -1.2173   -3.9294   26.9717 O   0  0  0  0  0  0  0  0  0  0  0  0
   -1.0025   -5.0942   27.4586 C   0  0  0  0  0  0  0  0  0  0  0  0
    2.2474   -8.9123   16.6273 C   0  0  0  0  0  0  0  0  0  0  0  0
    4.4957   -9.2636   17.3041 C   0  0  0  0  0  0  0  0  0  0  0  0
   -1.8070   -5.6086   28.1920 O   0  0  0  0  0  0  0  0  0  0  0  0
   10.4296   -5.1799   28.3140 C   0  0  0  0  0  0  0  0  0  0  0  0
    6.6017   -5.9004   26.9187 C   0  0  0  0  0  0  0  0  0  0  0  0
    2.4761   -6.9940   26.4111 N   0  0  0  0  0  0  0  0  0  0  0  0
    9.1353   -5.4053   27.8239 C   0  0  0  0  0  0  0  0  0  0  0  0
    0.9922   -9.3232   16.5995 O   0  0  0  0  0  0  0  0  0  0  0  0
    1.5232   -7.6869   27.1182 C   0  0  0  0  0  0  0  0  0  0  0  0
    8.6878   -6.6715   27.7262 N   0  0  0  0  0  0  0  0  0  0  0  0
    6.9911   -8.2423   27.1808 C   0  0  0  0  0  0  0  0  0  0  0  0
    3.8436   -7.2758   16.0578 C   0  0  0  0  0  0  0  0  0  0  0  0
    3.1882   -9.7190   17.2566 C   0  0  0  0  0  0  0  0  0  0  0  0
    5.3488   -6.1737   26.5092 C   0  0  0  0  0  0  0  0  0  0  0  0
    7.4567   -6.9464   27.2858 C   0  0  0  0  0  0  0  0  0  0  0  0
    0.1921   -5.7592   27.1123 C   0  0  0  0  0  0  0  0  0  0  0  0
    3.5517   -7.7407   25.9711 C   0  0  0  0  0  0  0  0  0  0  0  0
  1  4  4  0
  1 22  4  0
  2 20  4  0
  2 27  4  0
  3 12  4  0
  3 23  4  0
  4 25  4  0
  4 28  1  0
  5  8  4  0
  5 17  4  0
  6  7  4  0
  6 16  4  0
  7 18  4  0
  8 27  4  0
  9 13  4  0
  9 23  4  0
 10 11  1  0
 11 14  2  0
 11 27  1  0
 12 19  1  0
 12 24  4  0
 13 24  4  0
 15 18  1  0
 16 25  4  0
 16 26  4  0
 17 20  4  0
 17 28  1  0
 18 21  4  0
 21 26  4  0
 22 26  4  0
M  END
$$$$

 Created by Python create_sdf_string function

 28 30  0  0  0  0  0  0  0  0999 V2000
    5.7174   -8.4529   26.7190 C   0  0  0  0  0  0  0  0  0  0  0  0
    0.3974   -7.0711   27.5149 C   0  0  0  0  0  0  0  0  0  0  0  0
    2.5338   -7.6891   16.0102 C   0  0  0  0  0  0  0  0  0  0  0  0
    4.8690   -7.4380   26.4151 C   0  0  0  0  0  0  0  0  0  0  0  0
    2.3021   -5.6726   26.0378 C   0  0  0  0  0  0  0  0  0  0  0  0
    7.0880   -4.6163   27.0010 C   0  0  0  0  0  0  0  0  0  0  0  0
    8.3117   -4.3698   27.4436 C   0  0  0  0  0  0  0  0  0  0  0  0
    1.1339   -5.0515   26.3541 C   0  0  0  0  0  0  0  0  0  0  0  0
    4.8080   -8.0362   16.7101 C   0  0  0  0  0  0  0  0  0  0  0  0
   -1.2173   -3.9294   26.9717 O   0  0  0  0  0  0  0  0  0  0  0  0
   -1.0025   -5.0942   27.4586 C   0  0  0  0  0  0  0  0  0  0  0  0
    2.2474   -8.9123   16.6273 C   0  0  0  0  0  0  0  0  0  0  0  0
    4.4957   -9.2636   17.3041 C   0  0  0  0  0  0  0  0  0  0  0  0
   -1.8070   -5.6086   28.1920 O   0  0  0  0  0  0  0  0  0  0  0  0
   10.4296   -5.1799   28.3140 C   0  0  0  0  0  0  0  0  0  0  0  0
    6.6017   -5.9004   26.9187 C   0  0  0  0  0  0  0  0  0  0  0  0
    2.4761   -6.9940   26.4111 N   0  0  0  0  0  0  0  0  0  0  0  0
    9.1353   -5.4053   27.8239 C   0  0  0  0  0  0  0  0  0  0  0  0
    0.9922   -9.3232   16.5995 O   0  0  0  0  0  0  0  0  0  0  0  0
    1.5232   -7.6869   27.1182 C   0  0  0  0  0  0  0  0  0  0  0  0
    8.6878   -6.6715   27.7262 N   0  0  0  0  0  0  0  0  0  0  0  0
    6.9911   -8.2423   27.1808 C   0  0  0  0  0  0  0  0  0  0  0  0
    3.8436   -7.2758   16.0578 C   0  0  0  0  0  0  0  0  0  0  0  0
    3.1882   -9.7190   17.2566 C   0  0  0  0  0  0  0  0  0  0  0  0
    5.3488   -6.1737   26.5092 C   0  0  0  0  0  0  0  0  0  0  0  0
    7.4567   -6.9464   27.2858 C   0  0  0  0  0  0  0  0  0  0  0  0
    0.1921   -5.7592   27.1123 C   0  0  0  0  0  0  0  0  0  0  0  0
    3.5517   -7.7407   25.9711 C   0  0  0  0  0  0  0  0  0  0  0  0
  1  4  4  0
  1 22  4  0
  2 20  4  0
  2 27  4  0
  3 12  4  0
  3 23  4  0
  4 25  4  0
  4 28  1  0
  5  8  4  0
  5 17  4  0
  6  7  4  0
  6 16  4  0
  7 18  4  0
  8 27  4  0
  9 13  4  0
  9 23  4  0
 10 11  1  0
 11 14  2  0
 11 27  1  0
 12 19  1  0
 12 24  4  0
 13 24  4  0
 15 18  1  0
 16 25  4  0
 16 26  4  0
 17 20  4  0
 17 28  1  0
 18 21  4  0
 21 26  4  0
 22 26  4  0
M  END
$$$$

 Created by Python create_sdf_string function

 28 30  0  0  0  0  0  0  0  0999 V2000
    5.7174   -8.4529   26.7190 C   0  0  0  0  0  0  0  0  0  0  0  0
    0.3974   -7.0711   27.5149 C   0  0  0  0  0  0  0  0  0  0  0  0
    2.5338   -7.6891   16.0102 C   0  0  0  0  0  0  0  0  0  0  0  0
    4.8690   -7.4380   26.4151 C   0  0  0  0  0  0  0  0  0  0  0  0
    2.3021   -5.6726   26.0378 C   0  0  0  0  0  0  0  0  0  0  0  0
    7.0880   -4.6163   27.0010 C   0  0  0  0  0  0  0  0  0  0  0  0
    8.3117   -4.3698   27.4436 C   0  0  0  0  0  0  0  0  0  0  0  0
    1.1339   -5.0515   26.3541 C   0  0  0  0  0  0  0  0  0  0  0  0
    4.8080   -8.0362   16.7101 C   0  0  0  0  0  0  0  0  0  0  0  0
   -1.2173   -3.9294   26.9717 O   0  0  0  0  0  0  0  0  0  0  0  0
   -1.0025   -5.0942   27.4586 C   0  0  0  0  0  0  0  0  0  0  0  0
    2.2474   -8.9123   16.6273 C   0  0  0  0  0  0  0  0  0  0  0  0
    4.4957   -9.2636   17.3041 C   0  0  0  0  0  0  0  0  0  0  0  0
   -1.8070   -5.6086   28.1920 O   0  0  0  0  0  0  0  0  0  0  0  0
   10.4296   -5.1799   28.3140 C   0  0  0  0  0  0  0  0  0  0  0  0
    6.6017   -5.9004   26.9187 C   0  0  0  0  0  0  0  0  0  0  0  0
    2.4761   -6.9940   26.4111 N   0  0  0  0  0  0  0  0  0  0  0  0
    9.1353   -5.4053   27.8239 C   0  0  0  0  0  0  0  0  0  0  0  0
    0.9922   -9.3232   16.5995 O   0  0  0  0  0  0  0  0  0  0  0  0
    1.5232   -7.6869   27.1182 C   0  0  0  0  0  0  0  0  0  0  0  0
    8.6878   -6.6715   27.7262 N   0  0  0  0  0  0  0  0  0  0  0  0
    6.9911   -8.2423   27.1808 C   0  0  0  0  0  0  0  0  0  0  0  0
    3.8436   -7.2758   16.0578 C   0  0  0  0  0  0  0  0  0  0  0  0
    3.1882   -9.7190   17.2566 C   0  0  0  0  0  0  0  0  0  0  0  0
    5.3488   -6.1737   26.5092 C   0  0  0  0  0  0  0  0  0  0  0  0
    7.4567   -6.9464   27.2858 C   0  0  0  0  0  0  0  0  0  0  0  0
    0.1921   -5.7592   27.1123 C   0  0  0  0  0  0  0  0  0  0  0  0
    3.5517   -7.7407   25.9711 C   0  0  0  0  0  0  0  0  0  0  0  0
  1  4  4  0
  1 22  4  0
  2 20  4  0
  2 27  4  0
  3 12  4  0
  3 23  4  0
  4 25  4  0
  4 28  1  0
  5  8  4  0
  5 17  4  0
  6  7  4  0
  6 16  4  0
  7 18  4  0
  8 27  4  0
  9 13  4  0
  9 23  4  0
 10 11  1  0
 11 14  2  0
 11 27  1  0
 12 19  1  0
 12 24  4  0
 13 24  4  0
 15 18  1  0
 16 25  4  0
 16 26  4  0
 17 20  4  0
 17 28  1  0
 18 21  4  0
 21 26  4  0
 22 26  4  0
M  END
$$$$

 Created by Python create_sdf_string function

 28 30  0  0  0  0  0  0  0  0999 V2000
    5.7174   -8.4529   26.7190 C   0  0  0  0  0  0  0  0  0  0  0  0
    0.3974   -7.0711   27.5149 C   0  0  0  0  0  0  0  0  0  0  0  0
    2.5338   -7.6891   16.0102 C   0  0  0  0  0  0  0  0  0  0  0  0
    4.8690   -7.4380   26.4151 C   0  0  0  0  0  0  0  0  0  0  0  0
    2.3021   -5.6726   26.0378 C   0  0  0  0  0  0  0  0  0  0  0  0
    7.0880   -4.6163   27.0010 C   0  0  0  0  0  0  0  0  0  0  0  0
    8.3117   -4.3698   27.4436 C   0  0  0  0  0  0  0  0  0  0  0  0
    1.1339   -5.0515   26.3541 C   0  0  0  0  0  0  0  0  0  0  0  0
    4.8080   -8.0362   16.7101 C   0  0  0  0  0  0  0  0  0  0  0  0
   -1.2173   -3.9294   26.9717 O   0  0  0  0  0  0  0  0  0  0  0  0
   -1.0025   -5.0942   27.4586 C   0  0  0  0  0  0  0  0  0  0  0  0
    2.2474   -8.9123   16.6273 C   0  0  0  0  0  0  0  0  0  0  0  0
    4.4957   -9.2636   17.3041 C   0  0  0  0  0  0  0  0  0  0  0  0
   -1.8070   -5.6086   28.1920 O   0  0  0  0  0  0  0  0  0  0  0  0
   10.4296   -5.1799   28.3140 C   0  0  0  0  0  0  0  0  0  0  0  0
    6.6017   -5.9004   26.9187 C   0  0  0  0  0  0  0  0  0  0  0  0
    2.4761   -6.9940   26.4111 N   0  0  0  0  0  0  0  0  0  0  0  0
    9.1353   -5.4053   27.8239 C   0  0  0  0  0  0  0  0  0  0  0  0
    0.9922   -9.3232   16.5995 O   0  0  0  0  0  0  0  0  0  0  0  0
    1.5232   -7.6869   27.1182 C   0  0  0  0  0  0  0  0  0  0  0  0
    8.6878   -6.6715   27.7262 N   0  0  0  0  0  0  0  0  0  0  0  0
    6.9911   -8.2423   27.1808 C   0  0  0  0  0  0  0  0  0  0  0  0
    3.8436   -7.2758   16.0578 C   0  0  0  0  0  0  0  0  0  0  0  0
    3.1882   -9.7190   17.2566 C   0  0  0  0  0  0  0  0  0  0  0  0
    5.3488   -6.1737   26.5092 C   0  0  0  0  0  0  0  0  0  0  0  0
    7.4567   -6.9464   27.2858 C   0  0  0  0  0  0  0  0  0  0  0  0
    0.1921   -5.7592   27.1123 C   0  0  0  0  0  0  0  0  0  0  0  0
    3.5517   -7.7407   25.9711 C   0  0  0  0  0  0  0  0  0  0  0  0
  1  4  4  0
  1 22  4  0
  2 20  4  0
  2 27  4  0
  3 12  4  0
  3 23  4  0
  4 25  4  0
  4 28  1  0
  5  8  4  0
  5 17  4  0
  6  7  4  0
  6 16  4  0
  7 18  4  0
  8 27  4  0
  9 13  4  0
  9 23  4  0
 10 11  1  0
 11 14  2  0
 11 27  1  0
 12 19  1  0
 12 24  4  0
 13 24  4  0
 15 18  1  0
 16 25  4  0
 16 26  4  0
 17 20  4  0
 17 28  1  0
 18 21  4  0
 21 26  4  0
 22 26  4  0
M  END
$$$$

 Created by Python create_sdf_string function

 28 30  0  0  0  0  0  0  0  0999 V2000
    5.7174   -8.4529   26.7190 C   0  0  0  0  0  0  0  0  0  0  0  0
    0.3974   -7.0711   27.5149 C   0  0  0  0  0  0  0  0  0  0  0  0
    2.5338   -7.6891   16.0102 C   0  0  0  0  0  0  0  0  0  0  0  0
    4.8690   -7.4380   26.4151 C   0  0  0  0  0  0  0  0  0  0  0  0
    2.3021   -5.6726   26.0378 C   0  0  0  0  0  0  0  0  0  0  0  0
    7.0880   -4.6163   27.0010 C   0  0  0  0  0  0  0  0  0  0  0  0
    8.3117   -4.3698   27.4436 C   0  0  0  0  0  0  0  0  0  0  0  0
    1.1339   -5.0515   26.3541 C   0  0  0  0  0  0  0  0  0  0  0  0
    4.8080   -8.0362   16.7101 C   0  0  0  0  0  0  0  0  0  0  0  0
   -1.2173   -3.9294   26.9717 O   0  0  0  0  0  0  0  0  0  0  0  0
   -1.0025   -5.0942   27.4586 C   0  0  0  0  0  0  0  0  0  0  0  0
    2.2474   -8.9123   16.6273 C   0  0  0  0  0  0  0  0  0  0  0  0
    4.4957   -9.2636   17.3041 C   0  0  0  0  0  0  0  0  0  0  0  0
   -1.8070   -5.6086   28.1920 O   0  0  0  0  0  0  0  0  0  0  0  0
   10.4296   -5.1799   28.3140 C   0  0  0  0  0  0  0  0  0  0  0  0
    6.6017   -5.9004   26.9187 C   0  0  0  0  0  0  0  0  0  0  0  0
    2.4761   -6.9940   26.4111 N   0  0  0  0  0  0  0  0  0  0  0  0
    9.1353   -5.4053   27.8239 C   0  0  0  0  0  0  0  0  0  0  0  0
    0.9922   -9.3232   16.5995 O   0  0  0  0  0  0  0  0  0  0  0  0
    1.5232   -7.6869   27.1182 C   0  0  0  0  0  0  0  0  0  0  0  0
    8.6878   -6.6715   27.7262 N   0  0  0  0  0  0  0  0  0  0  0  0
    6.9911   -8.2423   27.1808 C   0  0  0  0  0  0  0  0  0  0  0  0
    3.8436   -7.2758   16.0578 C   0  0  0  0  0  0  0  0  0  0  0  0
    3.1882   -9.7190   17.2566 C   0  0  0  0  0  0  0  0  0  0  0  0
    5.3488   -6.1737   26.5092 C   0  0  0  0  0  0  0  0  0  0  0  0
    7.4567   -6.9464   27.2858 C   0  0  0  0  0  0  0  0  0  0  0  0
    0.1921   -5.7592   27.1123 C   0  0  0  0  0  0  0  0  0  0  0  0
    3.5517   -7.7407   25.9711 C   0  0  0  0  0  0  0  0  0  0  0  0
  1  4  4  0
  1 22  4  0
  2 20  4  0
  2 27  4  0
  3 12  4  0
  3 23  4  0
  4 25  4  0
  4 28  1  0
  5  8  4  0
  5 17  4  0
  6  7  4  0
  6 16  4  0
  7 18  4  0
  8 27  4  0
  9 13  4  0
  9 23  4  0
 10 11  1  0
 11 14  2  0
 11 27  1  0
 12 19  1  0
 12 24  4  0
 13 24  4  0
 15 18  1  0
 16 25  4  0
 16 26  4  0
 17 20  4  0
 17 28  1  0
 18 21  4  0
 21 26  4  0
 22 26  4  0
M  END
$$$$

 Created by Python create_sdf_string function

 28 30  0  0  0  0  0  0  0  0999 V2000
    5.7174   -8.4529   26.7190 C   0  0  0  0  0  0  0  0  0  0  0  0
    0.3974   -7.0711   27.5149 C   0  0  0  0  0  0  0  0  0  0  0  0
    2.5338   -7.6891   16.0102 C   0  0  0  0  0  0  0  0  0  0  0  0
    4.8690   -7.4380   26.4151 C   0  0  0  0  0  0  0  0  0  0  0  0
    2.3021   -5.6726   26.0378 C   0  0  0  0  0  0  0  0  0  0  0  0
    7.0880   -4.6163   27.0010 C   0  0  0  0  0  0  0  0  0  0  0  0
    8.3117   -4.3698   27.4436 C   0  0  0  0  0  0  0  0  0  0  0  0
    1.1339   -5.0515   26.3541 C   0  0  0  0  0  0  0  0  0  0  0  0
    4.8080   -8.0362   16.7101 C   0  0  0  0  0  0  0  0  0  0  0  0
   -1.2173   -3.9294   26.9717 O   0  0  0  0  0  0  0  0  0  0  0  0
   -1.0025   -5.0942   27.4586 C   0  0  0  0  0  0  0  0  0  0  0  0
    2.2474   -8.9123   16.6273 C   0  0  0  0  0  0  0  0  0  0  0  0
    4.4957   -9.2636   17.3041 C   0  0  0  0  0  0  0  0  0  0  0  0
   -1.8070   -5.6086   28.1920 O   0  0  0  0  0  0  0  0  0  0  0  0
   10.4296   -5.1799   28.3140 C   0  0  0  0  0  0  0  0  0  0  0  0
    6.6017   -5.9004   26.9187 C   0  0  0  0  0  0  0  0  0  0  0  0
    2.4761   -6.9940   26.4111 N   0  0  0  0  0  0  0  0  0  0  0  0
    9.1353   -5.4053   27.8239 C   0  0  0  0  0  0  0  0  0  0  0  0
    0.9922   -9.3232   16.5995 O   0  0  0  0  0  0  0  0  0  0  0  0
    1.5232   -7.6869   27.1182 C   0  0  0  0  0  0  0  0  0  0  0  0
    8.6878   -6.6715   27.7262 N   0  0  0  0  0  0  0  0  0  0  0  0
    6.9911   -8.2423   27.1808 C   0  0  0  0  0  0  0  0  0  0  0  0
    3.8436   -7.2758   16.0578 C   0  0  0  0  0  0  0  0  0  0  0  0
    3.1882   -9.7190   17.2566 C   0  0  0  0  0  0  0  0  0  0  0  0
    5.3488   -6.1737   26.5092 C   0  0  0  0  0  0  0  0  0  0  0  0
    7.4567   -6.9464   27.2858 C   0  0  0  0  0  0  0  0  0  0  0  0
    0.1921   -5.7592   27.1123 C   0  0  0  0  0  0  0  0  0  0  0  0
    3.5517   -7.7407   25.9711 C   0  0  0  0  0  0  0  0  0  0  0  0
  1  4  4  0
  1 22  4  0
  2 20  4  0
  2 27  4  0
  3 12  4  0
  3 23  4  0
  4 25  4  0
  4 28  1  0
  5  8  4  0
  5 17  4  0
  6  7  4  0
  6 16  4  0
  7 18  4  0
  8 27  4  0
  9 13  4  0
  9 23  4  0
 10 11  1  0
 11 14  2  0
 11 27  1  0
 12 19  1  0
 12 24  4  0
 13 24  4  0
 15 18  1  0
 16 25  4  0
 16 26  4  0
 17 20  4  0
 17 28  1  0
 18 21  4  0
 21 26  4  0
 22 26  4  0
M  END
$$$$

 Created by Python create_sdf_string function

 28 30  0  0  0  0  0  0  0  0999 V2000
    5.7174   -8.4529   26.7190 C   0  0  0  0  0  0  0  0  0  0  0  0
    0.3974   -7.0711   27.5149 C   0  0  0  0  0  0  0  0  0  0  0  0
    2.5338   -7.6891   16.0102 C   0  0  0  0  0  0  0  0  0  0  0  0
    4.8690   -7.4380   26.4151 C   0  0  0  0  0  0  0  0  0  0  0  0
    2.3021   -5.6726   26.0378 C   0  0  0  0  0  0  0  0  0  0  0  0
    7.0880   -4.6163   27.0010 C   0  0  0  0  0  0  0  0  0  0  0  0
    8.3117   -4.3698   27.4436 C   0  0  0  0  0  0  0  0  0  0  0  0
    1.1339   -5.0515   26.3541 C   0  0  0  0  0  0  0  0  0  0  0  0
    4.8080   -8.0362   16.7101 C   0  0  0  0  0  0  0  0  0  0  0  0
   -1.2173   -3.9294   26.9717 O   0  0  0  0  0  0  0  0  0  0  0  0
   -1.0025   -5.0942   27.4586 C   0  0  0  0  0  0  0  0  0  0  0  0
    2.2474   -8.9123   16.6273 C   0  0  0  0  0  0  0  0  0  0  0  0
    4.4957   -9.2636   17.3041 C   0  0  0  0  0  0  0  0  0  0  0  0
   -1.8070   -5.6086   28.1920 O   0  0  0  0  0  0  0  0  0  0  0  0
   10.4296   -5.1799   28.3140 C   0  0  0  0  0  0  0  0  0  0  0  0
    6.6017   -5.9004   26.9187 C   0  0  0  0  0  0  0  0  0  0  0  0
    2.4761   -6.9940   26.4111 N   0  0  0  0  0  0  0  0  0  0  0  0
    9.1353   -5.4053   27.8239 C   0  0  0  0  0  0  0  0  0  0  0  0
    0.9922   -9.3232   16.5995 O   0  0  0  0  0  0  0  0  0  0  0  0
    1.5232   -7.6869   27.1182 C   0  0  0  0  0  0  0  0  0  0  0  0
    8.6878   -6.6715   27.7262 N   0  0  0  0  0  0  0  0  0  0  0  0
    6.9911   -8.2423   27.1808 C   0  0  0  0  0  0  0  0  0  0  0  0
    3.8436   -7.2758   16.0578 C   0  0  0  0  0  0  0  0  0  0  0  0
    3.1882   -9.7190   17.2566 C   0  0  0  0  0  0  0  0  0  0  0  0
    5.3488   -6.1737   26.5092 C   0  0  0  0  0  0  0  0  0  0  0  0
    7.4567   -6.9464   27.2858 C   0  0  0  0  0  0  0  0  0  0  0  0
    0.1921   -5.7592   27.1123 C   0  0  0  0  0  0  0  0  0  0  0  0
    3.5517   -7.7407   25.9711 C   0  0  0  0  0  0  0  0  0  0  0  0
  1  4  4  0
  1 22  4  0
  2 20  4  0
  2 27  4  0
  3 12  4  0
  3 23  4  0
  4 25  4  0
  4 28  1  0
  5  8  4  0
  5 17  4  0
  6  7  4  0
  6 16  4  0
  7 18  4  0
  8 27  4  0
  9 13  4  0
  9 23  4  0
 10 11  1  0
 11 14  2  0
 11 27  1  0
 12 19  1  0
 12 24  4  0
 13 24  4  0
 15 18  1  0
 16 25  4  0
 16 26  4  0
 17 20  4  0
 17 28  1  0
 18 21  4  0
 21 26  4  0
 22 26  4  0
M  END
$$$$

 Created by Python create_sdf_string function

 28 30  0  0  0  0  0  0  0  0999 V2000
    5.7174   -8.4529   26.7190 C   0  0  0  0  0  0  0  0  0  0  0  0
    0.3974   -7.0711   27.5149 C   0  0  0  0  0  0  0  0  0  0  0  0
    2.5338   -7.6891   16.0102 C   0  0  0  0  0  0  0  0  0  0  0  0
    4.8690   -7.4380   26.4151 C   0  0  0  0  0  0  0  0  0  0  0  0
    2.3021   -5.6726   26.0378 C   0  0  0  0  0  0  0  0  0  0  0  0
    7.0880   -4.6163   27.0010 C   0  0  0  0  0  0  0  0  0  0  0  0
    8.3117   -4.3698   27.4436 C   0  0  0  0  0  0  0  0  0  0  0  0
    1.1339   -5.0515   26.3541 C   0  0  0  0  0  0  0  0  0  0  0  0
    4.8080   -8.0362   16.7101 C   0  0  0  0  0  0  0  0  0  0  0  0
   -1.2173   -3.9294   26.9717 O   0  0  0  0  0  0  0  0  0  0  0  0
   -1.0025   -5.0942   27.4586 C   0  0  0  0  0  0  0  0  0  0  0  0
    2.2474   -8.9123   16.6273 C   0  0  0  0  0  0  0  0  0  0  0  0
    4.4957   -9.2636   17.3041 C   0  0  0  0  0  0  0  0  0  0  0  0
   -1.8070   -5.6086   28.1920 O   0  0  0  0  0  0  0  0  0  0  0  0
   10.4296   -5.1799   28.3140 C   0  0  0  0  0  0  0  0  0  0  0  0
    6.6017   -5.9004   26.9187 C   0  0  0  0  0  0  0  0  0  0  0  0
    2.4761   -6.9940   26.4111 N   0  0  0  0  0  0  0  0  0  0  0  0
    9.1353   -5.4053   27.8239 C   0  0  0  0  0  0  0  0  0  0  0  0
    0.9922   -9.3232   16.5995 O   0  0  0  0  0  0  0  0  0  0  0  0
    1.5232   -7.6869   27.1182 C   0  0  0  0  0  0  0  0  0  0  0  0
    8.6878   -6.6715   27.7262 N   0  0  0  0  0  0  0  0  0  0  0  0
    6.9911   -8.2423   27.1808 C   0  0  0  0  0  0  0  0  0  0  0  0
    3.8436   -7.2758   16.0578 C   0  0  0  0  0  0  0  0  0  0  0  0
    3.1882   -9.7190   17.2566 C   0  0  0  0  0  0  0  0  0  0  0  0
    5.3488   -6.1737   26.5092 C   0  0  0  0  0  0  0  0  0  0  0  0
    7.4567   -6.9464   27.2858 C   0  0  0  0  0  0  0  0  0  0  0  0
    0.1921   -5.7592   27.1123 C   0  0  0  0  0  0  0  0  0  0  0  0
    3.5517   -7.7407   25.9711 C   0  0  0  0  0  0  0  0  0  0  0  0
  1  4  4  0
  1 22  4  0
  2 20  4  0
  2 27  4  0
  3 12  4  0
  3 23  4  0
  4 25  4  0
  4 28  1  0
  5  8  4  0
  5 17  4  0
  6  7  4  0
  6 16  4  0
  7 18  4  0
  8 27  4  0
  9 13  4  0
  9 23  4  0
 10 11  1  0
 11 14  2  0
 11 27  1  0
 12 19  1  0
 12 24  4  0
 13 24  4  0
 15 18  1  0
 16 25  4  0
 16 26  4  0
 17 20  4  0
 17 28  1  0
 18 21  4  0
 21 26  4  0
 22 26  4  0
M  END
$$$$

 Created by Python create_sdf_string function

 28 30  0  0  0  0  0  0  0  0999 V2000
    5.7174   -8.4529   26.7190 C   0  0  0  0  0  0  0  0  0  0  0  0
    0.3974   -7.0711   27.5149 C   0  0  0  0  0  0  0  0  0  0  0  0
    2.5338   -7.6891   16.0102 C   0  0  0  0  0  0  0  0  0  0  0  0
    4.8690   -7.4380   26.4151 C   0  0  0  0  0  0  0  0  0  0  0  0
    2.3021   -5.6726   26.0378 C   0  0  0  0  0  0  0  0  0  0  0  0
    7.0880   -4.6163   27.0010 C   0  0  0  0  0  0  0  0  0  0  0  0
    8.3117   -4.3698   27.4436 C   0  0  0  0  0  0  0  0  0  0  0  0
    1.1339   -5.0515   26.3541 C   0  0  0  0  0  0  0  0  0  0  0  0
    4.8080   -8.0362   16.7101 C   0  0  0  0  0  0  0  0  0  0  0  0
   -1.2173   -3.9294   26.9717 O   0  0  0  0  0  0  0  0  0  0  0  0
   -1.0025   -5.0942   27.4586 C   0  0  0  0  0  0  0  0  0  0  0  0
    2.2474   -8.9123   16.6273 C   0  0  0  0  0  0  0  0  0  0  0  0
    4.4957   -9.2636   17.3041 C   0  0  0  0  0  0  0  0  0  0  0  0
   -1.8070   -5.6086   28.1920 O   0  0  0  0  0  0  0  0  0  0  0  0
   10.4296   -5.1799   28.3140 C   0  0  0  0  0  0  0  0  0  0  0  0
    6.6017   -5.9004   26.9187 C   0  0  0  0  0  0  0  0  0  0  0  0
    2.4761   -6.9940   26.4111 N   0  0  0  0  0  0  0  0  0  0  0  0
    9.1353   -5.4053   27.8239 C   0  0  0  0  0  0  0  0  0  0  0  0
    0.9922   -9.3232   16.5995 O   0  0  0  0  0  0  0  0  0  0  0  0
    1.5232   -7.6869   27.1182 C   0  0  0  0  0  0  0  0  0  0  0  0
    8.6878   -6.6715   27.7262 N   0  0  0  0  0  0  0  0  0  0  0  0
    6.9911   -8.2423   27.1808 C   0  0  0  0  0  0  0  0  0  0  0  0
    3.8436   -7.2758   16.0578 C   0  0  0  0  0  0  0  0  0  0  0  0
    3.1882   -9.7190   17.2566 C   0  0  0  0  0  0  0  0  0  0  0  0
    5.3488   -6.1737   26.5092 C   0  0  0  0  0  0  0  0  0  0  0  0
    7.4567   -6.9464   27.2858 C   0  0  0  0  0  0  0  0  0  0  0  0
    0.1921   -5.7592   27.1123 C   0  0  0  0  0  0  0  0  0  0  0  0
    3.5517   -7.7407   25.9711 C   0  0  0  0  0  0  0  0  0  0  0  0
  1  4  4  0
  1 22  4  0
  2 20  4  0
  2 27  4  0
  3 12  4  0
  3 23  4  0
  4 25  4  0
  4 28  1  0
  5  8  4  0
  5 17  4  0
  6  7  4  0
  6 16  4  0
  7 18  4  0
  8 27  4  0
  9 13  4  0
  9 23  4  0
 10 11  1  0
 11 14  2  0
 11 27  1  0
 12 19  1  0
 12 24  4  0
 13 24  4  0
 15 18  1  0
 16 25  4  0
 16 26  4  0
 17 20  4  0
 17 28  1  0
 18 21  4  0
 21 26  4  0
 22 26  4  0
M  END
$$$$

 Created by Python create_sdf_string function

 28 30  0  0  0  0  0  0  0  0999 V2000
    5.7174   -8.4529   26.7190 C   0  0  0  0  0  0  0  0  0  0  0  0
    0.3974   -7.0711   27.5149 C   0  0  0  0  0  0  0  0  0  0  0  0
    2.5338   -7.6891   16.0102 C   0  0  0  0  0  0  0  0  0  0  0  0
    4.8690   -7.4380   26.4151 C   0  0  0  0  0  0  0  0  0  0  0  0
    2.3021   -5.6726   26.0378 C   0  0  0  0  0  0  0  0  0  0  0  0
    7.0880   -4.6163   27.0010 C   0  0  0  0  0  0  0  0  0  0  0  0
    8.3117   -4.3698   27.4436 C   0  0  0  0  0  0  0  0  0  0  0  0
    1.1339   -5.0515   26.3541 C   0  0  0  0  0  0  0  0  0  0  0  0
    4.8080   -8.0362   16.7101 C   0  0  0  0  0  0  0  0  0  0  0  0
   -1.2173   -3.9294   26.9717 O   0  0  0  0  0  0  0  0  0  0  0  0
   -1.0025   -5.0942   27.4586 C   0  0  0  0  0  0  0  0  0  0  0  0
    2.2474   -8.9123   16.6273 C   0  0  0  0  0  0  0  0  0  0  0  0
    4.4957   -9.2636   17.3041 C   0  0  0  0  0  0  0  0  0  0  0  0
   -1.8070   -5.6086   28.1920 O   0  0  0  0  0  0  0  0  0  0  0  0
   10.4296   -5.1799   28.3140 C   0  0  0  0  0  0  0  0  0  0  0  0
    6.6017   -5.9004   26.9187 C   0  0  0  0  0  0  0  0  0  0  0  0
    2.4761   -6.9940   26.4111 N   0  0  0  0  0  0  0  0  0  0  0  0
    9.1353   -5.4053   27.8239 C   0  0  0  0  0  0  0  0  0  0  0  0
    0.9922   -9.3232   16.5995 O   0  0  0  0  0  0  0  0  0  0  0  0
    1.5232   -7.6869   27.1182 C   0  0  0  0  0  0  0  0  0  0  0  0
    8.6878   -6.6715   27.7262 N   0  0  0  0  0  0  0  0  0  0  0  0
    6.9911   -8.2423   27.1808 C   0  0  0  0  0  0  0  0  0  0  0  0
    3.8436   -7.2758   16.0578 C   0  0  0  0  0  0  0  0  0  0  0  0
    3.1882   -9.7190   17.2566 C   0  0  0  0  0  0  0  0  0  0  0  0
    5.3488   -6.1737   26.5092 C   0  0  0  0  0  0  0  0  0  0  0  0
    7.4567   -6.9464   27.2858 C   0  0  0  0  0  0  0  0  0  0  0  0
    0.1921   -5.7592   27.1123 C   0  0  0  0  0  0  0  0  0  0  0  0
    3.5517   -7.7407   25.9711 C   0  0  0  0  0  0  0  0  0  0  0  0
  1  4  4  0
  1 22  4  0
  2 20  4  0
  2 27  4  0
  3 12  4  0
  3 23  4  0
  4 25  4  0
  4 28  1  0
  5  8  4  0
  5 17  4  0
  6  7  4  0
  6 16  4  0
  7 18  4  0
  8 27  4  0
  9 13  4  0
  9 23  4  0
 10 11  1  0
 11 14  2  0
 11 27  1  0
 12 19  1  0
 12 24  4  0
 13 24  4  0
 15 18  1  0
 16 25  4  0
 16 26  4  0
 17 20  4  0
 17 28  1  0
 18 21  4  0
 21 26  4  0
 22 26  4  0
M  END
$$$$

 Created by Python create_sdf_string function

 28 30  0  0  0  0  0  0  0  0999 V2000
    5.7174   -8.4529   26.7190 C   0  0  0  0  0  0  0  0  0  0  0  0
    0.3974   -7.0711   27.5149 C   0  0  0  0  0  0  0  0  0  0  0  0
    2.5338   -7.6891   16.0102 C   0  0  0  0  0  0  0  0  0  0  0  0
    4.8690   -7.4380   26.4151 C   0  0  0  0  0  0  0  0  0  0  0  0
    2.3021   -5.6726   26.0378 C   0  0  0  0  0  0  0  0  0  0  0  0
    7.0880   -4.6163   27.0010 C   0  0  0  0  0  0  0  0  0  0  0  0
    8.3117   -4.3698   27.4436 C   0  0  0  0  0  0  0  0  0  0  0  0
    1.1339   -5.0515   26.3541 C   0  0  0  0  0  0  0  0  0  0  0  0
    4.8080   -8.0362   16.7101 C   0  0  0  0  0  0  0  0  0  0  0  0
   -1.2173   -3.9294   26.9717 O   0  0  0  0  0  0  0  0  0  0  0  0
   -1.0025   -5.0942   27.4586 C   0  0  0  0  0  0  0  0  0  0  0  0
    2.2474   -8.9123   16.6273 C   0  0  0  0  0  0  0  0  0  0  0  0
    4.4957   -9.2636   17.3041 C   0  0  0  0  0  0  0  0  0  0  0  0
   -1.8070   -5.6086   28.1920 O   0  0  0  0  0  0  0  0  0  0  0  0
   10.4296   -5.1799   28.3140 C   0  0  0  0  0  0  0  0  0  0  0  0
    6.6017   -5.9004   26.9187 C   0  0  0  0  0  0  0  0  0  0  0  0
    2.4761   -6.9940   26.4111 N   0  0  0  0  0  0  0  0  0  0  0  0
    9.1353   -5.4053   27.8239 C   0  0  0  0  0  0  0  0  0  0  0  0
    0.9922   -9.3232   16.5995 O   0  0  0  0  0  0  0  0  0  0  0  0
    1.5232   -7.6869   27.1182 C   0  0  0  0  0  0  0  0  0  0  0  0
    8.6878   -6.6715   27.7262 N   0  0  0  0  0  0  0  0  0  0  0  0
    6.9911   -8.2423   27.1808 C   0  0  0  0  0  0  0  0  0  0  0  0
    3.8436   -7.2758   16.0578 C   0  0  0  0  0  0  0  0  0  0  0  0
    3.1882   -9.7190   17.2566 C   0  0  0  0  0  0  0  0  0  0  0  0
    5.3488   -6.1737   26.5092 C   0  0  0  0  0  0  0  0  0  0  0  0
    7.4567   -6.9464   27.2858 C   0  0  0  0  0  0  0  0  0  0  0  0
    0.1921   -5.7592   27.1123 C   0  0  0  0  0  0  0  0  0  0  0  0
    3.5517   -7.7407   25.9711 C   0  0  0  0  0  0  0  0  0  0  0  0
  1  4  4  0
  1 22  4  0
  2 20  4  0
  2 27  4  0
  3 12  4  0
  3 23  4  0
  4 25  4  0
  4 28  1  0
  5  8  4  0
  5 17  4  0
  6  7  4  0
  6 16  4  0
  7 18  4  0
  8 27  4  0
  9 13  4  0
  9 23  4  0
 10 11  1  0
 11 14  2  0
 11 27  1  0
 12 19  1  0
 12 24  4  0
 13 24  4  0
 15 18  1  0
 16 25  4  0
 16 26  4  0
 17 20  4  0
 17 28  1  0
 18 21  4  0
 21 26  4  0
 22 26  4  0
M  END
$$$$

 Created by Python create_sdf_string function

 28 30  0  0  0  0  0  0  0  0999 V2000
    5.7174   -8.4529   26.7190 C   0  0  0  0  0  0  0  0  0  0  0  0
    0.3974   -7.0711   27.5149 C   0  0  0  0  0  0  0  0  0  0  0  0
    2.5338   -7.6891   16.0102 C   0  0  0  0  0  0  0  0  0  0  0  0
    4.8690   -7.4380   26.4151 C   0  0  0  0  0  0  0  0  0  0  0  0
    2.3021   -5.6726   26.0378 C   0  0  0  0  0  0  0  0  0  0  0  0
    7.0880   -4.6163   27.0010 C   0  0  0  0  0  0  0  0  0  0  0  0
    8.3117   -4.3698   27.4436 C   0  0  0  0  0  0  0  0  0  0  0  0
    1.1339   -5.0515   26.3541 C   0  0  0  0  0  0  0  0  0  0  0  0
    4.8080   -8.0362   16.7101 C   0  0  0  0  0  0  0  0  0  0  0  0
   -1.2173   -3.9294   26.9717 O   0  0  0  0  0  0  0  0  0  0  0  0
   -1.0025   -5.0942   27.4586 C   0  0  0  0  0  0  0  0  0  0  0  0
    2.2474   -8.9123   16.6273 C   0  0  0  0  0  0  0  0  0  0  0  0
    4.4957   -9.2636   17.3041 C   0  0  0  0  0  0  0  0  0  0  0  0
   -1.8070   -5.6086   28.1920 O   0  0  0  0  0  0  0  0  0  0  0  0
   10.4296   -5.1799   28.3140 C   0  0  0  0  0  0  0  0  0  0  0  0
    6.6017   -5.9004   26.9187 C   0  0  0  0  0  0  0  0  0  0  0  0
    2.4761   -6.9940   26.4111 N   0  0  0  0  0  0  0  0  0  0  0  0
    9.1353   -5.4053   27.8239 C   0  0  0  0  0  0  0  0  0  0  0  0
    0.9922   -9.3232   16.5995 O   0  0  0  0  0  0  0  0  0  0  0  0
    1.5232   -7.6869   27.1182 C   0  0  0  0  0  0  0  0  0  0  0  0
    8.6878   -6.6715   27.7262 N   0  0  0  0  0  0  0  0  0  0  0  0
    6.9911   -8.2423   27.1808 C   0  0  0  0  0  0  0  0  0  0  0  0
    3.8436   -7.2758   16.0578 C   0  0  0  0  0  0  0  0  0  0  0  0
    3.1882   -9.7190   17.2566 C   0  0  0  0  0  0  0  0  0  0  0  0
    5.3488   -6.1737   26.5092 C   0  0  0  0  0  0  0  0  0  0  0  0
    7.4567   -6.9464   27.2858 C   0  0  0  0  0  0  0  0  0  0  0  0
    0.1921   -5.7592   27.1123 C   0  0  0  0  0  0  0  0  0  0  0  0
    3.5517   -7.7407   25.9711 C   0  0  0  0  0  0  0  0  0  0  0  0
  1  4  4  0
  1 22  4  0
  2 20  4  0
  2 27  4  0
  3 12  4  0
  3 23  4  0
  4 25  4  0
  4 28  1  0
  5  8  4  0
  5 17  4  0
  6  7  4  0
  6 16  4  0
  7 18  4  0
  8 27  4  0
  9 13  4  0
  9 23  4  0
 10 11  1  0
 11 14  2  0
 11 27  1  0
 12 19  1  0
 12 24  4  0
 13 24  4  0
 15 18  1  0
 16 25  4  0
 16 26  4  0
 17 20  4  0
 17 28  1  0
 18 21  4  0
 21 26  4  0
 22 26  4  0
M  END
$$$$

 Created by Python create_sdf_string function

 28 30  0  0  0  0  0  0  0  0999 V2000
    5.7174   -8.4529   26.7190 C   0  0  0  0  0  0  0  0  0  0  0  0
    0.3974   -7.0711   27.5149 C   0  0  0  0  0  0  0  0  0  0  0  0
    2.5338   -7.6891   16.0102 C   0  0  0  0  0  0  0  0  0  0  0  0
    4.8690   -7.4380   26.4151 C   0  0  0  0  0  0  0  0  0  0  0  0
    2.3021   -5.6726   26.0378 C   0  0  0  0  0  0  0  0  0  0  0  0
    7.0880   -4.6163   27.0010 C   0  0  0  0  0  0  0  0  0  0  0  0
    8.3117   -4.3698   27.4436 C   0  0  0  0  0  0  0  0  0  0  0  0
    1.1339   -5.0515   26.3541 C   0  0  0  0  0  0  0  0  0  0  0  0
    4.8080   -8.0362   16.7101 C   0  0  0  0  0  0  0  0  0  0  0  0
   -1.2173   -3.9294   26.9717 O   0  0  0  0  0  0  0  0  0  0  0  0
   -1.0025   -5.0942   27.4586 C   0  0  0  0  0  0  0  0  0  0  0  0
    2.2474   -8.9123   16.6273 C   0  0  0  0  0  0  0  0  0  0  0  0
    4.4957   -9.2636   17.3041 C   0  0  0  0  0  0  0  0  0  0  0  0
   -1.8070   -5.6086   28.1920 O   0  0  0  0  0  0  0  0  0  0  0  0
   10.4296   -5.1799   28.3140 C   0  0  0  0  0  0  0  0  0  0  0  0
    6.6017   -5.9004   26.9187 C   0  0  0  0  0  0  0  0  0  0  0  0
    2.4761   -6.9940   26.4111 N   0  0  0  0  0  0  0  0  0  0  0  0
    9.1353   -5.4053   27.8239 C   0  0  0  0  0  0  0  0  0  0  0  0
    0.9922   -9.3232   16.5995 O   0  0  0  0  0  0  0  0  0  0  0  0
    1.5232   -7.6869   27.1182 C   0  0  0  0  0  0  0  0  0  0  0  0
    8.6878   -6.6715   27.7262 N   0  0  0  0  0  0  0  0  0  0  0  0
    6.9911   -8.2423   27.1808 C   0  0  0  0  0  0  0  0  0  0  0  0
    3.8436   -7.2758   16.0578 C   0  0  0  0  0  0  0  0  0  0  0  0
    3.1882   -9.7190   17.2566 C   0  0  0  0  0  0  0  0  0  0  0  0
    5.3488   -6.1737   26.5092 C   0  0  0  0  0  0  0  0  0  0  0  0
    7.4567   -6.9464   27.2858 C   0  0  0  0  0  0  0  0  0  0  0  0
    0.1921   -5.7592   27.1123 C   0  0  0  0  0  0  0  0  0  0  0  0
    3.5517   -7.7407   25.9711 C   0  0  0  0  0  0  0  0  0  0  0  0
  1  4  4  0
  1 22  4  0
  2 20  4  0
  2 27  4  0
  3 12  4  0
  3 23  4  0
  4 25  4  0
  4 28  1  0
  5  8  4  0
  5 17  4  0
  6  7  4  0
  6 16  4  0
  7 18  4  0
  8 27  4  0
  9 13  4  0
  9 23  4  0
 10 11  1  0
 11 14  2  0
 11 27  1  0
 12 19  1  0
 12 24  4  0
 13 24  4  0
 15 18  1  0
 16 25  4  0
 16 26  4  0
 17 20  4  0
 17 28  1  0
 18 21  4  0
 21 26  4  0
 22 26  4  0
M  END
$$$$

 Created by Python create_sdf_string function

 28 30  0  0  0  0  0  0  0  0999 V2000
    5.7174   -8.4529   26.7190 C   0  0  0  0  0  0  0  0  0  0  0  0
    0.3974   -7.0711   27.5149 C   0  0  0  0  0  0  0  0  0  0  0  0
    2.5338   -7.6891   16.0102 C   0  0  0  0  0  0  0  0  0  0  0  0
    4.8690   -7.4380   26.4151 C   0  0  0  0  0  0  0  0  0  0  0  0
    2.3021   -5.6726   26.0378 C   0  0  0  0  0  0  0  0  0  0  0  0
    7.0880   -4.6163   27.0010 C   0  0  0  0  0  0  0  0  0  0  0  0
    8.3117   -4.3698   27.4436 C   0  0  0  0  0  0  0  0  0  0  0  0
    1.1339   -5.0515   26.3541 C   0  0  0  0  0  0  0  0  0  0  0  0
    4.8080   -8.0362   16.7101 C   0  0  0  0  0  0  0  0  0  0  0  0
   -1.2173   -3.9294   26.9717 O   0  0  0  0  0  0  0  0  0  0  0  0
   -1.0025   -5.0942   27.4586 C   0  0  0  0  0  0  0  0  0  0  0  0
    2.2474   -8.9123   16.6273 C   0  0  0  0  0  0  0  0  0  0  0  0
    4.4957   -9.2636   17.3041 C   0  0  0  0  0  0  0  0  0  0  0  0
   -1.8070   -5.6086   28.1920 O   0  0  0  0  0  0  0  0  0  0  0  0
   10.4296   -5.1799   28.3140 C   0  0  0  0  0  0  0  0  0  0  0  0
    6.6017   -5.9004   26.9187 C   0  0  0  0  0  0  0  0  0  0  0  0
    2.4761   -6.9940   26.4111 N   0  0  0  0  0  0  0  0  0  0  0  0
    9.1353   -5.4053   27.8239 C   0  0  0  0  0  0  0  0  0  0  0  0
    0.9922   -9.3232   16.5995 O   0  0  0  0  0  0  0  0  0  0  0  0
    1.5232   -7.6869   27.1182 C   0  0  0  0  0  0  0  0  0  0  0  0
    8.6878   -6.6715   27.7262 N   0  0  0  0  0  0  0  0  0  0  0  0
    6.9911   -8.2423   27.1808 C   0  0  0  0  0  0  0  0  0  0  0  0
    3.8436   -7.2758   16.0578 C   0  0  0  0  0  0  0  0  0  0  0  0
    3.1882   -9.7190   17.2566 C   0  0  0  0  0  0  0  0  0  0  0  0
    5.3488   -6.1737   26.5092 C   0  0  0  0  0  0  0  0  0  0  0  0
    7.4567   -6.9464   27.2858 C   0  0  0  0  0  0  0  0  0  0  0  0
    0.1921   -5.7592   27.1123 C   0  0  0  0  0  0  0  0  0  0  0  0
    3.5517   -7.7407   25.9711 C   0  0  0  0  0  0  0  0  0  0  0  0
  1  4  4  0
  1 22  4  0
  2 20  4  0
  2 27  4  0
  3 12  4  0
  3 23  4  0
  4 25  4  0
  4 28  1  0
  5  8  4  0
  5 17  4  0
  6  7  4  0
  6 16  4  0
  7 18  4  0
  8 27  4  0
  9 13  4  0
  9 23  4  0
 10 11  1  0
 11 14  2  0
 11 27  1  0
 12 19  1  0
 12 24  4  0
 13 24  4  0
 15 18  1  0
 16 25  4  0
 16 26  4  0
 17 20  4  0
 17 28  1  0
 18 21  4  0
 21 26  4  0
 22 26  4  0
M  END
$$$$

 Created by Python create_sdf_string function

 28 30  0  0  0  0  0  0  0  0999 V2000
    5.7174   -8.4529   26.7190 C   0  0  0  0  0  0  0  0  0  0  0  0
    0.3974   -7.0711   27.5149 C   0  0  0  0  0  0  0  0  0  0  0  0
    2.5338   -7.6891   16.0102 C   0  0  0  0  0  0  0  0  0  0  0  0
    4.8690   -7.4380   26.4151 C   0  0  0  0  0  0  0  0  0  0  0  0
    2.3021   -5.6726   26.0378 C   0  0  0  0  0  0  0  0  0  0  0  0
    7.0880   -4.6163   27.0010 C   0  0  0  0  0  0  0  0  0  0  0  0
    8.3117   -4.3698   27.4436 C   0  0  0  0  0  0  0  0  0  0  0  0
    1.1339   -5.0515   26.3541 C   0  0  0  0  0  0  0  0  0  0  0  0
    4.8080   -8.0362   16.7101 C   0  0  0  0  0  0  0  0  0  0  0  0
   -1.2173   -3.9294   26.9717 O   0  0  0  0  0  0  0  0  0  0  0  0
   -1.0025   -5.0942   27.4586 C   0  0  0  0  0  0  0  0  0  0  0  0
    2.2474   -8.9123   16.6273 C   0  0  0  0  0  0  0  0  0  0  0  0
    4.4957   -9.2636   17.3041 C   0  0  0  0  0  0  0  0  0  0  0  0
   -1.8070   -5.6086   28.1920 O   0  0  0  0  0  0  0  0  0  0  0  0
   10.4296   -5.1799   28.3140 C   0  0  0  0  0  0  0  0  0  0  0  0
    6.6017   -5.9004   26.9187 C   0  0  0  0  0  0  0  0  0  0  0  0
    2.4761   -6.9940   26.4111 N   0  0  0  0  0  0  0  0  0  0  0  0
    9.1353   -5.4053   27.8239 C   0  0  0  0  0  0  0  0  0  0  0  0
    0.9922   -9.3232   16.5995 O   0  0  0  0  0  0  0  0  0  0  0  0
    1.5232   -7.6869   27.1182 C   0  0  0  0  0  0  0  0  0  0  0  0
    8.6878   -6.6715   27.7262 N   0  0  0  0  0  0  0  0  0  0  0  0
    6.9911   -8.2423   27.1808 C   0  0  0  0  0  0  0  0  0  0  0  0
    3.8436   -7.2758   16.0578 C   0  0  0  0  0  0  0  0  0  0  0  0
    3.1882   -9.7190   17.2566 C   0  0  0  0  0  0  0  0  0  0  0  0
    5.3488   -6.1737   26.5092 C   0  0  0  0  0  0  0  0  0  0  0  0
    7.4567   -6.9464   27.2858 C   0  0  0  0  0  0  0  0  0  0  0  0
    0.1921   -5.7592   27.1123 C   0  0  0  0  0  0  0  0  0  0  0  0
    3.5517   -7.7407   25.9711 C   0  0  0  0  0  0  0  0  0  0  0  0
  1  4  4  0
  1 22  4  0
  2 20  4  0
  2 27  4  0
  3 12  4  0
  3 23  4  0
  4 25  4  0
  4 28  1  0
  5  8  4  0
  5 17  4  0
  6  7  4  0
  6 16  4  0
  7 18  4  0
  8 27  4  0
  9 13  4  0
  9 23  4  0
 10 11  1  0
 11 14  2  0
 11 27  1  0
 12 19  1  0
 12 24  4  0
 13 24  4  0
 15 18  1  0
 16 25  4  0
 16 26  4  0
 17 20  4  0
 17 28  1  0
 18 21  4  0
 21 26  4  0
 22 26  4  0
M  END
$$$$

 Created by Python create_sdf_string function

 28 30  0  0  0  0  0  0  0  0999 V2000
    5.7174   -8.4529   26.7190 C   0  0  0  0  0  0  0  0  0  0  0  0
    0.3974   -7.0711   27.5149 C   0  0  0  0  0  0  0  0  0  0  0  0
    2.5338   -7.6891   16.0102 C   0  0  0  0  0  0  0  0  0  0  0  0
    4.8690   -7.4380   26.4151 C   0  0  0  0  0  0  0  0  0  0  0  0
    2.3021   -5.6726   26.0378 C   0  0  0  0  0  0  0  0  0  0  0  0
    7.0880   -4.6163   27.0010 C   0  0  0  0  0  0  0  0  0  0  0  0
    8.3117   -4.3698   27.4436 C   0  0  0  0  0  0  0  0  0  0  0  0
    1.1339   -5.0515   26.3541 C   0  0  0  0  0  0  0  0  0  0  0  0
    4.8080   -8.0362   16.7101 C   0  0  0  0  0  0  0  0  0  0  0  0
   -1.2173   -3.9294   26.9717 O   0  0  0  0  0  0  0  0  0  0  0  0
   -1.0025   -5.0942   27.4586 C   0  0  0  0  0  0  0  0  0  0  0  0
    2.2474   -8.9123   16.6273 C   0  0  0  0  0  0  0  0  0  0  0  0
    4.4957   -9.2636   17.3041 C   0  0  0  0  0  0  0  0  0  0  0  0
   -1.8070   -5.6086   28.1920 O   0  0  0  0  0  0  0  0  0  0  0  0
   10.4296   -5.1799   28.3140 C   0  0  0  0  0  0  0  0  0  0  0  0
    6.6017   -5.9004   26.9187 C   0  0  0  0  0  0  0  0  0  0  0  0
    2.4761   -6.9940   26.4111 N   0  0  0  0  0  0  0  0  0  0  0  0
    9.1353   -5.4053   27.8239 C   0  0  0  0  0  0  0  0  0  0  0  0
    0.9922   -9.3232   16.5995 O   0  0  0  0  0  0  0  0  0  0  0  0
    1.5232   -7.6869   27.1182 C   0  0  0  0  0  0  0  0  0  0  0  0
    8.6878   -6.6715   27.7262 N   0  0  0  0  0  0  0  0  0  0  0  0
    6.9911   -8.2423   27.1808 C   0  0  0  0  0  0  0  0  0  0  0  0
    3.8436   -7.2758   16.0578 C   0  0  0  0  0  0  0  0  0  0  0  0
    3.1882   -9.7190   17.2566 C   0  0  0  0  0  0  0  0  0  0  0  0
    5.3488   -6.1737   26.5092 C   0  0  0  0  0  0  0  0  0  0  0  0
    7.4567   -6.9464   27.2858 C   0  0  0  0  0  0  0  0  0  0  0  0
    0.1921   -5.7592   27.1123 C   0  0  0  0  0  0  0  0  0  0  0  0
    3.5517   -7.7407   25.9711 C   0  0  0  0  0  0  0  0  0  0  0  0
  1  4  4  0
  1 22  4  0
  2 20  4  0
  2 27  4  0
  3 12  4  0
  3 23  4  0
  4 25  4  0
  4 28  1  0
  5  8  4  0
  5 17  4  0
  6  7  4  0
  6 16  4  0
  7 18  4  0
  8 27  4  0
  9 13  4  0
  9 23  4  0
 10 11  1  0
 11 14  2  0
 11 27  1  0
 12 19  1  0
 12 24  4  0
 13 24  4  0
 15 18  1  0
 16 25  4  0
 16 26  4  0
 17 20  4  0
 17 28  1  0
 18 21  4  0
 21 26  4  0
 22 26  4  0
M  END
$$$$

 Created by Python create_sdf_string function

 28 30  0  0  0  0  0  0  0  0999 V2000
    5.7174   -8.4529   26.7190 C   0  0  0  0  0  0  0  0  0  0  0  0
    0.3974   -7.0711   27.5149 C   0  0  0  0  0  0  0  0  0  0  0  0
    2.5338   -7.6891   16.0102 C   0  0  0  0  0  0  0  0  0  0  0  0
    4.8690   -7.4380   26.4151 C   0  0  0  0  0  0  0  0  0  0  0  0
    2.3021   -5.6726   26.0378 C   0  0  0  0  0  0  0  0  0  0  0  0
    7.0880   -4.6163   27.0010 C   0  0  0  0  0  0  0  0  0  0  0  0
    8.3117   -4.3698   27.4436 C   0  0  0  0  0  0  0  0  0  0  0  0
    1.1339   -5.0515   26.3541 C   0  0  0  0  0  0  0  0  0  0  0  0
    4.8080   -8.0362   16.7101 C   0  0  0  0  0  0  0  0  0  0  0  0
   -1.2173   -3.9294   26.9717 O   0  0  0  0  0  0  0  0  0  0  0  0
   -1.0025   -5.0942   27.4586 C   0  0  0  0  0  0  0  0  0  0  0  0
    2.2474   -8.9123   16.6273 C   0  0  0  0  0  0  0  0  0  0  0  0
    4.4957   -9.2636   17.3041 C   0  0  0  0  0  0  0  0  0  0  0  0
   -1.8070   -5.6086   28.1920 O   0  0  0  0  0  0  0  0  0  0  0  0
   10.4296   -5.1799   28.3140 C   0  0  0  0  0  0  0  0  0  0  0  0
    6.6017   -5.9004   26.9187 C   0  0  0  0  0  0  0  0  0  0  0  0
    2.4761   -6.9940   26.4111 N   0  0  0  0  0  0  0  0  0  0  0  0
    9.1353   -5.4053   27.8239 C   0  0  0  0  0  0  0  0  0  0  0  0
    0.9922   -9.3232   16.5995 O   0  0  0  0  0  0  0  0  0  0  0  0
    1.5232   -7.6869   27.1182 C   0  0  0  0  0  0  0  0  0  0  0  0
    8.6878   -6.6715   27.7262 N   0  0  0  0  0  0  0  0  0  0  0  0
    6.9911   -8.2423   27.1808 C   0  0  0  0  0  0  0  0  0  0  0  0
    3.8436   -7.2758   16.0578 C   0  0  0  0  0  0  0  0  0  0  0  0
    3.1882   -9.7190   17.2566 C   0  0  0  0  0  0  0  0  0  0  0  0
    5.3488   -6.1737   26.5092 C   0  0  0  0  0  0  0  0  0  0  0  0
    7.4567   -6.9464   27.2858 C   0  0  0  0  0  0  0  0  0  0  0  0
    0.1921   -5.7592   27.1123 C   0  0  0  0  0  0  0  0  0  0  0  0
    3.5517   -7.7407   25.9711 C   0  0  0  0  0  0  0  0  0  0  0  0
  1  4  4  0
  1 22  4  0
  2 20  4  0
  2 27  4  0
  3 12  4  0
  3 23  4  0
  4 25  4  0
  4 28  1  0
  5  8  4  0
  5 17  4  0
  6  7  4  0
  6 16  4  0
  7 18  4  0
  8 27  4  0
  9 13  4  0
  9 23  4  0
 10 11  1  0
 11 14  2  0
 11 27  1  0
 12 19  1  0
 12 24  4  0
 13 24  4  0
 15 18  1  0
 16 25  4  0
 16 26  4  0
 17 20  4  0
 17 28  1  0
 18 21  4  0
 21 26  4  0
 22 26  4  0
M  END
$$$$

 Created by Python create_sdf_string function

 28 30  0  0  0  0  0  0  0  0999 V2000
    5.7174   -8.4529   26.7190 C   0  0  0  0  0  0  0  0  0  0  0  0
    0.3974   -7.0711   27.5149 C   0  0  0  0  0  0  0  0  0  0  0  0
    2.5338   -7.6891   16.0102 C   0  0  0  0  0  0  0  0  0  0  0  0
    4.8690   -7.4380   26.4151 C   0  0  0  0  0  0  0  0  0  0  0  0
    2.3021   -5.6726   26.0378 C   0  0  0  0  0  0  0  0  0  0  0  0
    7.0880   -4.6163   27.0010 C   0  0  0  0  0  0  0  0  0  0  0  0
    8.3117   -4.3698   27.4436 C   0  0  0  0  0  0  0  0  0  0  0  0
    1.1339   -5.0515   26.3541 C   0  0  0  0  0  0  0  0  0  0  0  0
    4.8080   -8.0362   16.7101 C   0  0  0  0  0  0  0  0  0  0  0  0
   -1.2173   -3.9294   26.9717 O   0  0  0  0  0  0  0  0  0  0  0  0
   -1.0025   -5.0942   27.4586 C   0  0  0  0  0  0  0  0  0  0  0  0
    2.2474   -8.9123   16.6273 C   0  0  0  0  0  0  0  0  0  0  0  0
    4.4957   -9.2636   17.3041 C   0  0  0  0  0  0  0  0  0  0  0  0
   -1.8070   -5.6086   28.1920 O   0  0  0  0  0  0  0  0  0  0  0  0
   10.4296   -5.1799   28.3140 C   0  0  0  0  0  0  0  0  0  0  0  0
    6.6017   -5.9004   26.9187 C   0  0  0  0  0  0  0  0  0  0  0  0
    2.4761   -6.9940   26.4111 N   0  0  0  0  0  0  0  0  0  0  0  0
    9.1353   -5.4053   27.8239 C   0  0  0  0  0  0  0  0  0  0  0  0
    0.9922   -9.3232   16.5995 O   0  0  0  0  0  0  0  0  0  0  0  0
    1.5232   -7.6869   27.1182 C   0  0  0  0  0  0  0  0  0  0  0  0
    8.6878   -6.6715   27.7262 N   0  0  0  0  0  0  0  0  0  0  0  0
    6.9911   -8.2423   27.1808 C   0  0  0  0  0  0  0  0  0  0  0  0
    3.8436   -7.2758   16.0578 C   0  0  0  0  0  0  0  0  0  0  0  0
    3.1882   -9.7190   17.2566 C   0  0  0  0  0  0  0  0  0  0  0  0
    5.3488   -6.1737   26.5092 C   0  0  0  0  0  0  0  0  0  0  0  0
    7.4567   -6.9464   27.2858 C   0  0  0  0  0  0  0  0  0  0  0  0
    0.1921   -5.7592   27.1123 C   0  0  0  0  0  0  0  0  0  0  0  0
    3.5517   -7.7407   25.9711 C   0  0  0  0  0  0  0  0  0  0  0  0
  1  4  4  0
  1 22  4  0
  2 20  4  0
  2 27  4  0
  3 12  4  0
  3 23  4  0
  4 25  4  0
  4 28  1  0
  5  8  4  0
  5 17  4  0
  6  7  4  0
  6 16  4  0
  7 18  4  0
  8 27  4  0
  9 13  4  0
  9 23  4  0
 10 11  1  0
 11 14  2  0
 11 27  1  0
 12 19  1  0
 12 24  4  0
 13 24  4  0
 15 18  1  0
 16 25  4  0
 16 26  4  0
 17 20  4  0
 17 28  1  0
 18 21  4  0
 21 26  4  0
 22 26  4  0
M  END
$$$$

 Created by Python create_sdf_string function

 28 30  0  0  0  0  0  0  0  0999 V2000
    5.7174   -8.4529   26.7190 C   0  0  0  0  0  0  0  0  0  0  0  0
    0.3974   -7.0711   27.5149 C   0  0  0  0  0  0  0  0  0  0  0  0
    2.5338   -7.6891   16.0102 C   0  0  0  0  0  0  0  0  0  0  0  0
    4.8690   -7.4380   26.4151 C   0  0  0  0  0  0  0  0  0  0  0  0
    2.3021   -5.6726   26.0378 C   0  0  0  0  0  0  0  0  0  0  0  0
    7.0880   -4.6163   27.0010 C   0  0  0  0  0  0  0  0  0  0  0  0
    8.3117   -4.3698   27.4436 C   0  0  0  0  0  0  0  0  0  0  0  0
    1.1339   -5.0515   26.3541 C   0  0  0  0  0  0  0  0  0  0  0  0
    4.8080   -8.0362   16.7101 C   0  0  0  0  0  0  0  0  0  0  0  0
   -1.2173   -3.9294   26.9717 O   0  0  0  0  0  0  0  0  0  0  0  0
   -1.0025   -5.0942   27.4586 C   0  0  0  0  0  0  0  0  0  0  0  0
    2.2474   -8.9123   16.6273 C   0  0  0  0  0  0  0  0  0  0  0  0
    4.4957   -9.2636   17.3041 C   0  0  0  0  0  0  0  0  0  0  0  0
   -1.8070   -5.6086   28.1920 O   0  0  0  0  0  0  0  0  0  0  0  0
   10.4296   -5.1799   28.3140 C   0  0  0  0  0  0  0  0  0  0  0  0
    6.6017   -5.9004   26.9187 C   0  0  0  0  0  0  0  0  0  0  0  0
    2.4761   -6.9940   26.4111 N   0  0  0  0  0  0  0  0  0  0  0  0
    9.1353   -5.4053   27.8239 C   0  0  0  0  0  0  0  0  0  0  0  0
    0.9922   -9.3232   16.5995 O   0  0  0  0  0  0  0  0  0  0  0  0
    1.5232   -7.6869   27.1182 C   0  0  0  0  0  0  0  0  0  0  0  0
    8.6878   -6.6715   27.7262 N   0  0  0  0  0  0  0  0  0  0  0  0
    6.9911   -8.2423   27.1808 C   0  0  0  0  0  0  0  0  0  0  0  0
    3.8436   -7.2758   16.0578 C   0  0  0  0  0  0  0  0  0  0  0  0
    3.1882   -9.7190   17.2566 C   0  0  0  0  0  0  0  0  0  0  0  0
    5.3488   -6.1737   26.5092 C   0  0  0  0  0  0  0  0  0  0  0  0
    7.4567   -6.9464   27.2858 C   0  0  0  0  0  0  0  0  0  0  0  0
    0.1921   -5.7592   27.1123 C   0  0  0  0  0  0  0  0  0  0  0  0
    3.5517   -7.7407   25.9711 C   0  0  0  0  0  0  0  0  0  0  0  0
  1  4  4  0
  1 22  4  0
  2 20  4  0
  2 27  4  0
  3 12  4  0
  3 23  4  0
  4 25  4  0
  4 28  1  0
  5  8  4  0
  5 17  4  0
  6  7  4  0
  6 16  4  0
  7 18  4  0
  8 27  4  0
  9 13  4  0
  9 23  4  0
 10 11  1  0
 11 14  2  0
 11 27  1  0
 12 19  1  0
 12 24  4  0
 13 24  4  0
 15 18  1  0
 16 25  4  0
 16 26  4  0
 17 20  4  0
 17 28  1  0
 18 21  4  0
 21 26  4  0
 22 26  4  0
M  END
$$$$

 Created by Python create_sdf_string function

 28 30  0  0  0  0  0  0  0  0999 V2000
    5.7174   -8.4529   26.7190 C   0  0  0  0  0  0  0  0  0  0  0  0
    0.3974   -7.0711   27.5149 C   0  0  0  0  0  0  0  0  0  0  0  0
    2.5338   -7.6891   16.0102 C   0  0  0  0  0  0  0  0  0  0  0  0
    4.8690   -7.4380   26.4151 C   0  0  0  0  0  0  0  0  0  0  0  0
    2.3021   -5.6726   26.0378 C   0  0  0  0  0  0  0  0  0  0  0  0
    7.0880   -4.6163   27.0010 C   0  0  0  0  0  0  0  0  0  0  0  0
    8.3117   -4.3698   27.4436 C   0  0  0  0  0  0  0  0  0  0  0  0
    1.1339   -5.0515   26.3541 C   0  0  0  0  0  0  0  0  0  0  0  0
    4.8080   -8.0362   16.7101 C   0  0  0  0  0  0  0  0  0  0  0  0
   -1.2173   -3.9294   26.9717 O   0  0  0  0  0  0  0  0  0  0  0  0
   -1.0025   -5.0942   27.4586 C   0  0  0  0  0  0  0  0  0  0  0  0
    2.2474   -8.9123   16.6273 C   0  0  0  0  0  0  0  0  0  0  0  0
    4.4957   -9.2636   17.3041 C   0  0  0  0  0  0  0  0  0  0  0  0
   -1.8070   -5.6086   28.1920 O   0  0  0  0  0  0  0  0  0  0  0  0
   10.4296   -5.1799   28.3140 C   0  0  0  0  0  0  0  0  0  0  0  0
    6.6017   -5.9004   26.9187 C   0  0  0  0  0  0  0  0  0  0  0  0
    2.4761   -6.9940   26.4111 N   0  0  0  0  0  0  0  0  0  0  0  0
    9.1353   -5.4053   27.8239 C   0  0  0  0  0  0  0  0  0  0  0  0
    0.9922   -9.3232   16.5995 O   0  0  0  0  0  0  0  0  0  0  0  0
    1.5232   -7.6869   27.1182 C   0  0  0  0  0  0  0  0  0  0  0  0
    8.6878   -6.6715   27.7262 N   0  0  0  0  0  0  0  0  0  0  0  0
    6.9911   -8.2423   27.1808 C   0  0  0  0  0  0  0  0  0  0  0  0
    3.8436   -7.2758   16.0578 C   0  0  0  0  0  0  0  0  0  0  0  0
    3.1882   -9.7190   17.2566 C   0  0  0  0  0  0  0  0  0  0  0  0
    5.3488   -6.1737   26.5092 C   0  0  0  0  0  0  0  0  0  0  0  0
    7.4567   -6.9464   27.2858 C   0  0  0  0  0  0  0  0  0  0  0  0
    0.1921   -5.7592   27.1123 C   0  0  0  0  0  0  0  0  0  0  0  0
    3.5517   -7.7407   25.9711 C   0  0  0  0  0  0  0  0  0  0  0  0
  1  4  4  0
  1 22  4  0
  2 20  4  0
  2 27  4  0
  3 12  4  0
  3 23  4  0
  4 25  4  0
  4 28  1  0
  5  8  4  0
  5 17  4  0
  6  7  4  0
  6 16  4  0
  7 18  4  0
  8 27  4  0
  9 13  4  0
  9 23  4  0
 10 11  1  0
 11 14  2  0
 11 27  1  0
 12 19  1  0
 12 24  4  0
 13 24  4  0
 15 18  1  0
 16 25  4  0
 16 26  4  0
 17 20  4  0
 17 28  1  0
 18 21  4  0
 21 26  4  0
 22 26  4  0
M  END
$$$$

 Created by Python create_sdf_string function

 28 30  0  0  0  0  0  0  0  0999 V2000
    5.7174   -8.4529   26.7190 C   0  0  0  0  0  0  0  0  0  0  0  0
    0.3974   -7.0711   27.5149 C   0  0  0  0  0  0  0  0  0  0  0  0
    2.5338   -7.6891   16.0102 C   0  0  0  0  0  0  0  0  0  0  0  0
    4.8690   -7.4380   26.4151 C   0  0  0  0  0  0  0  0  0  0  0  0
    2.3021   -5.6726   26.0378 C   0  0  0  0  0  0  0  0  0  0  0  0
    7.0880   -4.6163   27.0010 C   0  0  0  0  0  0  0  0  0  0  0  0
    8.3117   -4.3698   27.4436 C   0  0  0  0  0  0  0  0  0  0  0  0
    1.1339   -5.0515   26.3541 C   0  0  0  0  0  0  0  0  0  0  0  0
    4.8080   -8.0362   16.7101 C   0  0  0  0  0  0  0  0  0  0  0  0
   -1.2173   -3.9294   26.9717 O   0  0  0  0  0  0  0  0  0  0  0  0
   -1.0025   -5.0942   27.4586 C   0  0  0  0  0  0  0  0  0  0  0  0
    2.2474   -8.9123   16.6273 C   0  0  0  0  0  0  0  0  0  0  0  0
    4.4957   -9.2636   17.3041 C   0  0  0  0  0  0  0  0  0  0  0  0
   -1.8070   -5.6086   28.1920 O   0  0  0  0  0  0  0  0  0  0  0  0
   10.4296   -5.1799   28.3140 C   0  0  0  0  0  0  0  0  0  0  0  0
    6.6017   -5.9004   26.9187 C   0  0  0  0  0  0  0  0  0  0  0  0
    2.4761   -6.9940   26.4111 N   0  0  0  0  0  0  0  0  0  0  0  0
    9.1353   -5.4053   27.8239 C   0  0  0  0  0  0  0  0  0  0  0  0
    0.9922   -9.3232   16.5995 O   0  0  0  0  0  0  0  0  0  0  0  0
    1.5232   -7.6869   27.1182 C   0  0  0  0  0  0  0  0  0  0  0  0
    8.6878   -6.6715   27.7262 N   0  0  0  0  0  0  0  0  0  0  0  0
    6.9911   -8.2423   27.1808 C   0  0  0  0  0  0  0  0  0  0  0  0
    3.8436   -7.2758   16.0578 C   0  0  0  0  0  0  0  0  0  0  0  0
    3.1882   -9.7190   17.2566 C   0  0  0  0  0  0  0  0  0  0  0  0
    5.3488   -6.1737   26.5092 C   0  0  0  0  0  0  0  0  0  0  0  0
    7.4567   -6.9464   27.2858 C   0  0  0  0  0  0  0  0  0  0  0  0
    0.1921   -5.7592   27.1123 C   0  0  0  0  0  0  0  0  0  0  0  0
    3.5517   -7.7407   25.9711 C   0  0  0  0  0  0  0  0  0  0  0  0
  1  4  4  0
  1 22  4  0
  2 20  4  0
  2 27  4  0
  3 12  4  0
  3 23  4  0
  4 25  4  0
  4 28  1  0
  5  8  4  0
  5 17  4  0
  6  7  4  0
  6 16  4  0
  7 18  4  0
  8 27  4  0
  9 13  4  0
  9 23  4  0
 10 11  1  0
 11 14  2  0
 11 27  1  0
 12 19  1  0
 12 24  4  0
 13 24  4  0
 15 18  1  0
 16 25  4  0
 16 26  4  0
 17 20  4  0
 17 28  1  0
 18 21  4  0
 21 26  4  0
 22 26  4  0
M  END
$$$$

 Created by Python create_sdf_string function

 28 30  0  0  0  0  0  0  0  0999 V2000
    5.7174   -8.4529   26.7190 C   0  0  0  0  0  0  0  0  0  0  0  0
    0.3974   -7.0711   27.5149 C   0  0  0  0  0  0  0  0  0  0  0  0
    2.5338   -7.6891   16.0102 C   0  0  0  0  0  0  0  0  0  0  0  0
    4.8690   -7.4380   26.4151 C   0  0  0  0  0  0  0  0  0  0  0  0
    2.3021   -5.6726   26.0378 C   0  0  0  0  0  0  0  0  0  0  0  0
    7.0880   -4.6163   27.0010 C   0  0  0  0  0  0  0  0  0  0  0  0
    8.3117   -4.3698   27.4436 C   0  0  0  0  0  0  0  0  0  0  0  0
    1.1339   -5.0515   26.3541 C   0  0  0  0  0  0  0  0  0  0  0  0
    4.8080   -8.0362   16.7101 C   0  0  0  0  0  0  0  0  0  0  0  0
   -1.2173   -3.9294   26.9717 O   0  0  0  0  0  0  0  0  0  0  0  0
   -1.0025   -5.0942   27.4586 C   0  0  0  0  0  0  0  0  0  0  0  0
    2.2474   -8.9123   16.6273 C   0  0  0  0  0  0  0  0  0  0  0  0
    4.4957   -9.2636   17.3041 C   0  0  0  0  0  0  0  0  0  0  0  0
   -1.8070   -5.6086   28.1920 O   0  0  0  0  0  0  0  0  0  0  0  0
   10.4296   -5.1799   28.3140 C   0  0  0  0  0  0  0  0  0  0  0  0
    6.6017   -5.9004   26.9187 C   0  0  0  0  0  0  0  0  0  0  0  0
    2.4761   -6.9940   26.4111 N   0  0  0  0  0  0  0  0  0  0  0  0
    9.1353   -5.4053   27.8239 C   0  0  0  0  0  0  0  0  0  0  0  0
    0.9922   -9.3232   16.5995 O   0  0  0  0  0  0  0  0  0  0  0  0
    1.5232   -7.6869   27.1182 C   0  0  0  0  0  0  0  0  0  0  0  0
    8.6878   -6.6715   27.7262 N   0  0  0  0  0  0  0  0  0  0  0  0
    6.9911   -8.2423   27.1808 C   0  0  0  0  0  0  0  0  0  0  0  0
    3.8436   -7.2758   16.0578 C   0  0  0  0  0  0  0  0  0  0  0  0
    3.1882   -9.7190   17.2566 C   0  0  0  0  0  0  0  0  0  0  0  0
    5.3488   -6.1737   26.5092 C   0  0  0  0  0  0  0  0  0  0  0  0
    7.4567   -6.9464   27.2858 C   0  0  0  0  0  0  0  0  0  0  0  0
    0.1921   -5.7592   27.1123 C   0  0  0  0  0  0  0  0  0  0  0  0
    3.5517   -7.7407   25.9711 C   0  0  0  0  0  0  0  0  0  0  0  0
  1  4  4  0
  1 22  4  0
  2 20  4  0
  2 27  4  0
  3 12  4  0
  3 23  4  0
  4 25  4  0
  4 28  1  0
  5  8  4  0
  5 17  4  0
  6  7  4  0
  6 16  4  0
  7 18  4  0
  8 27  4  0
  9 13  4  0
  9 23  4  0
 10 11  1  0
 11 14  2  0
 11 27  1  0
 12 19  1  0
 12 24  4  0
 13 24  4  0
 15 18  1  0
 16 25  4  0
 16 26  4  0
 17 20  4  0
 17 28  1  0
 18 21  4  0
 21 26  4  0
 22 26  4  0
M  END
$$$$

 Created by Python create_sdf_string function

 28 30  0  0  0  0  0  0  0  0999 V2000
    5.7174   -8.4529   26.7190 C   0  0  0  0  0  0  0  0  0  0  0  0
    0.3974   -7.0711   27.5149 C   0  0  0  0  0  0  0  0  0  0  0  0
    2.5338   -7.6891   16.0102 C   0  0  0  0  0  0  0  0  0  0  0  0
    4.8690   -7.4380   26.4151 C   0  0  0  0  0  0  0  0  0  0  0  0
    2.3021   -5.6726   26.0378 C   0  0  0  0  0  0  0  0  0  0  0  0
    7.0880   -4.6163   27.0010 C   0  0  0  0  0  0  0  0  0  0  0  0
    8.3117   -4.3698   27.4436 C   0  0  0  0  0  0  0  0  0  0  0  0
    1.1339   -5.0515   26.3541 C   0  0  0  0  0  0  0  0  0  0  0  0
    4.8080   -8.0362   16.7101 C   0  0  0  0  0  0  0  0  0  0  0  0
   -1.2173   -3.9294   26.9717 O   0  0  0  0  0  0  0  0  0  0  0  0
   -1.0025   -5.0942   27.4586 C   0  0  0  0  0  0  0  0  0  0  0  0
    2.2474   -8.9123   16.6273 C   0  0  0  0  0  0  0  0  0  0  0  0
    4.4957   -9.2636   17.3041 C   0  0  0  0  0  0  0  0  0  0  0  0
   -1.8070   -5.6086   28.1920 O   0  0  0  0  0  0  0  0  0  0  0  0
   10.4296   -5.1799   28.3140 C   0  0  0  0  0  0  0  0  0  0  0  0
    6.6017   -5.9004   26.9187 C   0  0  0  0  0  0  0  0  0  0  0  0
    2.4761   -6.9940   26.4111 N   0  0  0  0  0  0  0  0  0  0  0  0
    9.1353   -5.4053   27.8239 C   0  0  0  0  0  0  0  0  0  0  0  0
    0.9922   -9.3232   16.5995 O   0  0  0  0  0  0  0  0  0  0  0  0
    1.5232   -7.6869   27.1182 C   0  0  0  0  0  0  0  0  0  0  0  0
    8.6878   -6.6715   27.7262 N   0  0  0  0  0  0  0  0  0  0  0  0
    6.9911   -8.2423   27.1808 C   0  0  0  0  0  0  0  0  0  0  0  0
    3.8436   -7.2758   16.0578 C   0  0  0  0  0  0  0  0  0  0  0  0
    3.1882   -9.7190   17.2566 C   0  0  0  0  0  0  0  0  0  0  0  0
    5.3488   -6.1737   26.5092 C   0  0  0  0  0  0  0  0  0  0  0  0
    7.4567   -6.9464   27.2858 C   0  0  0  0  0  0  0  0  0  0  0  0
    0.1921   -5.7592   27.1123 C   0  0  0  0  0  0  0  0  0  0  0  0
    3.5517   -7.7407   25.9711 C   0  0  0  0  0  0  0  0  0  0  0  0
  1  4  4  0
  1 22  4  0
  2 20  4  0
  2 27  4  0
  3 12  4  0
  3 23  4  0
  4 25  4  0
  4 28  1  0
  5  8  4  0
  5 17  4  0
  6  7  4  0
  6 16  4  0
  7 18  4  0
  8 27  4  0
  9 13  4  0
  9 23  4  0
 10 11  1  0
 11 14  2  0
 11 27  1  0
 12 19  1  0
 12 24  4  0
 13 24  4  0
 15 18  1  0
 16 25  4  0
 16 26  4  0
 17 20  4  0
 17 28  1  0
 18 21  4  0
 21 26  4  0
 22 26  4  0
M  END
$$$$

 Created by Python create_sdf_string function

 28 30  0  0  0  0  0  0  0  0999 V2000
    5.7174   -8.4529   26.7190 C   0  0  0  0  0  0  0  0  0  0  0  0
    0.3974   -7.0711   27.5149 C   0  0  0  0  0  0  0  0  0  0  0  0
    2.5338   -7.6891   16.0102 C   0  0  0  0  0  0  0  0  0  0  0  0
    4.8690   -7.4380   26.4151 C   0  0  0  0  0  0  0  0  0  0  0  0
    2.3021   -5.6726   26.0378 C   0  0  0  0  0  0  0  0  0  0  0  0
    7.0880   -4.6163   27.0010 C   0  0  0  0  0  0  0  0  0  0  0  0
    8.3117   -4.3698   27.4436 C   0  0  0  0  0  0  0  0  0  0  0  0
    1.1339   -5.0515   26.3541 C   0  0  0  0  0  0  0  0  0  0  0  0
    4.8080   -8.0362   16.7101 C   0  0  0  0  0  0  0  0  0  0  0  0
   -1.2173   -3.9294   26.9717 O   0  0  0  0  0  0  0  0  0  0  0  0
   -1.0025   -5.0942   27.4586 C   0  0  0  0  0  0  0  0  0  0  0  0
    2.2474   -8.9123   16.6273 C   0  0  0  0  0  0  0  0  0  0  0  0
    4.4957   -9.2636   17.3041 C   0  0  0  0  0  0  0  0  0  0  0  0
   -1.8070   -5.6086   28.1920 O   0  0  0  0  0  0  0  0  0  0  0  0
   10.4296   -5.1799   28.3140 C   0  0  0  0  0  0  0  0  0  0  0  0
    6.6017   -5.9004   26.9187 C   0  0  0  0  0  0  0  0  0  0  0  0
    2.4761   -6.9940   26.4111 N   0  0  0  0  0  0  0  0  0  0  0  0
    9.1353   -5.4053   27.8239 C   0  0  0  0  0  0  0  0  0  0  0  0
    0.9922   -9.3232   16.5995 O   0  0  0  0  0  0  0  0  0  0  0  0
    1.5232   -7.6869   27.1182 C   0  0  0  0  0  0  0  0  0  0  0  0
    8.6878   -6.6715   27.7262 N   0  0  0  0  0  0  0  0  0  0  0  0
    6.9911   -8.2423   27.1808 C   0  0  0  0  0  0  0  0  0  0  0  0
    3.8436   -7.2758   16.0578 C   0  0  0  0  0  0  0  0  0  0  0  0
    3.1882   -9.7190   17.2566 C   0  0  0  0  0  0  0  0  0  0  0  0
    5.3488   -6.1737   26.5092 C   0  0  0  0  0  0  0  0  0  0  0  0
    7.4567   -6.9464   27.2858 C   0  0  0  0  0  0  0  0  0  0  0  0
    0.1921   -5.7592   27.1123 C   0  0  0  0  0  0  0  0  0  0  0  0
    3.5517   -7.7407   25.9711 C   0  0  0  0  0  0  0  0  0  0  0  0
  1  4  4  0
  1 22  4  0
  2 20  4  0
  2 27  4  0
  3 12  4  0
  3 23  4  0
  4 25  4  0
  4 28  1  0
  5  8  4  0
  5 17  4  0
  6  7  4  0
  6 16  4  0
  7 18  4  0
  8 27  4  0
  9 13  4  0
  9 23  4  0
 10 11  1  0
 11 14  2  0
 11 27  1  0
 12 19  1  0
 12 24  4  0
 13 24  4  0
 15 18  1  0
 16 25  4  0
 16 26  4  0
 17 20  4  0
 17 28  1  0
 18 21  4  0
 21 26  4  0
 22 26  4  0
M  END
$$$$

 Created by Python create_sdf_string function

 28 30  0  0  0  0  0  0  0  0999 V2000
    5.7174   -8.4529   26.7190 C   0  0  0  0  0  0  0  0  0  0  0  0
    0.3974   -7.0711   27.5149 C   0  0  0  0  0  0  0  0  0  0  0  0
    2.5338   -7.6891   16.0102 C   0  0  0  0  0  0  0  0  0  0  0  0
    4.8690   -7.4380   26.4151 C   0  0  0  0  0  0  0  0  0  0  0  0
    2.3021   -5.6726   26.0378 C   0  0  0  0  0  0  0  0  0  0  0  0
    7.0880   -4.6163   27.0010 C   0  0  0  0  0  0  0  0  0  0  0  0
    8.3117   -4.3698   27.4436 C   0  0  0  0  0  0  0  0  0  0  0  0
    1.1339   -5.0515   26.3541 C   0  0  0  0  0  0  0  0  0  0  0  0
    4.8080   -8.0362   16.7101 C   0  0  0  0  0  0  0  0  0  0  0  0
   -1.2173   -3.9294   26.9717 O   0  0  0  0  0  0  0  0  0  0  0  0
   -1.0025   -5.0942   27.4586 C   0  0  0  0  0  0  0  0  0  0  0  0
    2.2474   -8.9123   16.6273 C   0  0  0  0  0  0  0  0  0  0  0  0
    4.4957   -9.2636   17.3041 C   0  0  0  0  0  0  0  0  0  0  0  0
   -1.8070   -5.6086   28.1920 O   0  0  0  0  0  0  0  0  0  0  0  0
   10.4296   -5.1799   28.3140 C   0  0  0  0  0  0  0  0  0  0  0  0
    6.6017   -5.9004   26.9187 C   0  0  0  0  0  0  0  0  0  0  0  0
    2.4761   -6.9940   26.4111 N   0  0  0  0  0  0  0  0  0  0  0  0
    9.1353   -5.4053   27.8239 C   0  0  0  0  0  0  0  0  0  0  0  0
    0.9922   -9.3232   16.5995 O   0  0  0  0  0  0  0  0  0  0  0  0
    1.5232   -7.6869   27.1182 C   0  0  0  0  0  0  0  0  0  0  0  0
    8.6878   -6.6715   27.7262 N   0  0  0  0  0  0  0  0  0  0  0  0
    6.9911   -8.2423   27.1808 C   0  0  0  0  0  0  0  0  0  0  0  0
    3.8436   -7.2758   16.0578 C   0  0  0  0  0  0  0  0  0  0  0  0
    3.1882   -9.7190   17.2566 C   0  0  0  0  0  0  0  0  0  0  0  0
    5.3488   -6.1737   26.5092 C   0  0  0  0  0  0  0  0  0  0  0  0
    7.4567   -6.9464   27.2858 C   0  0  0  0  0  0  0  0  0  0  0  0
    0.1921   -5.7592   27.1123 C   0  0  0  0  0  0  0  0  0  0  0  0
    3.5517   -7.7407   25.9711 C   0  0  0  0  0  0  0  0  0  0  0  0
  1  4  4  0
  1 22  4  0
  2 20  4  0
  2 27  4  0
  3 12  4  0
  3 23  4  0
  4 25  4  0
  4 28  1  0
  5  8  4  0
  5 17  4  0
  6  7  4  0
  6 16  4  0
  7 18  4  0
  8 27  4  0
  9 13  4  0
  9 23  4  0
 10 11  1  0
 11 14  2  0
 11 27  1  0
 12 19  1  0
 12 24  4  0
 13 24  4  0
 15 18  1  0
 16 25  4  0
 16 26  4  0
 17 20  4  0
 17 28  1  0
 18 21  4  0
 21 26  4  0
 22 26  4  0
M  END
$$$$

 Created by Python create_sdf_string function

 28 30  0  0  0  0  0  0  0  0999 V2000
    5.7174   -8.4529   26.7190 C   0  0  0  0  0  0  0  0  0  0  0  0
    0.3974   -7.0711   27.5149 C   0  0  0  0  0  0  0  0  0  0  0  0
    2.5338   -7.6891   16.0102 C   0  0  0  0  0  0  0  0  0  0  0  0
    4.8690   -7.4380   26.4151 C   0  0  0  0  0  0  0  0  0  0  0  0
    2.3021   -5.6726   26.0378 C   0  0  0  0  0  0  0  0  0  0  0  0
    7.0880   -4.6163   27.0010 C   0  0  0  0  0  0  0  0  0  0  0  0
    8.3117   -4.3698   27.4436 C   0  0  0  0  0  0  0  0  0  0  0  0
    1.1339   -5.0515   26.3541 C   0  0  0  0  0  0  0  0  0  0  0  0
    4.8080   -8.0362   16.7101 C   0  0  0  0  0  0  0  0  0  0  0  0
   -1.2173   -3.9294   26.9717 O   0  0  0  0  0  0  0  0  0  0  0  0
   -1.0025   -5.0942   27.4586 C   0  0  0  0  0  0  0  0  0  0  0  0
    2.2474   -8.9123   16.6273 C   0  0  0  0  0  0  0  0  0  0  0  0
    4.4957   -9.2636   17.3041 C   0  0  0  0  0  0  0  0  0  0  0  0
   -1.8070   -5.6086   28.1920 O   0  0  0  0  0  0  0  0  0  0  0  0
   10.4296   -5.1799   28.3140 C   0  0  0  0  0  0  0  0  0  0  0  0
    6.6017   -5.9004   26.9187 C   0  0  0  0  0  0  0  0  0  0  0  0
    2.4761   -6.9940   26.4111 N   0  0  0  0  0  0  0  0  0  0  0  0
    9.1353   -5.4053   27.8239 C   0  0  0  0  0  0  0  0  0  0  0  0
    0.9922   -9.3232   16.5995 O   0  0  0  0  0  0  0  0  0  0  0  0
    1.5232   -7.6869   27.1182 C   0  0  0  0  0  0  0  0  0  0  0  0
    8.6878   -6.6715   27.7262 N   0  0  0  0  0  0  0  0  0  0  0  0
    6.9911   -8.2423   27.1808 C   0  0  0  0  0  0  0  0  0  0  0  0
    3.8436   -7.2758   16.0578 C   0  0  0  0  0  0  0  0  0  0  0  0
    3.1882   -9.7190   17.2566 C   0  0  0  0  0  0  0  0  0  0  0  0
    5.3488   -6.1737   26.5092 C   0  0  0  0  0  0  0  0  0  0  0  0
    7.4567   -6.9464   27.2858 C   0  0  0  0  0  0  0  0  0  0  0  0
    0.1921   -5.7592   27.1123 C   0  0  0  0  0  0  0  0  0  0  0  0
    3.5517   -7.7407   25.9711 C   0  0  0  0  0  0  0  0  0  0  0  0
  1  4  4  0
  1 22  4  0
  2 20  4  0
  2 27  4  0
  3 12  4  0
  3 23  4  0
  4 25  4  0
  4 28  1  0
  5  8  4  0
  5 17  4  0
  6  7  4  0
  6 16  4  0
  7 18  4  0
  8 27  4  0
  9 13  4  0
  9 23  4  0
 10 11  1  0
 11 14  2  0
 11 27  1  0
 12 19  1  0
 12 24  4  0
 13 24  4  0
 15 18  1  0
 16 25  4  0
 16 26  4  0
 17 20  4  0
 17 28  1  0
 18 21  4  0
 21 26  4  0
 22 26  4  0
M  END
$$$$

 Created by Python create_sdf_string function

 28 30  0  0  0  0  0  0  0  0999 V2000
    5.7174   -8.4529   26.7190 C   0  0  0  0  0  0  0  0  0  0  0  0
    0.3974   -7.0711   27.5149 C   0  0  0  0  0  0  0  0  0  0  0  0
    2.5338   -7.6891   16.0102 C   0  0  0  0  0  0  0  0  0  0  0  0
    4.8690   -7.4380   26.4151 C   0  0  0  0  0  0  0  0  0  0  0  0
    2.3021   -5.6726   26.0378 C   0  0  0  0  0  0  0  0  0  0  0  0
    7.0880   -4.6163   27.0010 C   0  0  0  0  0  0  0  0  0  0  0  0
    8.3117   -4.3698   27.4436 C   0  0  0  0  0  0  0  0  0  0  0  0
    1.1339   -5.0515   26.3541 C   0  0  0  0  0  0  0  0  0  0  0  0
    4.8080   -8.0362   16.7101 C   0  0  0  0  0  0  0  0  0  0  0  0
   -1.2173   -3.9294   26.9717 O   0  0  0  0  0  0  0  0  0  0  0  0
   -1.0025   -5.0942   27.4586 C   0  0  0  0  0  0  0  0  0  0  0  0
    2.2474   -8.9123   16.6273 C   0  0  0  0  0  0  0  0  0  0  0  0
    4.4957   -9.2636   17.3041 C   0  0  0  0  0  0  0  0  0  0  0  0
   -1.8070   -5.6086   28.1920 O   0  0  0  0  0  0  0  0  0  0  0  0
   10.4296   -5.1799   28.3140 C   0  0  0  0  0  0  0  0  0  0  0  0
    6.6017   -5.9004   26.9187 C   0  0  0  0  0  0  0  0  0  0  0  0
    2.4761   -6.9940   26.4111 N   0  0  0  0  0  0  0  0  0  0  0  0
    9.1353   -5.4053   27.8239 C   0  0  0  0  0  0  0  0  0  0  0  0
    0.9922   -9.3232   16.5995 O   0  0  0  0  0  0  0  0  0  0  0  0
    1.5232   -7.6869   27.1182 C   0  0  0  0  0  0  0  0  0  0  0  0
    8.6878   -6.6715   27.7262 N   0  0  0  0  0  0  0  0  0  0  0  0
    6.9911   -8.2423   27.1808 C   0  0  0  0  0  0  0  0  0  0  0  0
    3.8436   -7.2758   16.0578 C   0  0  0  0  0  0  0  0  0  0  0  0
    3.1882   -9.7190   17.2566 C   0  0  0  0  0  0  0  0  0  0  0  0
    5.3488   -6.1737   26.5092 C   0  0  0  0  0  0  0  0  0  0  0  0
    7.4567   -6.9464   27.2858 C   0  0  0  0  0  0  0  0  0  0  0  0
    0.1921   -5.7592   27.1123 C   0  0  0  0  0  0  0  0  0  0  0  0
    3.5517   -7.7407   25.9711 C   0  0  0  0  0  0  0  0  0  0  0  0
  1  4  4  0
  1 22  4  0
  2 20  4  0
  2 27  4  0
  3 12  4  0
  3 23  4  0
  4 25  4  0
  4 28  1  0
  5  8  4  0
  5 17  4  0
  6  7  4  0
  6 16  4  0
  7 18  4  0
  8 27  4  0
  9 13  4  0
  9 23  4  0
 10 11  1  0
 11 14  2  0
 11 27  1  0
 12 19  1  0
 12 24  4  0
 13 24  4  0
 15 18  1  0
 16 25  4  0
 16 26  4  0
 17 20  4  0
 17 28  1  0
 18 21  4  0
 21 26  4  0
 22 26  4  0
M  END
$$$$

 Created by Python create_sdf_string function

 28 30  0  0  0  0  0  0  0  0999 V2000
    5.7174   -8.4529   26.7190 C   0  0  0  0  0  0  0  0  0  0  0  0
    0.3974   -7.0711   27.5149 C   0  0  0  0  0  0  0  0  0  0  0  0
    2.5338   -7.6891   16.0102 C   0  0  0  0  0  0  0  0  0  0  0  0
    4.8690   -7.4380   26.4151 C   0  0  0  0  0  0  0  0  0  0  0  0
    2.3021   -5.6726   26.0378 C   0  0  0  0  0  0  0  0  0  0  0  0
    7.0880   -4.6163   27.0010 C   0  0  0  0  0  0  0  0  0  0  0  0
    8.3117   -4.3698   27.4436 C   0  0  0  0  0  0  0  0  0  0  0  0
    1.1339   -5.0515   26.3541 C   0  0  0  0  0  0  0  0  0  0  0  0
    4.8080   -8.0362   16.7101 C   0  0  0  0  0  0  0  0  0  0  0  0
   -1.2173   -3.9294   26.9717 O   0  0  0  0  0  0  0  0  0  0  0  0
   -1.0025   -5.0942   27.4586 C   0  0  0  0  0  0  0  0  0  0  0  0
    2.2474   -8.9123   16.6273 C   0  0  0  0  0  0  0  0  0  0  0  0
    4.4957   -9.2636   17.3041 C   0  0  0  0  0  0  0  0  0  0  0  0
   -1.8070   -5.6086   28.1920 O   0  0  0  0  0  0  0  0  0  0  0  0
   10.4296   -5.1799   28.3140 C   0  0  0  0  0  0  0  0  0  0  0  0
    6.6017   -5.9004   26.9187 C   0  0  0  0  0  0  0  0  0  0  0  0
    2.4761   -6.9940   26.4111 N   0  0  0  0  0  0  0  0  0  0  0  0
    9.1353   -5.4053   27.8239 C   0  0  0  0  0  0  0  0  0  0  0  0
    0.9922   -9.3232   16.5995 O   0  0  0  0  0  0  0  0  0  0  0  0
    1.5232   -7.6869   27.1182 C   0  0  0  0  0  0  0  0  0  0  0  0
    8.6878   -6.6715   27.7262 N   0  0  0  0  0  0  0  0  0  0  0  0
    6.9911   -8.2423   27.1808 C   0  0  0  0  0  0  0  0  0  0  0  0
    3.8436   -7.2758   16.0578 C   0  0  0  0  0  0  0  0  0  0  0  0
    3.1882   -9.7190   17.2566 C   0  0  0  0  0  0  0  0  0  0  0  0
    5.3488   -6.1737   26.5092 C   0  0  0  0  0  0  0  0  0  0  0  0
    7.4567   -6.9464   27.2858 C   0  0  0  0  0  0  0  0  0  0  0  0
    0.1921   -5.7592   27.1123 C   0  0  0  0  0  0  0  0  0  0  0  0
    3.5517   -7.7407   25.9711 C   0  0  0  0  0  0  0  0  0  0  0  0
  1  4  4  0
  1 22  4  0
  2 20  4  0
  2 27  4  0
  3 12  4  0
  3 23  4  0
  4 25  4  0
  4 28  1  0
  5  8  4  0
  5 17  4  0
  6  7  4  0
  6 16  4  0
  7 18  4  0
  8 27  4  0
  9 13  4  0
  9 23  4  0
 10 11  1  0
 11 14  2  0
 11 27  1  0
 12 19  1  0
 12 24  4  0
 13 24  4  0
 15 18  1  0
 16 25  4  0
 16 26  4  0
 17 20  4  0
 17 28  1  0
 18 21  4  0
 21 26  4  0
 22 26  4  0
M  END
$$$$

 Created by Python create_sdf_string function

 28 30  0  0  0  0  0  0  0  0999 V2000
    5.7174   -8.4529   26.7190 C   0  0  0  0  0  0  0  0  0  0  0  0
    0.3974   -7.0711   27.5149 C   0  0  0  0  0  0  0  0  0  0  0  0
    2.5338   -7.6891   16.0102 C   0  0  0  0  0  0  0  0  0  0  0  0
    4.8690   -7.4380   26.4151 C   0  0  0  0  0  0  0  0  0  0  0  0
    2.3021   -5.6726   26.0378 C   0  0  0  0  0  0  0  0  0  0  0  0
    7.0880   -4.6163   27.0010 C   0  0  0  0  0  0  0  0  0  0  0  0
    8.3117   -4.3698   27.4436 C   0  0  0  0  0  0  0  0  0  0  0  0
    1.1339   -5.0515   26.3541 C   0  0  0  0  0  0  0  0  0  0  0  0
    4.8080   -8.0362   16.7101 C   0  0  0  0  0  0  0  0  0  0  0  0
   -1.2173   -3.9294   26.9717 O   0  0  0  0  0  0  0  0  0  0  0  0
   -1.0025   -5.0942   27.4586 C   0  0  0  0  0  0  0  0  0  0  0  0
    2.2474   -8.9123   16.6273 C   0  0  0  0  0  0  0  0  0  0  0  0
    4.4957   -9.2636   17.3041 C   0  0  0  0  0  0  0  0  0  0  0  0
   -1.8070   -5.6086   28.1920 O   0  0  0  0  0  0  0  0  0  0  0  0
   10.4296   -5.1799   28.3140 C   0  0  0  0  0  0  0  0  0  0  0  0
    6.6017   -5.9004   26.9187 C   0  0  0  0  0  0  0  0  0  0  0  0
    2.4761   -6.9940   26.4111 N   0  0  0  0  0  0  0  0  0  0  0  0
    9.1353   -5.4053   27.8239 C   0  0  0  0  0  0  0  0  0  0  0  0
    0.9922   -9.3232   16.5995 O   0  0  0  0  0  0  0  0  0  0  0  0
    1.5232   -7.6869   27.1182 C   0  0  0  0  0  0  0  0  0  0  0  0
    8.6878   -6.6715   27.7262 N   0  0  0  0  0  0  0  0  0  0  0  0
    6.9911   -8.2423   27.1808 C   0  0  0  0  0  0  0  0  0  0  0  0
    3.8436   -7.2758   16.0578 C   0  0  0  0  0  0  0  0  0  0  0  0
    3.1882   -9.7190   17.2566 C   0  0  0  0  0  0  0  0  0  0  0  0
    5.3488   -6.1737   26.5092 C   0  0  0  0  0  0  0  0  0  0  0  0
    7.4567   -6.9464   27.2858 C   0  0  0  0  0  0  0  0  0  0  0  0
    0.1921   -5.7592   27.1123 C   0  0  0  0  0  0  0  0  0  0  0  0
    3.5517   -7.7407   25.9711 C   0  0  0  0  0  0  0  0  0  0  0  0
  1  4  4  0
  1 22  4  0
  2 20  4  0
  2 27  4  0
  3 12  4  0
  3 23  4  0
  4 25  4  0
  4 28  1  0
  5  8  4  0
  5 17  4  0
  6  7  4  0
  6 16  4  0
  7 18  4  0
  8 27  4  0
  9 13  4  0
  9 23  4  0
 10 11  1  0
 11 14  2  0
 11 27  1  0
 12 19  1  0
 12 24  4  0
 13 24  4  0
 15 18  1  0
 16 25  4  0
 16 26  4  0
 17 20  4  0
 17 28  1  0
 18 21  4  0
 21 26  4  0
 22 26  4  0
M  END
$$$$

 Created by Python create_sdf_string function

 28 30  0  0  0  0  0  0  0  0999 V2000
    5.7174   -8.4529   26.7190 C   0  0  0  0  0  0  0  0  0  0  0  0
    0.3974   -7.0711   27.5149 C   0  0  0  0  0  0  0  0  0  0  0  0
    2.5338   -7.6891   16.0102 C   0  0  0  0  0  0  0  0  0  0  0  0
    4.8690   -7.4380   26.4151 C   0  0  0  0  0  0  0  0  0  0  0  0
    2.3021   -5.6726   26.0378 C   0  0  0  0  0  0  0  0  0  0  0  0
    7.0880   -4.6163   27.0010 C   0  0  0  0  0  0  0  0  0  0  0  0
    8.3117   -4.3698   27.4436 C   0  0  0  0  0  0  0  0  0  0  0  0
    1.1339   -5.0515   26.3541 C   0  0  0  0  0  0  0  0  0  0  0  0
    4.8080   -8.0362   16.7101 C   0  0  0  0  0  0  0  0  0  0  0  0
   -1.2173   -3.9294   26.9717 O   0  0  0  0  0  0  0  0  0  0  0  0
   -1.0025   -5.0942   27.4586 C   0  0  0  0  0  0  0  0  0  0  0  0
    2.2474   -8.9123   16.6273 C   0  0  0  0  0  0  0  0  0  0  0  0
    4.4957   -9.2636   17.3041 C   0  0  0  0  0  0  0  0  0  0  0  0
   -1.8070   -5.6086   28.1920 O   0  0  0  0  0  0  0  0  0  0  0  0
   10.4296   -5.1799   28.3140 C   0  0  0  0  0  0  0  0  0  0  0  0
    6.6017   -5.9004   26.9187 C   0  0  0  0  0  0  0  0  0  0  0  0
    2.4761   -6.9940   26.4111 N   0  0  0  0  0  0  0  0  0  0  0  0
    9.1353   -5.4053   27.8239 C   0  0  0  0  0  0  0  0  0  0  0  0
    0.9922   -9.3232   16.5995 O   0  0  0  0  0  0  0  0  0  0  0  0
    1.5232   -7.6869   27.1182 C   0  0  0  0  0  0  0  0  0  0  0  0
    8.6878   -6.6715   27.7262 N   0  0  0  0  0  0  0  0  0  0  0  0
    6.9911   -8.2423   27.1808 C   0  0  0  0  0  0  0  0  0  0  0  0
    3.8436   -7.2758   16.0578 C   0  0  0  0  0  0  0  0  0  0  0  0
    3.1882   -9.7190   17.2566 C   0  0  0  0  0  0  0  0  0  0  0  0
    5.3488   -6.1737   26.5092 C   0  0  0  0  0  0  0  0  0  0  0  0
    7.4567   -6.9464   27.2858 C   0  0  0  0  0  0  0  0  0  0  0  0
    0.1921   -5.7592   27.1123 C   0  0  0  0  0  0  0  0  0  0  0  0
    3.5517   -7.7407   25.9711 C   0  0  0  0  0  0  0  0  0  0  0  0
  1  4  4  0
  1 22  4  0
  2 20  4  0
  2 27  4  0
  3 12  4  0
  3 23  4  0
  4 25  4  0
  4 28  1  0
  5  8  4  0
  5 17  4  0
  6  7  4  0
  6 16  4  0
  7 18  4  0
  8 27  4  0
  9 13  4  0
  9 23  4  0
 10 11  1  0
 11 14  2  0
 11 27  1  0
 12 19  1  0
 12 24  4  0
 13 24  4  0
 15 18  1  0
 16 25  4  0
 16 26  4  0
 17 20  4  0
 17 28  1  0
 18 21  4  0
 21 26  4  0
 22 26  4  0
M  END
$$$$

 Created by Python create_sdf_string function

 28 30  0  0  0  0  0  0  0  0999 V2000
    5.7174   -8.4529   26.7190 C   0  0  0  0  0  0  0  0  0  0  0  0
    0.3974   -7.0711   27.5149 C   0  0  0  0  0  0  0  0  0  0  0  0
    2.5338   -7.6891   16.0102 C   0  0  0  0  0  0  0  0  0  0  0  0
    4.8690   -7.4380   26.4151 C   0  0  0  0  0  0  0  0  0  0  0  0
    2.3021   -5.6726   26.0378 C   0  0  0  0  0  0  0  0  0  0  0  0
    7.0880   -4.6163   27.0010 C   0  0  0  0  0  0  0  0  0  0  0  0
    8.3117   -4.3698   27.4436 C   0  0  0  0  0  0  0  0  0  0  0  0
    1.1339   -5.0515   26.3541 C   0  0  0  0  0  0  0  0  0  0  0  0
    4.8080   -8.0362   16.7101 C   0  0  0  0  0  0  0  0  0  0  0  0
   -1.2173   -3.9294   26.9717 O   0  0  0  0  0  0  0  0  0  0  0  0
   -1.0025   -5.0942   27.4586 C   0  0  0  0  0  0  0  0  0  0  0  0
    2.2474   -8.9123   16.6273 C   0  0  0  0  0  0  0  0  0  0  0  0
    4.4957   -9.2636   17.3041 C   0  0  0  0  0  0  0  0  0  0  0  0
   -1.8070   -5.6086   28.1920 O   0  0  0  0  0  0  0  0  0  0  0  0
   10.4296   -5.1799   28.3140 C   0  0  0  0  0  0  0  0  0  0  0  0
    6.6017   -5.9004   26.9187 C   0  0  0  0  0  0  0  0  0  0  0  0
    2.4761   -6.9940   26.4111 N   0  0  0  0  0  0  0  0  0  0  0  0
    9.1353   -5.4053   27.8239 C   0  0  0  0  0  0  0  0  0  0  0  0
    0.9922   -9.3232   16.5995 O   0  0  0  0  0  0  0  0  0  0  0  0
    1.5232   -7.6869   27.1182 C   0  0  0  0  0  0  0  0  0  0  0  0
    8.6878   -6.6715   27.7262 N   0  0  0  0  0  0  0  0  0  0  0  0
    6.9911   -8.2423   27.1808 C   0  0  0  0  0  0  0  0  0  0  0  0
    3.8436   -7.2758   16.0578 C   0  0  0  0  0  0  0  0  0  0  0  0
    3.1882   -9.7190   17.2566 C   0  0  0  0  0  0  0  0  0  0  0  0
    5.3488   -6.1737   26.5092 C   0  0  0  0  0  0  0  0  0  0  0  0
    7.4567   -6.9464   27.2858 C   0  0  0  0  0  0  0  0  0  0  0  0
    0.1921   -5.7592   27.1123 C   0  0  0  0  0  0  0  0  0  0  0  0
    3.5517   -7.7407   25.9711 C   0  0  0  0  0  0  0  0  0  0  0  0
  1  4  4  0
  1 22  4  0
  2 20  4  0
  2 27  4  0
  3 12  4  0
  3 23  4  0
  4 25  4  0
  4 28  1  0
  5  8  4  0
  5 17  4  0
  6  7  4  0
  6 16  4  0
  7 18  4  0
  8 27  4  0
  9 13  4  0
  9 23  4  0
 10 11  1  0
 11 14  2  0
 11 27  1  0
 12 19  1  0
 12 24  4  0
 13 24  4  0
 15 18  1  0
 16 25  4  0
 16 26  4  0
 17 20  4  0
 17 28  1  0
 18 21  4  0
 21 26  4  0
 22 26  4  0
M  END
$$$$

 Created by Python create_sdf_string function

 28 30  0  0  0  0  0  0  0  0999 V2000
    5.7174   -8.4529   26.7190 C   0  0  0  0  0  0  0  0  0  0  0  0
    0.3974   -7.0711   27.5149 C   0  0  0  0  0  0  0  0  0  0  0  0
    2.5338   -7.6891   16.0102 C   0  0  0  0  0  0  0  0  0  0  0  0
    4.8690   -7.4380   26.4151 C   0  0  0  0  0  0  0  0  0  0  0  0
    2.3021   -5.6726   26.0378 C   0  0  0  0  0  0  0  0  0  0  0  0
    7.0880   -4.6163   27.0010 C   0  0  0  0  0  0  0  0  0  0  0  0
    8.3117   -4.3698   27.4436 C   0  0  0  0  0  0  0  0  0  0  0  0
    1.1339   -5.0515   26.3541 C   0  0  0  0  0  0  0  0  0  0  0  0
    4.8080   -8.0362   16.7101 C   0  0  0  0  0  0  0  0  0  0  0  0
   -1.2173   -3.9294   26.9717 O   0  0  0  0  0  0  0  0  0  0  0  0
   -1.0025   -5.0942   27.4586 C   0  0  0  0  0  0  0  0  0  0  0  0
    2.2474   -8.9123   16.6273 C   0  0  0  0  0  0  0  0  0  0  0  0
    4.4957   -9.2636   17.3041 C   0  0  0  0  0  0  0  0  0  0  0  0
   -1.8070   -5.6086   28.1920 O   0  0  0  0  0  0  0  0  0  0  0  0
   10.4296   -5.1799   28.3140 C   0  0  0  0  0  0  0  0  0  0  0  0
    6.6017   -5.9004   26.9187 C   0  0  0  0  0  0  0  0  0  0  0  0
    2.4761   -6.9940   26.4111 N   0  0  0  0  0  0  0  0  0  0  0  0
    9.1353   -5.4053   27.8239 C   0  0  0  0  0  0  0  0  0  0  0  0
    0.9922   -9.3232   16.5995 O   0  0  0  0  0  0  0  0  0  0  0  0
    1.5232   -7.6869   27.1182 C   0  0  0  0  0  0  0  0  0  0  0  0
    8.6878   -6.6715   27.7262 N   0  0  0  0  0  0  0  0  0  0  0  0
    6.9911   -8.2423   27.1808 C   0  0  0  0  0  0  0  0  0  0  0  0
    3.8436   -7.2758   16.0578 C   0  0  0  0  0  0  0  0  0  0  0  0
    3.1882   -9.7190   17.2566 C   0  0  0  0  0  0  0  0  0  0  0  0
    5.3488   -6.1737   26.5092 C   0  0  0  0  0  0  0  0  0  0  0  0
    7.4567   -6.9464   27.2858 C   0  0  0  0  0  0  0  0  0  0  0  0
    0.1921   -5.7592   27.1123 C   0  0  0  0  0  0  0  0  0  0  0  0
    3.5517   -7.7407   25.9711 C   0  0  0  0  0  0  0  0  0  0  0  0
  1  4  4  0
  1 22  4  0
  2 20  4  0
  2 27  4  0
  3 12  4  0
  3 23  4  0
  4 25  4  0
  4 28  1  0
  5  8  4  0
  5 17  4  0
  6  7  4  0
  6 16  4  0
  7 18  4  0
  8 27  4  0
  9 13  4  0
  9 23  4  0
 10 11  1  0
 11 14  2  0
 11 27  1  0
 12 19  1  0
 12 24  4  0
 13 24  4  0
 15 18  1  0
 16 25  4  0
 16 26  4  0
 17 20  4  0
 17 28  1  0
 18 21  4  0
 21 26  4  0
 22 26  4  0
M  END
$$$$

 Created by Python create_sdf_string function

 28 30  0  0  0  0  0  0  0  0999 V2000
    5.7174   -8.4529   26.7190 C   0  0  0  0  0  0  0  0  0  0  0  0
    0.3974   -7.0711   27.5149 C   0  0  0  0  0  0  0  0  0  0  0  0
    2.5338   -7.6891   16.0102 C   0  0  0  0  0  0  0  0  0  0  0  0
    4.8690   -7.4380   26.4151 C   0  0  0  0  0  0  0  0  0  0  0  0
    2.3021   -5.6726   26.0378 C   0  0  0  0  0  0  0  0  0  0  0  0
    7.0880   -4.6163   27.0010 C   0  0  0  0  0  0  0  0  0  0  0  0
    8.3117   -4.3698   27.4436 C   0  0  0  0  0  0  0  0  0  0  0  0
    1.1339   -5.0515   26.3541 C   0  0  0  0  0  0  0  0  0  0  0  0
    4.8080   -8.0362   16.7101 C   0  0  0  0  0  0  0  0  0  0  0  0
   -1.2173   -3.9294   26.9717 O   0  0  0  0  0  0  0  0  0  0  0  0
   -1.0025   -5.0942   27.4586 C   0  0  0  0  0  0  0  0  0  0  0  0
    2.2474   -8.9123   16.6273 C   0  0  0  0  0  0  0  0  0  0  0  0
    4.4957   -9.2636   17.3041 C   0  0  0  0  0  0  0  0  0  0  0  0
   -1.8070   -5.6086   28.1920 O   0  0  0  0  0  0  0  0  0  0  0  0
   10.4296   -5.1799   28.3140 C   0  0  0  0  0  0  0  0  0  0  0  0
    6.6017   -5.9004   26.9187 C   0  0  0  0  0  0  0  0  0  0  0  0
    2.4761   -6.9940   26.4111 N   0  0  0  0  0  0  0  0  0  0  0  0
    9.1353   -5.4053   27.8239 C   0  0  0  0  0  0  0  0  0  0  0  0
    0.9922   -9.3232   16.5995 O   0  0  0  0  0  0  0  0  0  0  0  0
    1.5232   -7.6869   27.1182 C   0  0  0  0  0  0  0  0  0  0  0  0
    8.6878   -6.6715   27.7262 N   0  0  0  0  0  0  0  0  0  0  0  0
    6.9911   -8.2423   27.1808 C   0  0  0  0  0  0  0  0  0  0  0  0
    3.8436   -7.2758   16.0578 C   0  0  0  0  0  0  0  0  0  0  0  0
    3.1882   -9.7190   17.2566 C   0  0  0  0  0  0  0  0  0  0  0  0
    5.3488   -6.1737   26.5092 C   0  0  0  0  0  0  0  0  0  0  0  0
    7.4567   -6.9464   27.2858 C   0  0  0  0  0  0  0  0  0  0  0  0
    0.1921   -5.7592   27.1123 C   0  0  0  0  0  0  0  0  0  0  0  0
    3.5517   -7.7407   25.9711 C   0  0  0  0  0  0  0  0  0  0  0  0
  1  4  4  0
  1 22  4  0
  2 20  4  0
  2 27  4  0
  3 12  4  0
  3 23  4  0
  4 25  4  0
  4 28  1  0
  5  8  4  0
  5 17  4  0
  6  7  4  0
  6 16  4  0
  7 18  4  0
  8 27  4  0
  9 13  4  0
  9 23  4  0
 10 11  1  0
 11 14  2  0
 11 27  1  0
 12 19  1  0
 12 24  4  0
 13 24  4  0
 15 18  1  0
 16 25  4  0
 16 26  4  0
 17 20  4  0
 17 28  1  0
 18 21  4  0
 21 26  4  0
 22 26  4  0
M  END
$$$$

 Created by Python create_sdf_string function

 28 30  0  0  0  0  0  0  0  0999 V2000
    5.7174   -8.4529   26.7190 C   0  0  0  0  0  0  0  0  0  0  0  0
    0.3974   -7.0711   27.5149 C   0  0  0  0  0  0  0  0  0  0  0  0
    2.5338   -7.6891   16.0102 C   0  0  0  0  0  0  0  0  0  0  0  0
    4.8690   -7.4380   26.4151 C   0  0  0  0  0  0  0  0  0  0  0  0
    2.3021   -5.6726   26.0378 C   0  0  0  0  0  0  0  0  0  0  0  0
    7.0880   -4.6163   27.0010 C   0  0  0  0  0  0  0  0  0  0  0  0
    8.3117   -4.3698   27.4436 C   0  0  0  0  0  0  0  0  0  0  0  0
    1.1339   -5.0515   26.3541 C   0  0  0  0  0  0  0  0  0  0  0  0
    4.8080   -8.0362   16.7101 C   0  0  0  0  0  0  0  0  0  0  0  0
   -1.2173   -3.9294   26.9717 O   0  0  0  0  0  0  0  0  0  0  0  0
   -1.0025   -5.0942   27.4586 C   0  0  0  0  0  0  0  0  0  0  0  0
    2.2474   -8.9123   16.6273 C   0  0  0  0  0  0  0  0  0  0  0  0
    4.4957   -9.2636   17.3041 C   0  0  0  0  0  0  0  0  0  0  0  0
   -1.8070   -5.6086   28.1920 O   0  0  0  0  0  0  0  0  0  0  0  0
   10.4296   -5.1799   28.3140 C   0  0  0  0  0  0  0  0  0  0  0  0
    6.6017   -5.9004   26.9187 C   0  0  0  0  0  0  0  0  0  0  0  0
    2.4761   -6.9940   26.4111 N   0  0  0  0  0  0  0  0  0  0  0  0
    9.1353   -5.4053   27.8239 C   0  0  0  0  0  0  0  0  0  0  0  0
    0.9922   -9.3232   16.5995 O   0  0  0  0  0  0  0  0  0  0  0  0
    1.5232   -7.6869   27.1182 C   0  0  0  0  0  0  0  0  0  0  0  0
    8.6878   -6.6715   27.7262 N   0  0  0  0  0  0  0  0  0  0  0  0
    6.9911   -8.2423   27.1808 C   0  0  0  0  0  0  0  0  0  0  0  0
    3.8436   -7.2758   16.0578 C   0  0  0  0  0  0  0  0  0  0  0  0
    3.1882   -9.7190   17.2566 C   0  0  0  0  0  0  0  0  0  0  0  0
    5.3488   -6.1737   26.5092 C   0  0  0  0  0  0  0  0  0  0  0  0
    7.4567   -6.9464   27.2858 C   0  0  0  0  0  0  0  0  0  0  0  0
    0.1921   -5.7592   27.1123 C   0  0  0  0  0  0  0  0  0  0  0  0
    3.5517   -7.7407   25.9711 C   0  0  0  0  0  0  0  0  0  0  0  0
  1  4  4  0
  1 22  4  0
  2 20  4  0
  2 27  4  0
  3 12  4  0
  3 23  4  0
  4 25  4  0
  4 28  1  0
  5  8  4  0
  5 17  4  0
  6  7  4  0
  6 16  4  0
  7 18  4  0
  8 27  4  0
  9 13  4  0
  9 23  4  0
 10 11  1  0
 11 14  2  0
 11 27  1  0
 12 19  1  0
 12 24  4  0
 13 24  4  0
 15 18  1  0
 16 25  4  0
 16 26  4  0
 17 20  4  0
 17 28  1  0
 18 21  4  0
 21 26  4  0
 22 26  4  0
M  END
$$$$

 Created by Python create_sdf_string function

 28 30  0  0  0  0  0  0  0  0999 V2000
    5.7174   -8.4529   26.7190 C   0  0  0  0  0  0  0  0  0  0  0  0
    0.3974   -7.0711   27.5149 C   0  0  0  0  0  0  0  0  0  0  0  0
    2.5338   -7.6891   16.0102 C   0  0  0  0  0  0  0  0  0  0  0  0
    4.8690   -7.4380   26.4151 C   0  0  0  0  0  0  0  0  0  0  0  0
    2.3021   -5.6726   26.0378 C   0  0  0  0  0  0  0  0  0  0  0  0
    7.0880   -4.6163   27.0010 C   0  0  0  0  0  0  0  0  0  0  0  0
    8.3117   -4.3698   27.4436 C   0  0  0  0  0  0  0  0  0  0  0  0
    1.1339   -5.0515   26.3541 C   0  0  0  0  0  0  0  0  0  0  0  0
    4.8080   -8.0362   16.7101 C   0  0  0  0  0  0  0  0  0  0  0  0
   -1.2173   -3.9294   26.9717 O   0  0  0  0  0  0  0  0  0  0  0  0
   -1.0025   -5.0942   27.4586 C   0  0  0  0  0  0  0  0  0  0  0  0
    2.2474   -8.9123   16.6273 C   0  0  0  0  0  0  0  0  0  0  0  0
    4.4957   -9.2636   17.3041 C   0  0  0  0  0  0  0  0  0  0  0  0
   -1.8070   -5.6086   28.1920 O   0  0  0  0  0  0  0  0  0  0  0  0
   10.4296   -5.1799   28.3140 C   0  0  0  0  0  0  0  0  0  0  0  0
    6.6017   -5.9004   26.9187 C   0  0  0  0  0  0  0  0  0  0  0  0
    2.4761   -6.9940   26.4111 N   0  0  0  0  0  0  0  0  0  0  0  0
    9.1353   -5.4053   27.8239 C   0  0  0  0  0  0  0  0  0  0  0  0
    0.9922   -9.3232   16.5995 O   0  0  0  0  0  0  0  0  0  0  0  0
    1.5232   -7.6869   27.1182 C   0  0  0  0  0  0  0  0  0  0  0  0
    8.6878   -6.6715   27.7262 N   0  0  0  0  0  0  0  0  0  0  0  0
    6.9911   -8.2423   27.1808 C   0  0  0  0  0  0  0  0  0  0  0  0
    3.8436   -7.2758   16.0578 C   0  0  0  0  0  0  0  0  0  0  0  0
    3.1882   -9.7190   17.2566 C   0  0  0  0  0  0  0  0  0  0  0  0
    5.3488   -6.1737   26.5092 C   0  0  0  0  0  0  0  0  0  0  0  0
    7.4567   -6.9464   27.2858 C   0  0  0  0  0  0  0  0  0  0  0  0
    0.1921   -5.7592   27.1123 C   0  0  0  0  0  0  0  0  0  0  0  0
    3.5517   -7.7407   25.9711 C   0  0  0  0  0  0  0  0  0  0  0  0
  1  4  4  0
  1 22  4  0
  2 20  4  0
  2 27  4  0
  3 12  4  0
  3 23  4  0
  4 25  4  0
  4 28  1  0
  5  8  4  0
  5 17  4  0
  6  7  4  0
  6 16  4  0
  7 18  4  0
  8 27  4  0
  9 13  4  0
  9 23  4  0
 10 11  1  0
 11 14  2  0
 11 27  1  0
 12 19  1  0
 12 24  4  0
 13 24  4  0
 15 18  1  0
 16 25  4  0
 16 26  4  0
 17 20  4  0
 17 28  1  0
 18 21  4  0
 21 26  4  0
 22 26  4  0
M  END
$$$$

 Created by Python create_sdf_string function

 28 30  0  0  0  0  0  0  0  0999 V2000
    5.7174   -8.4529   26.7190 C   0  0  0  0  0  0  0  0  0  0  0  0
    0.3974   -7.0711   27.5149 C   0  0  0  0  0  0  0  0  0  0  0  0
    2.5338   -7.6891   16.0102 C   0  0  0  0  0  0  0  0  0  0  0  0
    4.8690   -7.4380   26.4151 C   0  0  0  0  0  0  0  0  0  0  0  0
    2.3021   -5.6726   26.0378 C   0  0  0  0  0  0  0  0  0  0  0  0
    7.0880   -4.6163   27.0010 C   0  0  0  0  0  0  0  0  0  0  0  0
    8.3117   -4.3698   27.4436 C   0  0  0  0  0  0  0  0  0  0  0  0
    1.1339   -5.0515   26.3541 C   0  0  0  0  0  0  0  0  0  0  0  0
    4.8080   -8.0362   16.7101 C   0  0  0  0  0  0  0  0  0  0  0  0
   -1.2173   -3.9294   26.9717 O   0  0  0  0  0  0  0  0  0  0  0  0
   -1.0025   -5.0942   27.4586 C   0  0  0  0  0  0  0  0  0  0  0  0
    2.2474   -8.9123   16.6273 C   0  0  0  0  0  0  0  0  0  0  0  0
    4.4957   -9.2636   17.3041 C   0  0  0  0  0  0  0  0  0  0  0  0
   -1.8070   -5.6086   28.1920 O   0  0  0  0  0  0  0  0  0  0  0  0
   10.4296   -5.1799   28.3140 C   0  0  0  0  0  0  0  0  0  0  0  0
    6.6017   -5.9004   26.9187 C   0  0  0  0  0  0  0  0  0  0  0  0
    2.4761   -6.9940   26.4111 N   0  0  0  0  0  0  0  0  0  0  0  0
    9.1353   -5.4053   27.8239 C   0  0  0  0  0  0  0  0  0  0  0  0
    0.9922   -9.3232   16.5995 O   0  0  0  0  0  0  0  0  0  0  0  0
    1.5232   -7.6869   27.1182 C   0  0  0  0  0  0  0  0  0  0  0  0
    8.6878   -6.6715   27.7262 N   0  0  0  0  0  0  0  0  0  0  0  0
    6.9911   -8.2423   27.1808 C   0  0  0  0  0  0  0  0  0  0  0  0
    3.8436   -7.2758   16.0578 C   0  0  0  0  0  0  0  0  0  0  0  0
    3.1882   -9.7190   17.2566 C   0  0  0  0  0  0  0  0  0  0  0  0
    5.3488   -6.1737   26.5092 C   0  0  0  0  0  0  0  0  0  0  0  0
    7.4567   -6.9464   27.2858 C   0  0  0  0  0  0  0  0  0  0  0  0
    0.1921   -5.7592   27.1123 C   0  0  0  0  0  0  0  0  0  0  0  0
    3.5517   -7.7407   25.9711 C   0  0  0  0  0  0  0  0  0  0  0  0
  1  4  4  0
  1 22  4  0
  2 20  4  0
  2 27  4  0
  3 12  4  0
  3 23  4  0
  4 25  4  0
  4 28  1  0
  5  8  4  0
  5 17  4  0
  6  7  4  0
  6 16  4  0
  7 18  4  0
  8 27  4  0
  9 13  4  0
  9 23  4  0
 10 11  1  0
 11 14  2  0
 11 27  1  0
 12 19  1  0
 12 24  4  0
 13 24  4  0
 15 18  1  0
 16 25  4  0
 16 26  4  0
 17 20  4  0
 17 28  1  0
 18 21  4  0
 21 26  4  0
 22 26  4  0
M  END
$$$$

 Created by Python create_sdf_string function

 28 30  0  0  0  0  0  0  0  0999 V2000
    5.7174   -8.4529   26.7190 C   0  0  0  0  0  0  0  0  0  0  0  0
    0.3974   -7.0711   27.5149 C   0  0  0  0  0  0  0  0  0  0  0  0
    2.5338   -7.6891   16.0102 C   0  0  0  0  0  0  0  0  0  0  0  0
    4.8690   -7.4380   26.4151 C   0  0  0  0  0  0  0  0  0  0  0  0
    2.3021   -5.6726   26.0378 C   0  0  0  0  0  0  0  0  0  0  0  0
    7.0880   -4.6163   27.0010 C   0  0  0  0  0  0  0  0  0  0  0  0
    8.3117   -4.3698   27.4436 C   0  0  0  0  0  0  0  0  0  0  0  0
    1.1339   -5.0515   26.3541 C   0  0  0  0  0  0  0  0  0  0  0  0
    4.8080   -8.0362   16.7101 C   0  0  0  0  0  0  0  0  0  0  0  0
   -1.2173   -3.9294   26.9717 O   0  0  0  0  0  0  0  0  0  0  0  0
   -1.0025   -5.0942   27.4586 C   0  0  0  0  0  0  0  0  0  0  0  0
    2.2474   -8.9123   16.6273 C   0  0  0  0  0  0  0  0  0  0  0  0
    4.4957   -9.2636   17.3041 C   0  0  0  0  0  0  0  0  0  0  0  0
   -1.8070   -5.6086   28.1920 O   0  0  0  0  0  0  0  0  0  0  0  0
   10.4296   -5.1799   28.3140 C   0  0  0  0  0  0  0  0  0  0  0  0
    6.6017   -5.9004   26.9187 C   0  0  0  0  0  0  0  0  0  0  0  0
    2.4761   -6.9940   26.4111 N   0  0  0  0  0  0  0  0  0  0  0  0
    9.1353   -5.4053   27.8239 C   0  0  0  0  0  0  0  0  0  0  0  0
    0.9922   -9.3232   16.5995 O   0  0  0  0  0  0  0  0  0  0  0  0
    1.5232   -7.6869   27.1182 C   0  0  0  0  0  0  0  0  0  0  0  0
    8.6878   -6.6715   27.7262 N   0  0  0  0  0  0  0  0  0  0  0  0
    6.9911   -8.2423   27.1808 C   0  0  0  0  0  0  0  0  0  0  0  0
    3.8436   -7.2758   16.0578 C   0  0  0  0  0  0  0  0  0  0  0  0
    3.1882   -9.7190   17.2566 C   0  0  0  0  0  0  0  0  0  0  0  0
    5.3488   -6.1737   26.5092 C   0  0  0  0  0  0  0  0  0  0  0  0
    7.4567   -6.9464   27.2858 C   0  0  0  0  0  0  0  0  0  0  0  0
    0.1921   -5.7592   27.1123 C   0  0  0  0  0  0  0  0  0  0  0  0
    3.5517   -7.7407   25.9711 C   0  0  0  0  0  0  0  0  0  0  0  0
  1  4  4  0
  1 22  4  0
  2 20  4  0
  2 27  4  0
  3 12  4  0
  3 23  4  0
  4 25  4  0
  4 28  1  0
  5  8  4  0
  5 17  4  0
  6  7  4  0
  6 16  4  0
  7 18  4  0
  8 27  4  0
  9 13  4  0
  9 23  4  0
 10 11  1  0
 11 14  2  0
 11 27  1  0
 12 19  1  0
 12 24  4  0
 13 24  4  0
 15 18  1  0
 16 25  4  0
 16 26  4  0
 17 20  4  0
 17 28  1  0
 18 21  4  0
 21 26  4  0
 22 26  4  0
M  END
$$$$

 Created by Python create_sdf_string function

 28 30  0  0  0  0  0  0  0  0999 V2000
    5.7174   -8.4529   26.7190 C   0  0  0  0  0  0  0  0  0  0  0  0
    0.3974   -7.0711   27.5149 C   0  0  0  0  0  0  0  0  0  0  0  0
    2.5338   -7.6891   16.0102 C   0  0  0  0  0  0  0  0  0  0  0  0
    4.8690   -7.4380   26.4151 C   0  0  0  0  0  0  0  0  0  0  0  0
    2.3021   -5.6726   26.0378 C   0  0  0  0  0  0  0  0  0  0  0  0
    7.0880   -4.6163   27.0010 C   0  0  0  0  0  0  0  0  0  0  0  0
    8.3117   -4.3698   27.4436 C   0  0  0  0  0  0  0  0  0  0  0  0
    1.1339   -5.0515   26.3541 C   0  0  0  0  0  0  0  0  0  0  0  0
    4.8080   -8.0362   16.7101 C   0  0  0  0  0  0  0  0  0  0  0  0
   -1.2173   -3.9294   26.9717 O   0  0  0  0  0  0  0  0  0  0  0  0
   -1.0025   -5.0942   27.4586 C   0  0  0  0  0  0  0  0  0  0  0  0
    2.2474   -8.9123   16.6273 C   0  0  0  0  0  0  0  0  0  0  0  0
    4.4957   -9.2636   17.3041 C   0  0  0  0  0  0  0  0  0  0  0  0
   -1.8070   -5.6086   28.1920 O   0  0  0  0  0  0  0  0  0  0  0  0
   10.4296   -5.1799   28.3140 C   0  0  0  0  0  0  0  0  0  0  0  0
    6.6017   -5.9004   26.9187 C   0  0  0  0  0  0  0  0  0  0  0  0
    2.4761   -6.9940   26.4111 N   0  0  0  0  0  0  0  0  0  0  0  0
    9.1353   -5.4053   27.8239 C   0  0  0  0  0  0  0  0  0  0  0  0
    0.9922   -9.3232   16.5995 O   0  0  0  0  0  0  0  0  0  0  0  0
    1.5232   -7.6869   27.1182 C   0  0  0  0  0  0  0  0  0  0  0  0
    8.6878   -6.6715   27.7262 N   0  0  0  0  0  0  0  0  0  0  0  0
    6.9911   -8.2423   27.1808 C   0  0  0  0  0  0  0  0  0  0  0  0
    3.8436   -7.2758   16.0578 C   0  0  0  0  0  0  0  0  0  0  0  0
    3.1882   -9.7190   17.2566 C   0  0  0  0  0  0  0  0  0  0  0  0
    5.3488   -6.1737   26.5092 C   0  0  0  0  0  0  0  0  0  0  0  0
    7.4567   -6.9464   27.2858 C   0  0  0  0  0  0  0  0  0  0  0  0
    0.1921   -5.7592   27.1123 C   0  0  0  0  0  0  0  0  0  0  0  0
    3.5517   -7.7407   25.9711 C   0  0  0  0  0  0  0  0  0  0  0  0
  1  4  4  0
  1 22  4  0
  2 20  4  0
  2 27  4  0
  3 12  4  0
  3 23  4  0
  4 25  4  0
  4 28  1  0
  5  8  4  0
  5 17  4  0
  6  7  4  0
  6 16  4  0
  7 18  4  0
  8 27  4  0
  9 13  4  0
  9 23  4  0
 10 11  1  0
 11 14  2  0
 11 27  1  0
 12 19  1  0
 12 24  4  0
 13 24  4  0
 15 18  1  0
 16 25  4  0
 16 26  4  0
 17 20  4  0
 17 28  1  0
 18 21  4  0
 21 26  4  0
 22 26  4  0
M  END
$$$$

 Created by Python create_sdf_string function

 28 30  0  0  0  0  0  0  0  0999 V2000
    5.7174   -8.4529   26.7190 C   0  0  0  0  0  0  0  0  0  0  0  0
    0.3974   -7.0711   27.5149 C   0  0  0  0  0  0  0  0  0  0  0  0
    2.5338   -7.6891   16.0102 C   0  0  0  0  0  0  0  0  0  0  0  0
    4.8690   -7.4380   26.4151 C   0  0  0  0  0  0  0  0  0  0  0  0
    2.3021   -5.6726   26.0378 C   0  0  0  0  0  0  0  0  0  0  0  0
    7.0880   -4.6163   27.0010 C   0  0  0  0  0  0  0  0  0  0  0  0
    8.3117   -4.3698   27.4436 C   0  0  0  0  0  0  0  0  0  0  0  0
    1.1339   -5.0515   26.3541 C   0  0  0  0  0  0  0  0  0  0  0  0
    4.8080   -8.0362   16.7101 C   0  0  0  0  0  0  0  0  0  0  0  0
   -1.2173   -3.9294   26.9717 O   0  0  0  0  0  0  0  0  0  0  0  0
   -1.0025   -5.0942   27.4586 C   0  0  0  0  0  0  0  0  0  0  0  0
    2.2474   -8.9123   16.6273 C   0  0  0  0  0  0  0  0  0  0  0  0
    4.4957   -9.2636   17.3041 C   0  0  0  0  0  0  0  0  0  0  0  0
   -1.8070   -5.6086   28.1920 O   0  0  0  0  0  0  0  0  0  0  0  0
   10.4296   -5.1799   28.3140 C   0  0  0  0  0  0  0  0  0  0  0  0
    6.6017   -5.9004   26.9187 C   0  0  0  0  0  0  0  0  0  0  0  0
    2.4761   -6.9940   26.4111 N   0  0  0  0  0  0  0  0  0  0  0  0
    9.1353   -5.4053   27.8239 C   0  0  0  0  0  0  0  0  0  0  0  0
    0.9922   -9.3232   16.5995 O   0  0  0  0  0  0  0  0  0  0  0  0
    1.5232   -7.6869   27.1182 C   0  0  0  0  0  0  0  0  0  0  0  0
    8.6878   -6.6715   27.7262 N   0  0  0  0  0  0  0  0  0  0  0  0
    6.9911   -8.2423   27.1808 C   0  0  0  0  0  0  0  0  0  0  0  0
    3.8436   -7.2758   16.0578 C   0  0  0  0  0  0  0  0  0  0  0  0
    3.1882   -9.7190   17.2566 C   0  0  0  0  0  0  0  0  0  0  0  0
    5.3488   -6.1737   26.5092 C   0  0  0  0  0  0  0  0  0  0  0  0
    7.4567   -6.9464   27.2858 C   0  0  0  0  0  0  0  0  0  0  0  0
    0.1921   -5.7592   27.1123 C   0  0  0  0  0  0  0  0  0  0  0  0
    3.5517   -7.7407   25.9711 C   0  0  0  0  0  0  0  0  0  0  0  0
  1  4  4  0
  1 22  4  0
  2 20  4  0
  2 27  4  0
  3 12  4  0
  3 23  4  0
  4 25  4  0
  4 28  1  0
  5  8  4  0
  5 17  4  0
  6  7  4  0
  6 16  4  0
  7 18  4  0
  8 27  4  0
  9 13  4  0
  9 23  4  0
 10 11  1  0
 11 14  2  0
 11 27  1  0
 12 19  1  0
 12 24  4  0
 13 24  4  0
 15 18  1  0
 16 25  4  0
 16 26  4  0
 17 20  4  0
 17 28  1  0
 18 21  4  0
 21 26  4  0
 22 26  4  0
M  END
$$$$

 Created by Python create_sdf_string function

 28 30  0  0  0  0  0  0  0  0999 V2000
    5.7174   -8.4529   26.7190 C   0  0  0  0  0  0  0  0  0  0  0  0
    0.3974   -7.0711   27.5149 C   0  0  0  0  0  0  0  0  0  0  0  0
    2.5338   -7.6891   16.0102 C   0  0  0  0  0  0  0  0  0  0  0  0
    4.8690   -7.4380   26.4151 C   0  0  0  0  0  0  0  0  0  0  0  0
    2.3021   -5.6726   26.0378 C   0  0  0  0  0  0  0  0  0  0  0  0
    7.0880   -4.6163   27.0010 C   0  0  0  0  0  0  0  0  0  0  0  0
    8.3117   -4.3698   27.4436 C   0  0  0  0  0  0  0  0  0  0  0  0
    1.1339   -5.0515   26.3541 C   0  0  0  0  0  0  0  0  0  0  0  0
    4.8080   -8.0362   16.7101 C   0  0  0  0  0  0  0  0  0  0  0  0
   -1.2173   -3.9294   26.9717 O   0  0  0  0  0  0  0  0  0  0  0  0
   -1.0025   -5.0942   27.4586 C   0  0  0  0  0  0  0  0  0  0  0  0
    2.2474   -8.9123   16.6273 C   0  0  0  0  0  0  0  0  0  0  0  0
    4.4957   -9.2636   17.3041 C   0  0  0  0  0  0  0  0  0  0  0  0
   -1.8070   -5.6086   28.1920 O   0  0  0  0  0  0  0  0  0  0  0  0
   10.4296   -5.1799   28.3140 C   0  0  0  0  0  0  0  0  0  0  0  0
    6.6017   -5.9004   26.9187 C   0  0  0  0  0  0  0  0  0  0  0  0
    2.4761   -6.9940   26.4111 N   0  0  0  0  0  0  0  0  0  0  0  0
    9.1353   -5.4053   27.8239 C   0  0  0  0  0  0  0  0  0  0  0  0
    0.9922   -9.3232   16.5995 O   0  0  0  0  0  0  0  0  0  0  0  0
    1.5232   -7.6869   27.1182 C   0  0  0  0  0  0  0  0  0  0  0  0
    8.6878   -6.6715   27.7262 N   0  0  0  0  0  0  0  0  0  0  0  0
    6.9911   -8.2423   27.1808 C   0  0  0  0  0  0  0  0  0  0  0  0
    3.8436   -7.2758   16.0578 C   0  0  0  0  0  0  0  0  0  0  0  0
    3.1882   -9.7190   17.2566 C   0  0  0  0  0  0  0  0  0  0  0  0
    5.3488   -6.1737   26.5092 C   0  0  0  0  0  0  0  0  0  0  0  0
    7.4567   -6.9464   27.2858 C   0  0  0  0  0  0  0  0  0  0  0  0
    0.1921   -5.7592   27.1123 C   0  0  0  0  0  0  0  0  0  0  0  0
    3.5517   -7.7407   25.9711 C   0  0  0  0  0  0  0  0  0  0  0  0
  1  4  4  0
  1 22  4  0
  2 20  4  0
  2 27  4  0
  3 12  4  0
  3 23  4  0
  4 25  4  0
  4 28  1  0
  5  8  4  0
  5 17  4  0
  6  7  4  0
  6 16  4  0
  7 18  4  0
  8 27  4  0
  9 13  4  0
  9 23  4  0
 10 11  1  0
 11 14  2  0
 11 27  1  0
 12 19  1  0
 12 24  4  0
 13 24  4  0
 15 18  1  0
 16 25  4  0
 16 26  4  0
 17 20  4  0
 17 28  1  0
 18 21  4  0
 21 26  4  0
 22 26  4  0
M  END
$$$$

 Created by Python create_sdf_string function

 28 30  0  0  0  0  0  0  0  0999 V2000
    5.7174   -8.4529   26.7190 C   0  0  0  0  0  0  0  0  0  0  0  0
    0.3974   -7.0711   27.5149 C   0  0  0  0  0  0  0  0  0  0  0  0
    2.5338   -7.6891   16.0102 C   0  0  0  0  0  0  0  0  0  0  0  0
    4.8690   -7.4380   26.4151 C   0  0  0  0  0  0  0  0  0  0  0  0
    2.3021   -5.6726   26.0378 C   0  0  0  0  0  0  0  0  0  0  0  0
    7.0880   -4.6163   27.0010 C   0  0  0  0  0  0  0  0  0  0  0  0
    8.3117   -4.3698   27.4436 C   0  0  0  0  0  0  0  0  0  0  0  0
    1.1339   -5.0515   26.3541 C   0  0  0  0  0  0  0  0  0  0  0  0
    4.8080   -8.0362   16.7101 C   0  0  0  0  0  0  0  0  0  0  0  0
   -1.2173   -3.9294   26.9717 O   0  0  0  0  0  0  0  0  0  0  0  0
   -1.0025   -5.0942   27.4586 C   0  0  0  0  0  0  0  0  0  0  0  0
    2.2474   -8.9123   16.6273 C   0  0  0  0  0  0  0  0  0  0  0  0
    4.4957   -9.2636   17.3041 C   0  0  0  0  0  0  0  0  0  0  0  0
   -1.8070   -5.6086   28.1920 O   0  0  0  0  0  0  0  0  0  0  0  0
   10.4296   -5.1799   28.3140 C   0  0  0  0  0  0  0  0  0  0  0  0
    6.6017   -5.9004   26.9187 C   0  0  0  0  0  0  0  0  0  0  0  0
    2.4761   -6.9940   26.4111 N   0  0  0  0  0  0  0  0  0  0  0  0
    9.1353   -5.4053   27.8239 C   0  0  0  0  0  0  0  0  0  0  0  0
    0.9922   -9.3232   16.5995 O   0  0  0  0  0  0  0  0  0  0  0  0
    1.5232   -7.6869   27.1182 C   0  0  0  0  0  0  0  0  0  0  0  0
    8.6878   -6.6715   27.7262 N   0  0  0  0  0  0  0  0  0  0  0  0
    6.9911   -8.2423   27.1808 C   0  0  0  0  0  0  0  0  0  0  0  0
    3.8436   -7.2758   16.0578 C   0  0  0  0  0  0  0  0  0  0  0  0
    3.1882   -9.7190   17.2566 C   0  0  0  0  0  0  0  0  0  0  0  0
    5.3488   -6.1737   26.5092 C   0  0  0  0  0  0  0  0  0  0  0  0
    7.4567   -6.9464   27.2858 C   0  0  0  0  0  0  0  0  0  0  0  0
    0.1921   -5.7592   27.1123 C   0  0  0  0  0  0  0  0  0  0  0  0
    3.5517   -7.7407   25.9711 C   0  0  0  0  0  0  0  0  0  0  0  0
  1  4  4  0
  1 22  4  0
  2 20  4  0
  2 27  4  0
  3 12  4  0
  3 23  4  0
  4 25  4  0
  4 28  1  0
  5  8  4  0
  5 17  4  0
  6  7  4  0
  6 16  4  0
  7 18  4  0
  8 27  4  0
  9 13  4  0
  9 23  4  0
 10 11  1  0
 11 14  2  0
 11 27  1  0
 12 19  1  0
 12 24  4  0
 13 24  4  0
 15 18  1  0
 16 25  4  0
 16 26  4  0
 17 20  4  0
 17 28  1  0
 18 21  4  0
 21 26  4  0
 22 26  4  0
M  END
$$$$

 Created by Python create_sdf_string function

 28 30  0  0  0  0  0  0  0  0999 V2000
    5.7174   -8.4529   26.7190 C   0  0  0  0  0  0  0  0  0  0  0  0
    0.3974   -7.0711   27.5149 C   0  0  0  0  0  0  0  0  0  0  0  0
    2.5338   -7.6891   16.0102 C   0  0  0  0  0  0  0  0  0  0  0  0
    4.8690   -7.4380   26.4151 C   0  0  0  0  0  0  0  0  0  0  0  0
    2.3021   -5.6726   26.0378 C   0  0  0  0  0  0  0  0  0  0  0  0
    7.0880   -4.6163   27.0010 C   0  0  0  0  0  0  0  0  0  0  0  0
    8.3117   -4.3698   27.4436 C   0  0  0  0  0  0  0  0  0  0  0  0
    1.1339   -5.0515   26.3541 C   0  0  0  0  0  0  0  0  0  0  0  0
    4.8080   -8.0362   16.7101 C   0  0  0  0  0  0  0  0  0  0  0  0
   -1.2173   -3.9294   26.9717 O   0  0  0  0  0  0  0  0  0  0  0  0
   -1.0025   -5.0942   27.4586 C   0  0  0  0  0  0  0  0  0  0  0  0
    2.2474   -8.9123   16.6273 C   0  0  0  0  0  0  0  0  0  0  0  0
    4.4957   -9.2636   17.3041 C   0  0  0  0  0  0  0  0  0  0  0  0
   -1.8070   -5.6086   28.1920 O   0  0  0  0  0  0  0  0  0  0  0  0
   10.4296   -5.1799   28.3140 C   0  0  0  0  0  0  0  0  0  0  0  0
    6.6017   -5.9004   26.9187 C   0  0  0  0  0  0  0  0  0  0  0  0
    2.4761   -6.9940   26.4111 N   0  0  0  0  0  0  0  0  0  0  0  0
    9.1353   -5.4053   27.8239 C   0  0  0  0  0  0  0  0  0  0  0  0
    0.9922   -9.3232   16.5995 O   0  0  0  0  0  0  0  0  0  0  0  0
    1.5232   -7.6869   27.1182 C   0  0  0  0  0  0  0  0  0  0  0  0
    8.6878   -6.6715   27.7262 N   0  0  0  0  0  0  0  0  0  0  0  0
    6.9911   -8.2423   27.1808 C   0  0  0  0  0  0  0  0  0  0  0  0
    3.8436   -7.2758   16.0578 C   0  0  0  0  0  0  0  0  0  0  0  0
    3.1882   -9.7190   17.2566 C   0  0  0  0  0  0  0  0  0  0  0  0
    5.3488   -6.1737   26.5092 C   0  0  0  0  0  0  0  0  0  0  0  0
    7.4567   -6.9464   27.2858 C   0  0  0  0  0  0  0  0  0  0  0  0
    0.1921   -5.7592   27.1123 C   0  0  0  0  0  0  0  0  0  0  0  0
    3.5517   -7.7407   25.9711 C   0  0  0  0  0  0  0  0  0  0  0  0
  1  4  4  0
  1 22  4  0
  2 20  4  0
  2 27  4  0
  3 12  4  0
  3 23  4  0
  4 25  4  0
  4 28  1  0
  5  8  4  0
  5 17  4  0
  6  7  4  0
  6 16  4  0
  7 18  4  0
  8 27  4  0
  9 13  4  0
  9 23  4  0
 10 11  1  0
 11 14  2  0
 11 27  1  0
 12 19  1  0
 12 24  4  0
 13 24  4  0
 15 18  1  0
 16 25  4  0
 16 26  4  0
 17 20  4  0
 17 28  1  0
 18 21  4  0
 21 26  4  0
 22 26  4  0
M  END
$$$$

 Created by Python create_sdf_string function

 28 30  0  0  0  0  0  0  0  0999 V2000
    5.7174   -8.4529   26.7190 C   0  0  0  0  0  0  0  0  0  0  0  0
    0.3974   -7.0711   27.5149 C   0  0  0  0  0  0  0  0  0  0  0  0
    2.5338   -7.6891   16.0102 C   0  0  0  0  0  0  0  0  0  0  0  0
    4.8690   -7.4380   26.4151 C   0  0  0  0  0  0  0  0  0  0  0  0
    2.3021   -5.6726   26.0378 C   0  0  0  0  0  0  0  0  0  0  0  0
    7.0880   -4.6163   27.0010 C   0  0  0  0  0  0  0  0  0  0  0  0
    8.3117   -4.3698   27.4436 C   0  0  0  0  0  0  0  0  0  0  0  0
    1.1339   -5.0515   26.3541 C   0  0  0  0  0  0  0  0  0  0  0  0
    4.8080   -8.0362   16.7101 C   0  0  0  0  0  0  0  0  0  0  0  0
   -1.2173   -3.9294   26.9717 O   0  0  0  0  0  0  0  0  0  0  0  0
   -1.0025   -5.0942   27.4586 C   0  0  0  0  0  0  0  0  0  0  0  0
    2.2474   -8.9123   16.6273 C   0  0  0  0  0  0  0  0  0  0  0  0
    4.4957   -9.2636   17.3041 C   0  0  0  0  0  0  0  0  0  0  0  0
   -1.8070   -5.6086   28.1920 O   0  0  0  0  0  0  0  0  0  0  0  0
   10.4296   -5.1799   28.3140 C   0  0  0  0  0  0  0  0  0  0  0  0
    6.6017   -5.9004   26.9187 C   0  0  0  0  0  0  0  0  0  0  0  0
    2.4761   -6.9940   26.4111 N   0  0  0  0  0  0  0  0  0  0  0  0
    9.1353   -5.4053   27.8239 C   0  0  0  0  0  0  0  0  0  0  0  0
    0.9922   -9.3232   16.5995 O   0  0  0  0  0  0  0  0  0  0  0  0
    1.5232   -7.6869   27.1182 C   0  0  0  0  0  0  0  0  0  0  0  0
    8.6878   -6.6715   27.7262 N   0  0  0  0  0  0  0  0  0  0  0  0
    6.9911   -8.2423   27.1808 C   0  0  0  0  0  0  0  0  0  0  0  0
    3.8436   -7.2758   16.0578 C   0  0  0  0  0  0  0  0  0  0  0  0
    3.1882   -9.7190   17.2566 C   0  0  0  0  0  0  0  0  0  0  0  0
    5.3488   -6.1737   26.5092 C   0  0  0  0  0  0  0  0  0  0  0  0
    7.4567   -6.9464   27.2858 C   0  0  0  0  0  0  0  0  0  0  0  0
    0.1921   -5.7592   27.1123 C   0  0  0  0  0  0  0  0  0  0  0  0
    3.5517   -7.7407   25.9711 C   0  0  0  0  0  0  0  0  0  0  0  0
  1  4  4  0
  1 22  4  0
  2 20  4  0
  2 27  4  0
  3 12  4  0
  3 23  4  0
  4 25  4  0
  4 28  1  0
  5  8  4  0
  5 17  4  0
  6  7  4  0
  6 16  4  0
  7 18  4  0
  8 27  4  0
  9 13  4  0
  9 23  4  0
 10 11  1  0
 11 14  2  0
 11 27  1  0
 12 19  1  0
 12 24  4  0
 13 24  4  0
 15 18  1  0
 16 25  4  0
 16 26  4  0
 17 20  4  0
 17 28  1  0
 18 21  4  0
 21 26  4  0
 22 26  4  0
M  END
$$$$

 Created by Python create_sdf_string function

 28 30  0  0  0  0  0  0  0  0999 V2000
    5.7174   -8.4529   26.7190 C   0  0  0  0  0  0  0  0  0  0  0  0
    0.3974   -7.0711   27.5149 C   0  0  0  0  0  0  0  0  0  0  0  0
    2.5338   -7.6891   16.0102 C   0  0  0  0  0  0  0  0  0  0  0  0
    4.8690   -7.4380   26.4151 C   0  0  0  0  0  0  0  0  0  0  0  0
    2.3021   -5.6726   26.0378 C   0  0  0  0  0  0  0  0  0  0  0  0
    7.0880   -4.6163   27.0010 C   0  0  0  0  0  0  0  0  0  0  0  0
    8.3117   -4.3698   27.4436 C   0  0  0  0  0  0  0  0  0  0  0  0
    1.1339   -5.0515   26.3541 C   0  0  0  0  0  0  0  0  0  0  0  0
    4.8080   -8.0362   16.7101 C   0  0  0  0  0  0  0  0  0  0  0  0
   -1.2173   -3.9294   26.9717 O   0  0  0  0  0  0  0  0  0  0  0  0
   -1.0025   -5.0942   27.4586 C   0  0  0  0  0  0  0  0  0  0  0  0
    2.2474   -8.9123   16.6273 C   0  0  0  0  0  0  0  0  0  0  0  0
    4.4957   -9.2636   17.3041 C   0  0  0  0  0  0  0  0  0  0  0  0
   -1.8070   -5.6086   28.1920 O   0  0  0  0  0  0  0  0  0  0  0  0
   10.4296   -5.1799   28.3140 C   0  0  0  0  0  0  0  0  0  0  0  0
    6.6017   -5.9004   26.9187 C   0  0  0  0  0  0  0  0  0  0  0  0
    2.4761   -6.9940   26.4111 N   0  0  0  0  0  0  0  0  0  0  0  0
    9.1353   -5.4053   27.8239 C   0  0  0  0  0  0  0  0  0  0  0  0
    0.9922   -9.3232   16.5995 O   0  0  0  0  0  0  0  0  0  0  0  0
    1.5232   -7.6869   27.1182 C   0  0  0  0  0  0  0  0  0  0  0  0
    8.6878   -6.6715   27.7262 N   0  0  0  0  0  0  0  0  0  0  0  0
    6.9911   -8.2423   27.1808 C   0  0  0  0  0  0  0  0  0  0  0  0
    3.8436   -7.2758   16.0578 C   0  0  0  0  0  0  0  0  0  0  0  0
    3.1882   -9.7190   17.2566 C   0  0  0  0  0  0  0  0  0  0  0  0
    5.3488   -6.1737   26.5092 C   0  0  0  0  0  0  0  0  0  0  0  0
    7.4567   -6.9464   27.2858 C   0  0  0  0  0  0  0  0  0  0  0  0
    0.1921   -5.7592   27.1123 C   0  0  0  0  0  0  0  0  0  0  0  0
    3.5517   -7.7407   25.9711 C   0  0  0  0  0  0  0  0  0  0  0  0
  1  4  4  0
  1 22  4  0
  2 20  4  0
  2 27  4  0
  3 12  4  0
  3 23  4  0
  4 25  4  0
  4 28  1  0
  5  8  4  0
  5 17  4  0
  6  7  4  0
  6 16  4  0
  7 18  4  0
  8 27  4  0
  9 13  4  0
  9 23  4  0
 10 11  1  0
 11 14  2  0
 11 27  1  0
 12 19  1  0
 12 24  4  0
 13 24  4  0
 15 18  1  0
 16 25  4  0
 16 26  4  0
 17 20  4  0
 17 28  1  0
 18 21  4  0
 21 26  4  0
 22 26  4  0
M  END
$$$$

 Created by Python create_sdf_string function

 28 30  0  0  0  0  0  0  0  0999 V2000
    5.7174   -8.4529   26.7190 C   0  0  0  0  0  0  0  0  0  0  0  0
    0.3974   -7.0711   27.5149 C   0  0  0  0  0  0  0  0  0  0  0  0
    2.5338   -7.6891   16.0102 C   0  0  0  0  0  0  0  0  0  0  0  0
    4.8690   -7.4380   26.4151 C   0  0  0  0  0  0  0  0  0  0  0  0
    2.3021   -5.6726   26.0378 C   0  0  0  0  0  0  0  0  0  0  0  0
    7.0880   -4.6163   27.0010 C   0  0  0  0  0  0  0  0  0  0  0  0
    8.3117   -4.3698   27.4436 C   0  0  0  0  0  0  0  0  0  0  0  0
    1.1339   -5.0515   26.3541 C   0  0  0  0  0  0  0  0  0  0  0  0
    4.8080   -8.0362   16.7101 C   0  0  0  0  0  0  0  0  0  0  0  0
   -1.2173   -3.9294   26.9717 O   0  0  0  0  0  0  0  0  0  0  0  0
   -1.0025   -5.0942   27.4586 C   0  0  0  0  0  0  0  0  0  0  0  0
    2.2474   -8.9123   16.6273 C   0  0  0  0  0  0  0  0  0  0  0  0
    4.4957   -9.2636   17.3041 C   0  0  0  0  0  0  0  0  0  0  0  0
   -1.8070   -5.6086   28.1920 O   0  0  0  0  0  0  0  0  0  0  0  0
   10.4296   -5.1799   28.3140 C   0  0  0  0  0  0  0  0  0  0  0  0
    6.6017   -5.9004   26.9187 C   0  0  0  0  0  0  0  0  0  0  0  0
    2.4761   -6.9940   26.4111 N   0  0  0  0  0  0  0  0  0  0  0  0
    9.1353   -5.4053   27.8239 C   0  0  0  0  0  0  0  0  0  0  0  0
    0.9922   -9.3232   16.5995 O   0  0  0  0  0  0  0  0  0  0  0  0
    1.5232   -7.6869   27.1182 C   0  0  0  0  0  0  0  0  0  0  0  0
    8.6878   -6.6715   27.7262 N   0  0  0  0  0  0  0  0  0  0  0  0
    6.9911   -8.2423   27.1808 C   0  0  0  0  0  0  0  0  0  0  0  0
    3.8436   -7.2758   16.0578 C   0  0  0  0  0  0  0  0  0  0  0  0
    3.1882   -9.7190   17.2566 C   0  0  0  0  0  0  0  0  0  0  0  0
    5.3488   -6.1737   26.5092 C   0  0  0  0  0  0  0  0  0  0  0  0
    7.4567   -6.9464   27.2858 C   0  0  0  0  0  0  0  0  0  0  0  0
    0.1921   -5.7592   27.1123 C   0  0  0  0  0  0  0  0  0  0  0  0
    3.5517   -7.7407   25.9711 C   0  0  0  0  0  0  0  0  0  0  0  0
  1  4  4  0
  1 22  4  0
  2 20  4  0
  2 27  4  0
  3 12  4  0
  3 23  4  0
  4 25  4  0
  4 28  1  0
  5  8  4  0
  5 17  4  0
  6  7  4  0
  6 16  4  0
  7 18  4  0
  8 27  4  0
  9 13  4  0
  9 23  4  0
 10 11  1  0
 11 14  2  0
 11 27  1  0
 12 19  1  0
 12 24  4  0
 13 24  4  0
 15 18  1  0
 16 25  4  0
 16 26  4  0
 17 20  4  0
 17 28  1  0
 18 21  4  0
 21 26  4  0
 22 26  4  0
M  END
$$$$

 Created by Python create_sdf_string function

 28 30  0  0  0  0  0  0  0  0999 V2000
    5.7174   -8.4529   26.7190 C   0  0  0  0  0  0  0  0  0  0  0  0
    0.3974   -7.0711   27.5149 C   0  0  0  0  0  0  0  0  0  0  0  0
    2.5338   -7.6891   16.0102 C   0  0  0  0  0  0  0  0  0  0  0  0
    4.8690   -7.4380   26.4151 C   0  0  0  0  0  0  0  0  0  0  0  0
    2.3021   -5.6726   26.0378 C   0  0  0  0  0  0  0  0  0  0  0  0
    7.0880   -4.6163   27.0010 C   0  0  0  0  0  0  0  0  0  0  0  0
    8.3117   -4.3698   27.4436 C   0  0  0  0  0  0  0  0  0  0  0  0
    1.1339   -5.0515   26.3541 C   0  0  0  0  0  0  0  0  0  0  0  0
    4.8080   -8.0362   16.7101 C   0  0  0  0  0  0  0  0  0  0  0  0
   -1.2173   -3.9294   26.9717 O   0  0  0  0  0  0  0  0  0  0  0  0
   -1.0025   -5.0942   27.4586 C   0  0  0  0  0  0  0  0  0  0  0  0
    2.2474   -8.9123   16.6273 C   0  0  0  0  0  0  0  0  0  0  0  0
    4.4957   -9.2636   17.3041 C   0  0  0  0  0  0  0  0  0  0  0  0
   -1.8070   -5.6086   28.1920 O   0  0  0  0  0  0  0  0  0  0  0  0
   10.4296   -5.1799   28.3140 C   0  0  0  0  0  0  0  0  0  0  0  0
    6.6017   -5.9004   26.9187 C   0  0  0  0  0  0  0  0  0  0  0  0
    2.4761   -6.9940   26.4111 N   0  0  0  0  0  0  0  0  0  0  0  0
    9.1353   -5.4053   27.8239 C   0  0  0  0  0  0  0  0  0  0  0  0
    0.9922   -9.3232   16.5995 O   0  0  0  0  0  0  0  0  0  0  0  0
    1.5232   -7.6869   27.1182 C   0  0  0  0  0  0  0  0  0  0  0  0
    8.6878   -6.6715   27.7262 N   0  0  0  0  0  0  0  0  0  0  0  0
    6.9911   -8.2423   27.1808 C   0  0  0  0  0  0  0  0  0  0  0  0
    3.8436   -7.2758   16.0578 C   0  0  0  0  0  0  0  0  0  0  0  0
    3.1882   -9.7190   17.2566 C   0  0  0  0  0  0  0  0  0  0  0  0
    5.3488   -6.1737   26.5092 C   0  0  0  0  0  0  0  0  0  0  0  0
    7.4567   -6.9464   27.2858 C   0  0  0  0  0  0  0  0  0  0  0  0
    0.1921   -5.7592   27.1123 C   0  0  0  0  0  0  0  0  0  0  0  0
    3.5517   -7.7407   25.9711 C   0  0  0  0  0  0  0  0  0  0  0  0
  1  4  4  0
  1 22  4  0
  2 20  4  0
  2 27  4  0
  3 12  4  0
  3 23  4  0
  4 25  4  0
  4 28  1  0
  5  8  4  0
  5 17  4  0
  6  7  4  0
  6 16  4  0
  7 18  4  0
  8 27  4  0
  9 13  4  0
  9 23  4  0
 10 11  1  0
 11 14  2  0
 11 27  1  0
 12 19  1  0
 12 24  4  0
 13 24  4  0
 15 18  1  0
 16 25  4  0
 16 26  4  0
 17 20  4  0
 17 28  1  0
 18 21  4  0
 21 26  4  0
 22 26  4  0
M  END
$$$$

 Created by Python create_sdf_string function

 28 30  0  0  0  0  0  0  0  0999 V2000
    5.7174   -8.4529   26.7190 C   0  0  0  0  0  0  0  0  0  0  0  0
    0.3974   -7.0711   27.5149 C   0  0  0  0  0  0  0  0  0  0  0  0
    2.5338   -7.6891   16.0102 C   0  0  0  0  0  0  0  0  0  0  0  0
    4.8690   -7.4380   26.4151 C   0  0  0  0  0  0  0  0  0  0  0  0
    2.3021   -5.6726   26.0378 C   0  0  0  0  0  0  0  0  0  0  0  0
    7.0880   -4.6163   27.0010 C   0  0  0  0  0  0  0  0  0  0  0  0
    8.3117   -4.3698   27.4436 C   0  0  0  0  0  0  0  0  0  0  0  0
    1.1339   -5.0515   26.3541 C   0  0  0  0  0  0  0  0  0  0  0  0
    4.8080   -8.0362   16.7101 C   0  0  0  0  0  0  0  0  0  0  0  0
   -1.2173   -3.9294   26.9717 O   0  0  0  0  0  0  0  0  0  0  0  0
   -1.0025   -5.0942   27.4586 C   0  0  0  0  0  0  0  0  0  0  0  0
    2.2474   -8.9123   16.6273 C   0  0  0  0  0  0  0  0  0  0  0  0
    4.4957   -9.2636   17.3041 C   0  0  0  0  0  0  0  0  0  0  0  0
   -1.8070   -5.6086   28.1920 O   0  0  0  0  0  0  0  0  0  0  0  0
   10.4296   -5.1799   28.3140 C   0  0  0  0  0  0  0  0  0  0  0  0
    6.6017   -5.9004   26.9187 C   0  0  0  0  0  0  0  0  0  0  0  0
    2.4761   -6.9940   26.4111 N   0  0  0  0  0  0  0  0  0  0  0  0
    9.1353   -5.4053   27.8239 C   0  0  0  0  0  0  0  0  0  0  0  0
    0.9922   -9.3232   16.5995 O   0  0  0  0  0  0  0  0  0  0  0  0
    1.5232   -7.6869   27.1182 C   0  0  0  0  0  0  0  0  0  0  0  0
    8.6878   -6.6715   27.7262 N   0  0  0  0  0  0  0  0  0  0  0  0
    6.9911   -8.2423   27.1808 C   0  0  0  0  0  0  0  0  0  0  0  0
    3.8436   -7.2758   16.0578 C   0  0  0  0  0  0  0  0  0  0  0  0
    3.1882   -9.7190   17.2566 C   0  0  0  0  0  0  0  0  0  0  0  0
    5.3488   -6.1737   26.5092 C   0  0  0  0  0  0  0  0  0  0  0  0
    7.4567   -6.9464   27.2858 C   0  0  0  0  0  0  0  0  0  0  0  0
    0.1921   -5.7592   27.1123 C   0  0  0  0  0  0  0  0  0  0  0  0
    3.5517   -7.7407   25.9711 C   0  0  0  0  0  0  0  0  0  0  0  0
  1  4  4  0
  1 22  4  0
  2 20  4  0
  2 27  4  0
  3 12  4  0
  3 23  4  0
  4 25  4  0
  4 28  1  0
  5  8  4  0
  5 17  4  0
  6  7  4  0
  6 16  4  0
  7 18  4  0
  8 27  4  0
  9 13  4  0
  9 23  4  0
 10 11  1  0
 11 14  2  0
 11 27  1  0
 12 19  1  0
 12 24  4  0
 13 24  4  0
 15 18  1  0
 16 25  4  0
 16 26  4  0
 17 20  4  0
 17 28  1  0
 18 21  4  0
 21 26  4  0
 22 26  4  0
M  END
$$$$

 Created by Python create_sdf_string function

 28 30  0  0  0  0  0  0  0  0999 V2000
    5.7174   -8.4529   26.7190 C   0  0  0  0  0  0  0  0  0  0  0  0
    0.3974   -7.0711   27.5149 C   0  0  0  0  0  0  0  0  0  0  0  0
    2.5338   -7.6891   16.0102 C   0  0  0  0  0  0  0  0  0  0  0  0
    4.8690   -7.4380   26.4151 C   0  0  0  0  0  0  0  0  0  0  0  0
    2.3021   -5.6726   26.0378 C   0  0  0  0  0  0  0  0  0  0  0  0
    7.0880   -4.6163   27.0010 C   0  0  0  0  0  0  0  0  0  0  0  0
    8.3117   -4.3698   27.4436 C   0  0  0  0  0  0  0  0  0  0  0  0
    1.1339   -5.0515   26.3541 C   0  0  0  0  0  0  0  0  0  0  0  0
    4.8080   -8.0362   16.7101 C   0  0  0  0  0  0  0  0  0  0  0  0
   -1.2173   -3.9294   26.9717 O   0  0  0  0  0  0  0  0  0  0  0  0
   -1.0025   -5.0942   27.4586 C   0  0  0  0  0  0  0  0  0  0  0  0
    2.2474   -8.9123   16.6273 C   0  0  0  0  0  0  0  0  0  0  0  0
    4.4957   -9.2636   17.3041 C   0  0  0  0  0  0  0  0  0  0  0  0
   -1.8070   -5.6086   28.1920 O   0  0  0  0  0  0  0  0  0  0  0  0
   10.4296   -5.1799   28.3140 C   0  0  0  0  0  0  0  0  0  0  0  0
    6.6017   -5.9004   26.9187 C   0  0  0  0  0  0  0  0  0  0  0  0
    2.4761   -6.9940   26.4111 N   0  0  0  0  0  0  0  0  0  0  0  0
    9.1353   -5.4053   27.8239 C   0  0  0  0  0  0  0  0  0  0  0  0
    0.9922   -9.3232   16.5995 O   0  0  0  0  0  0  0  0  0  0  0  0
    1.5232   -7.6869   27.1182 C   0  0  0  0  0  0  0  0  0  0  0  0
    8.6878   -6.6715   27.7262 N   0  0  0  0  0  0  0  0  0  0  0  0
    6.9911   -8.2423   27.1808 C   0  0  0  0  0  0  0  0  0  0  0  0
    3.8436   -7.2758   16.0578 C   0  0  0  0  0  0  0  0  0  0  0  0
    3.1882   -9.7190   17.2566 C   0  0  0  0  0  0  0  0  0  0  0  0
    5.3488   -6.1737   26.5092 C   0  0  0  0  0  0  0  0  0  0  0  0
    7.4567   -6.9464   27.2858 C   0  0  0  0  0  0  0  0  0  0  0  0
    0.1921   -5.7592   27.1123 C   0  0  0  0  0  0  0  0  0  0  0  0
    3.5517   -7.7407   25.9711 C   0  0  0  0  0  0  0  0  0  0  0  0
  1  4  4  0
  1 22  4  0
  2 20  4  0
  2 27  4  0
  3 12  4  0
  3 23  4  0
  4 25  4  0
  4 28  1  0
  5  8  4  0
  5 17  4  0
  6  7  4  0
  6 16  4  0
  7 18  4  0
  8 27  4  0
  9 13  4  0
  9 23  4  0
 10 11  1  0
 11 14  2  0
 11 27  1  0
 12 19  1  0
 12 24  4  0
 13 24  4  0
 15 18  1  0
 16 25  4  0
 16 26  4  0
 17 20  4  0
 17 28  1  0
 18 21  4  0
 21 26  4  0
 22 26  4  0
M  END
$$$$

 Created by Python create_sdf_string function

 28 30  0  0  0  0  0  0  0  0999 V2000
    5.7174   -8.4529   26.7190 C   0  0  0  0  0  0  0  0  0  0  0  0
    0.3974   -7.0711   27.5149 C   0  0  0  0  0  0  0  0  0  0  0  0
    2.5338   -7.6891   16.0102 C   0  0  0  0  0  0  0  0  0  0  0  0
    4.8690   -7.4380   26.4151 C   0  0  0  0  0  0  0  0  0  0  0  0
    2.3021   -5.6726   26.0378 C   0  0  0  0  0  0  0  0  0  0  0  0
    7.0880   -4.6163   27.0010 C   0  0  0  0  0  0  0  0  0  0  0  0
    8.3117   -4.3698   27.4436 C   0  0  0  0  0  0  0  0  0  0  0  0
    1.1339   -5.0515   26.3541 C   0  0  0  0  0  0  0  0  0  0  0  0
    4.8080   -8.0362   16.7101 C   0  0  0  0  0  0  0  0  0  0  0  0
   -1.2173   -3.9294   26.9717 O   0  0  0  0  0  0  0  0  0  0  0  0
   -1.0025   -5.0942   27.4586 C   0  0  0  0  0  0  0  0  0  0  0  0
    2.2474   -8.9123   16.6273 C   0  0  0  0  0  0  0  0  0  0  0  0
    4.4957   -9.2636   17.3041 C   0  0  0  0  0  0  0  0  0  0  0  0
   -1.8070   -5.6086   28.1920 O   0  0  0  0  0  0  0  0  0  0  0  0
   10.4296   -5.1799   28.3140 C   0  0  0  0  0  0  0  0  0  0  0  0
    6.6017   -5.9004   26.9187 C   0  0  0  0  0  0  0  0  0  0  0  0
    2.4761   -6.9940   26.4111 N   0  0  0  0  0  0  0  0  0  0  0  0
    9.1353   -5.4053   27.8239 C   0  0  0  0  0  0  0  0  0  0  0  0
    0.9922   -9.3232   16.5995 O   0  0  0  0  0  0  0  0  0  0  0  0
    1.5232   -7.6869   27.1182 C   0  0  0  0  0  0  0  0  0  0  0  0
    8.6878   -6.6715   27.7262 N   0  0  0  0  0  0  0  0  0  0  0  0
    6.9911   -8.2423   27.1808 C   0  0  0  0  0  0  0  0  0  0  0  0
    3.8436   -7.2758   16.0578 C   0  0  0  0  0  0  0  0  0  0  0  0
    3.1882   -9.7190   17.2566 C   0  0  0  0  0  0  0  0  0  0  0  0
    5.3488   -6.1737   26.5092 C   0  0  0  0  0  0  0  0  0  0  0  0
    7.4567   -6.9464   27.2858 C   0  0  0  0  0  0  0  0  0  0  0  0
    0.1921   -5.7592   27.1123 C   0  0  0  0  0  0  0  0  0  0  0  0
    3.5517   -7.7407   25.9711 C   0  0  0  0  0  0  0  0  0  0  0  0
  1  4  4  0
  1 22  4  0
  2 20  4  0
  2 27  4  0
  3 12  4  0
  3 23  4  0
  4 25  4  0
  4 28  1  0
  5  8  4  0
  5 17  4  0
  6  7  4  0
  6 16  4  0
  7 18  4  0
  8 27  4  0
  9 13  4  0
  9 23  4  0
 10 11  1  0
 11 14  2  0
 11 27  1  0
 12 19  1  0
 12 24  4  0
 13 24  4  0
 15 18  1  0
 16 25  4  0
 16 26  4  0
 17 20  4  0
 17 28  1  0
 18 21  4  0
 21 26  4  0
 22 26  4  0
M  END
$$$$

 Created by Python create_sdf_string function

 28 30  0  0  0  0  0  0  0  0999 V2000
    5.7174   -8.4529   26.7190 C   0  0  0  0  0  0  0  0  0  0  0  0
    0.3974   -7.0711   27.5149 C   0  0  0  0  0  0  0  0  0  0  0  0
    2.5338   -7.6891   16.0102 C   0  0  0  0  0  0  0  0  0  0  0  0
    4.8690   -7.4380   26.4151 C   0  0  0  0  0  0  0  0  0  0  0  0
    2.3021   -5.6726   26.0378 C   0  0  0  0  0  0  0  0  0  0  0  0
    7.0880   -4.6163   27.0010 C   0  0  0  0  0  0  0  0  0  0  0  0
    8.3117   -4.3698   27.4436 C   0  0  0  0  0  0  0  0  0  0  0  0
    1.1339   -5.0515   26.3541 C   0  0  0  0  0  0  0  0  0  0  0  0
    4.8080   -8.0362   16.7101 C   0  0  0  0  0  0  0  0  0  0  0  0
   -1.2173   -3.9294   26.9717 O   0  0  0  0  0  0  0  0  0  0  0  0
   -1.0025   -5.0942   27.4586 C   0  0  0  0  0  0  0  0  0  0  0  0
    2.2474   -8.9123   16.6273 C   0  0  0  0  0  0  0  0  0  0  0  0
    4.4957   -9.2636   17.3041 C   0  0  0  0  0  0  0  0  0  0  0  0
   -1.8070   -5.6086   28.1920 O   0  0  0  0  0  0  0  0  0  0  0  0
   10.4296   -5.1799   28.3140 C   0  0  0  0  0  0  0  0  0  0  0  0
    6.6017   -5.9004   26.9187 C   0  0  0  0  0  0  0  0  0  0  0  0
    2.4761   -6.9940   26.4111 N   0  0  0  0  0  0  0  0  0  0  0  0
    9.1353   -5.4053   27.8239 C   0  0  0  0  0  0  0  0  0  0  0  0
    0.9922   -9.3232   16.5995 O   0  0  0  0  0  0  0  0  0  0  0  0
    1.5232   -7.6869   27.1182 C   0  0  0  0  0  0  0  0  0  0  0  0
    8.6878   -6.6715   27.7262 N   0  0  0  0  0  0  0  0  0  0  0  0
    6.9911   -8.2423   27.1808 C   0  0  0  0  0  0  0  0  0  0  0  0
    3.8436   -7.2758   16.0578 C   0  0  0  0  0  0  0  0  0  0  0  0
    3.1882   -9.7190   17.2566 C   0  0  0  0  0  0  0  0  0  0  0  0
    5.3488   -6.1737   26.5092 C   0  0  0  0  0  0  0  0  0  0  0  0
    7.4567   -6.9464   27.2858 C   0  0  0  0  0  0  0  0  0  0  0  0
    0.1921   -5.7592   27.1123 C   0  0  0  0  0  0  0  0  0  0  0  0
    3.5517   -7.7407   25.9711 C   0  0  0  0  0  0  0  0  0  0  0  0
  1  4  4  0
  1 22  4  0
  2 20  4  0
  2 27  4  0
  3 12  4  0
  3 23  4  0
  4 25  4  0
  4 28  1  0
  5  8  4  0
  5 17  4  0
  6  7  4  0
  6 16  4  0
  7 18  4  0
  8 27  4  0
  9 13  4  0
  9 23  4  0
 10 11  1  0
 11 14  2  0
 11 27  1  0
 12 19  1  0
 12 24  4  0
 13 24  4  0
 15 18  1  0
 16 25  4  0
 16 26  4  0
 17 20  4  0
 17 28  1  0
 18 21  4  0
 21 26  4  0
 22 26  4  0
M  END
$$$$

 Created by Python create_sdf_string function

 28 30  0  0  0  0  0  0  0  0999 V2000
    5.7174   -8.4529   26.7190 C   0  0  0  0  0  0  0  0  0  0  0  0
    0.3974   -7.0711   27.5149 C   0  0  0  0  0  0  0  0  0  0  0  0
    2.5338   -7.6891   16.0102 C   0  0  0  0  0  0  0  0  0  0  0  0
    4.8690   -7.4380   26.4151 C   0  0  0  0  0  0  0  0  0  0  0  0
    2.3021   -5.6726   26.0378 C   0  0  0  0  0  0  0  0  0  0  0  0
    7.0880   -4.6163   27.0010 C   0  0  0  0  0  0  0  0  0  0  0  0
    8.3117   -4.3698   27.4436 C   0  0  0  0  0  0  0  0  0  0  0  0
    1.1339   -5.0515   26.3541 C   0  0  0  0  0  0  0  0  0  0  0  0
    4.8080   -8.0362   16.7101 C   0  0  0  0  0  0  0  0  0  0  0  0
   -1.2173   -3.9294   26.9717 O   0  0  0  0  0  0  0  0  0  0  0  0
   -1.0025   -5.0942   27.4586 C   0  0  0  0  0  0  0  0  0  0  0  0
    2.2474   -8.9123   16.6273 C   0  0  0  0  0  0  0  0  0  0  0  0
    4.4957   -9.2636   17.3041 C   0  0  0  0  0  0  0  0  0  0  0  0
   -1.8070   -5.6086   28.1920 O   0  0  0  0  0  0  0  0  0  0  0  0
   10.4296   -5.1799   28.3140 C   0  0  0  0  0  0  0  0  0  0  0  0
    6.6017   -5.9004   26.9187 C   0  0  0  0  0  0  0  0  0  0  0  0
    2.4761   -6.9940   26.4111 N   0  0  0  0  0  0  0  0  0  0  0  0
    9.1353   -5.4053   27.8239 C   0  0  0  0  0  0  0  0  0  0  0  0
    0.9922   -9.3232   16.5995 O   0  0  0  0  0  0  0  0  0  0  0  0
    1.5232   -7.6869   27.1182 C   0  0  0  0  0  0  0  0  0  0  0  0
    8.6878   -6.6715   27.7262 N   0  0  0  0  0  0  0  0  0  0  0  0
    6.9911   -8.2423   27.1808 C   0  0  0  0  0  0  0  0  0  0  0  0
    3.8436   -7.2758   16.0578 C   0  0  0  0  0  0  0  0  0  0  0  0
    3.1882   -9.7190   17.2566 C   0  0  0  0  0  0  0  0  0  0  0  0
    5.3488   -6.1737   26.5092 C   0  0  0  0  0  0  0  0  0  0  0  0
    7.4567   -6.9464   27.2858 C   0  0  0  0  0  0  0  0  0  0  0  0
    0.1921   -5.7592   27.1123 C   0  0  0  0  0  0  0  0  0  0  0  0
    3.5517   -7.7407   25.9711 C   0  0  0  0  0  0  0  0  0  0  0  0
  1  4  4  0
  1 22  4  0
  2 20  4  0
  2 27  4  0
  3 12  4  0
  3 23  4  0
  4 25  4  0
  4 28  1  0
  5  8  4  0
  5 17  4  0
  6  7  4  0
  6 16  4  0
  7 18  4  0
  8 27  4  0
  9 13  4  0
  9 23  4  0
 10 11  1  0
 11 14  2  0
 11 27  1  0
 12 19  1  0
 12 24  4  0
 13 24  4  0
 15 18  1  0
 16 25  4  0
 16 26  4  0
 17 20  4  0
 17 28  1  0
 18 21  4  0
 21 26  4  0
 22 26  4  0
M  END
$$$$

 Created by Python create_sdf_string function

 28 30  0  0  0  0  0  0  0  0999 V2000
    5.7174   -8.4529   26.7190 C   0  0  0  0  0  0  0  0  0  0  0  0
    0.3974   -7.0711   27.5149 C   0  0  0  0  0  0  0  0  0  0  0  0
    2.5338   -7.6891   16.0102 C   0  0  0  0  0  0  0  0  0  0  0  0
    4.8690   -7.4380   26.4151 C   0  0  0  0  0  0  0  0  0  0  0  0
    2.3021   -5.6726   26.0378 C   0  0  0  0  0  0  0  0  0  0  0  0
    7.0880   -4.6163   27.0010 C   0  0  0  0  0  0  0  0  0  0  0  0
    8.3117   -4.3698   27.4436 C   0  0  0  0  0  0  0  0  0  0  0  0
    1.1339   -5.0515   26.3541 C   0  0  0  0  0  0  0  0  0  0  0  0
    4.8080   -8.0362   16.7101 C   0  0  0  0  0  0  0  0  0  0  0  0
   -1.2173   -3.9294   26.9717 O   0  0  0  0  0  0  0  0  0  0  0  0
   -1.0025   -5.0942   27.4586 C   0  0  0  0  0  0  0  0  0  0  0  0
    2.2474   -8.9123   16.6273 C   0  0  0  0  0  0  0  0  0  0  0  0
    4.4957   -9.2636   17.3041 C   0  0  0  0  0  0  0  0  0  0  0  0
   -1.8070   -5.6086   28.1920 O   0  0  0  0  0  0  0  0  0  0  0  0
   10.4296   -5.1799   28.3140 C   0  0  0  0  0  0  0  0  0  0  0  0
    6.6017   -5.9004   26.9187 C   0  0  0  0  0  0  0  0  0  0  0  0
    2.4761   -6.9940   26.4111 N   0  0  0  0  0  0  0  0  0  0  0  0
    9.1353   -5.4053   27.8239 C   0  0  0  0  0  0  0  0  0  0  0  0
    0.9922   -9.3232   16.5995 O   0  0  0  0  0  0  0  0  0  0  0  0
    1.5232   -7.6869   27.1182 C   0  0  0  0  0  0  0  0  0  0  0  0
    8.6878   -6.6715   27.7262 N   0  0  0  0  0  0  0  0  0  0  0  0
    6.9911   -8.2423   27.1808 C   0  0  0  0  0  0  0  0  0  0  0  0
    3.8436   -7.2758   16.0578 C   0  0  0  0  0  0  0  0  0  0  0  0
    3.1882   -9.7190   17.2566 C   0  0  0  0  0  0  0  0  0  0  0  0
    5.3488   -6.1737   26.5092 C   0  0  0  0  0  0  0  0  0  0  0  0
    7.4567   -6.9464   27.2858 C   0  0  0  0  0  0  0  0  0  0  0  0
    0.1921   -5.7592   27.1123 C   0  0  0  0  0  0  0  0  0  0  0  0
    3.5517   -7.7407   25.9711 C   0  0  0  0  0  0  0  0  0  0  0  0
  1  4  4  0
  1 22  4  0
  2 20  4  0
  2 27  4  0
  3 12  4  0
  3 23  4  0
  4 25  4  0
  4 28  1  0
  5  8  4  0
  5 17  4  0
  6  7  4  0
  6 16  4  0
  7 18  4  0
  8 27  4  0
  9 13  4  0
  9 23  4  0
 10 11  1  0
 11 14  2  0
 11 27  1  0
 12 19  1  0
 12 24  4  0
 13 24  4  0
 15 18  1  0
 16 25  4  0
 16 26  4  0
 17 20  4  0
 17 28  1  0
 18 21  4  0
 21 26  4  0
 22 26  4  0
M  END
$$$$

 Created by Python create_sdf_string function

 28 30  0  0  0  0  0  0  0  0999 V2000
    5.7174   -8.4529   26.7190 C   0  0  0  0  0  0  0  0  0  0  0  0
    0.3974   -7.0711   27.5149 C   0  0  0  0  0  0  0  0  0  0  0  0
    2.5338   -7.6891   16.0102 C   0  0  0  0  0  0  0  0  0  0  0  0
    4.8690   -7.4380   26.4151 C   0  0  0  0  0  0  0  0  0  0  0  0
    2.3021   -5.6726   26.0378 C   0  0  0  0  0  0  0  0  0  0  0  0
    7.0880   -4.6163   27.0010 C   0  0  0  0  0  0  0  0  0  0  0  0
    8.3117   -4.3698   27.4436 C   0  0  0  0  0  0  0  0  0  0  0  0
    1.1339   -5.0515   26.3541 C   0  0  0  0  0  0  0  0  0  0  0  0
    4.8080   -8.0362   16.7101 C   0  0  0  0  0  0  0  0  0  0  0  0
   -1.2173   -3.9294   26.9717 O   0  0  0  0  0  0  0  0  0  0  0  0
   -1.0025   -5.0942   27.4586 C   0  0  0  0  0  0  0  0  0  0  0  0
    2.2474   -8.9123   16.6273 C   0  0  0  0  0  0  0  0  0  0  0  0
    4.4957   -9.2636   17.3041 C   0  0  0  0  0  0  0  0  0  0  0  0
   -1.8070   -5.6086   28.1920 O   0  0  0  0  0  0  0  0  0  0  0  0
   10.4296   -5.1799   28.3140 C   0  0  0  0  0  0  0  0  0  0  0  0
    6.6017   -5.9004   26.9187 C   0  0  0  0  0  0  0  0  0  0  0  0
    2.4761   -6.9940   26.4111 N   0  0  0  0  0  0  0  0  0  0  0  0
    9.1353   -5.4053   27.8239 C   0  0  0  0  0  0  0  0  0  0  0  0
    0.9922   -9.3232   16.5995 O   0  0  0  0  0  0  0  0  0  0  0  0
    1.5232   -7.6869   27.1182 C   0  0  0  0  0  0  0  0  0  0  0  0
    8.6878   -6.6715   27.7262 N   0  0  0  0  0  0  0  0  0  0  0  0
    6.9911   -8.2423   27.1808 C   0  0  0  0  0  0  0  0  0  0  0  0
    3.8436   -7.2758   16.0578 C   0  0  0  0  0  0  0  0  0  0  0  0
    3.1882   -9.7190   17.2566 C   0  0  0  0  0  0  0  0  0  0  0  0
    5.3488   -6.1737   26.5092 C   0  0  0  0  0  0  0  0  0  0  0  0
    7.4567   -6.9464   27.2858 C   0  0  0  0  0  0  0  0  0  0  0  0
    0.1921   -5.7592   27.1123 C   0  0  0  0  0  0  0  0  0  0  0  0
    3.5517   -7.7407   25.9711 C   0  0  0  0  0  0  0  0  0  0  0  0
  1  4  4  0
  1 22  4  0
  2 20  4  0
  2 27  4  0
  3 12  4  0
  3 23  4  0
  4 25  4  0
  4 28  1  0
  5  8  4  0
  5 17  4  0
  6  7  4  0
  6 16  4  0
  7 18  4  0
  8 27  4  0
  9 13  4  0
  9 23  4  0
 10 11  1  0
 11 14  2  0
 11 27  1  0
 12 19  1  0
 12 24  4  0
 13 24  4  0
 15 18  1  0
 16 25  4  0
 16 26  4  0
 17 20  4  0
 17 28  1  0
 18 21  4  0
 21 26  4  0
 22 26  4  0
M  END
$$$$

 Created by Python create_sdf_string function

 28 30  0  0  0  0  0  0  0  0999 V2000
    5.7174   -8.4529   26.7190 C   0  0  0  0  0  0  0  0  0  0  0  0
    0.3974   -7.0711   27.5149 C   0  0  0  0  0  0  0  0  0  0  0  0
    2.5338   -7.6891   16.0102 C   0  0  0  0  0  0  0  0  0  0  0  0
    4.8690   -7.4380   26.4151 C   0  0  0  0  0  0  0  0  0  0  0  0
    2.3021   -5.6726   26.0378 C   0  0  0  0  0  0  0  0  0  0  0  0
    7.0880   -4.6163   27.0010 C   0  0  0  0  0  0  0  0  0  0  0  0
    8.3117   -4.3698   27.4436 C   0  0  0  0  0  0  0  0  0  0  0  0
    1.1339   -5.0515   26.3541 C   0  0  0  0  0  0  0  0  0  0  0  0
    4.8080   -8.0362   16.7101 C   0  0  0  0  0  0  0  0  0  0  0  0
   -1.2173   -3.9294   26.9717 O   0  0  0  0  0  0  0  0  0  0  0  0
   -1.0025   -5.0942   27.4586 C   0  0  0  0  0  0  0  0  0  0  0  0
    2.2474   -8.9123   16.6273 C   0  0  0  0  0  0  0  0  0  0  0  0
    4.4957   -9.2636   17.3041 C   0  0  0  0  0  0  0  0  0  0  0  0
   -1.8070   -5.6086   28.1920 O   0  0  0  0  0  0  0  0  0  0  0  0
   10.4296   -5.1799   28.3140 C   0  0  0  0  0  0  0  0  0  0  0  0
    6.6017   -5.9004   26.9187 C   0  0  0  0  0  0  0  0  0  0  0  0
    2.4761   -6.9940   26.4111 N   0  0  0  0  0  0  0  0  0  0  0  0
    9.1353   -5.4053   27.8239 C   0  0  0  0  0  0  0  0  0  0  0  0
    0.9922   -9.3232   16.5995 O   0  0  0  0  0  0  0  0  0  0  0  0
    1.5232   -7.6869   27.1182 C   0  0  0  0  0  0  0  0  0  0  0  0
    8.6878   -6.6715   27.7262 N   0  0  0  0  0  0  0  0  0  0  0  0
    6.9911   -8.2423   27.1808 C   0  0  0  0  0  0  0  0  0  0  0  0
    3.8436   -7.2758   16.0578 C   0  0  0  0  0  0  0  0  0  0  0  0
    3.1882   -9.7190   17.2566 C   0  0  0  0  0  0  0  0  0  0  0  0
    5.3488   -6.1737   26.5092 C   0  0  0  0  0  0  0  0  0  0  0  0
    7.4567   -6.9464   27.2858 C   0  0  0  0  0  0  0  0  0  0  0  0
    0.1921   -5.7592   27.1123 C   0  0  0  0  0  0  0  0  0  0  0  0
    3.5517   -7.7407   25.9711 C   0  0  0  0  0  0  0  0  0  0  0  0
  1  4  4  0
  1 22  4  0
  2 20  4  0
  2 27  4  0
  3 12  4  0
  3 23  4  0
  4 25  4  0
  4 28  1  0
  5  8  4  0
  5 17  4  0
  6  7  4  0
  6 16  4  0
  7 18  4  0
  8 27  4  0
  9 13  4  0
  9 23  4  0
 10 11  1  0
 11 14  2  0
 11 27  1  0
 12 19  1  0
 12 24  4  0
 13 24  4  0
 15 18  1  0
 16 25  4  0
 16 26  4  0
 17 20  4  0
 17 28  1  0
 18 21  4  0
 21 26  4  0
 22 26  4  0
M  END
$$$$

 Created by Python create_sdf_string function

 28 30  0  0  0  0  0  0  0  0999 V2000
    5.7174   -8.4529   26.7190 C   0  0  0  0  0  0  0  0  0  0  0  0
    0.3974   -7.0711   27.5149 C   0  0  0  0  0  0  0  0  0  0  0  0
    2.5338   -7.6891   16.0102 C   0  0  0  0  0  0  0  0  0  0  0  0
    4.8690   -7.4380   26.4151 C   0  0  0  0  0  0  0  0  0  0  0  0
    2.3021   -5.6726   26.0378 C   0  0  0  0  0  0  0  0  0  0  0  0
    7.0880   -4.6163   27.0010 C   0  0  0  0  0  0  0  0  0  0  0  0
    8.3117   -4.3698   27.4436 C   0  0  0  0  0  0  0  0  0  0  0  0
    1.1339   -5.0515   26.3541 C   0  0  0  0  0  0  0  0  0  0  0  0
    4.8080   -8.0362   16.7101 C   0  0  0  0  0  0  0  0  0  0  0  0
   -1.2173   -3.9294   26.9717 O   0  0  0  0  0  0  0  0  0  0  0  0
   -1.0025   -5.0942   27.4586 C   0  0  0  0  0  0  0  0  0  0  0  0
    2.2474   -8.9123   16.6273 C   0  0  0  0  0  0  0  0  0  0  0  0
    4.4957   -9.2636   17.3041 C   0  0  0  0  0  0  0  0  0  0  0  0
   -1.8070   -5.6086   28.1920 O   0  0  0  0  0  0  0  0  0  0  0  0
   10.4296   -5.1799   28.3140 C   0  0  0  0  0  0  0  0  0  0  0  0
    6.6017   -5.9004   26.9187 C   0  0  0  0  0  0  0  0  0  0  0  0
    2.4761   -6.9940   26.4111 N   0  0  0  0  0  0  0  0  0  0  0  0
    9.1353   -5.4053   27.8239 C   0  0  0  0  0  0  0  0  0  0  0  0
    0.9922   -9.3232   16.5995 O   0  0  0  0  0  0  0  0  0  0  0  0
    1.5232   -7.6869   27.1182 C   0  0  0  0  0  0  0  0  0  0  0  0
    8.6878   -6.6715   27.7262 N   0  0  0  0  0  0  0  0  0  0  0  0
    6.9911   -8.2423   27.1808 C   0  0  0  0  0  0  0  0  0  0  0  0
    3.8436   -7.2758   16.0578 C   0  0  0  0  0  0  0  0  0  0  0  0
    3.1882   -9.7190   17.2566 C   0  0  0  0  0  0  0  0  0  0  0  0
    5.3488   -6.1737   26.5092 C   0  0  0  0  0  0  0  0  0  0  0  0
    7.4567   -6.9464   27.2858 C   0  0  0  0  0  0  0  0  0  0  0  0
    0.1921   -5.7592   27.1123 C   0  0  0  0  0  0  0  0  0  0  0  0
    3.5517   -7.7407   25.9711 C   0  0  0  0  0  0  0  0  0  0  0  0
  1  4  4  0
  1 22  4  0
  2 20  4  0
  2 27  4  0
  3 12  4  0
  3 23  4  0
  4 25  4  0
  4 28  1  0
  5  8  4  0
  5 17  4  0
  6  7  4  0
  6 16  4  0
  7 18  4  0
  8 27  4  0
  9 13  4  0
  9 23  4  0
 10 11  1  0
 11 14  2  0
 11 27  1  0
 12 19  1  0
 12 24  4  0
 13 24  4  0
 15 18  1  0
 16 25  4  0
 16 26  4  0
 17 20  4  0
 17 28  1  0
 18 21  4  0
 21 26  4  0
 22 26  4  0
M  END
$$$$

 Created by Python create_sdf_string function

 28 30  0  0  0  0  0  0  0  0999 V2000
    5.7174   -8.4529   26.7190 C   0  0  0  0  0  0  0  0  0  0  0  0
    0.3974   -7.0711   27.5149 C   0  0  0  0  0  0  0  0  0  0  0  0
    2.5338   -7.6891   16.0102 C   0  0  0  0  0  0  0  0  0  0  0  0
    4.8690   -7.4380   26.4151 C   0  0  0  0  0  0  0  0  0  0  0  0
    2.3021   -5.6726   26.0378 C   0  0  0  0  0  0  0  0  0  0  0  0
    7.0880   -4.6163   27.0010 C   0  0  0  0  0  0  0  0  0  0  0  0
    8.3117   -4.3698   27.4436 C   0  0  0  0  0  0  0  0  0  0  0  0
    1.1339   -5.0515   26.3541 C   0  0  0  0  0  0  0  0  0  0  0  0
    4.8080   -8.0362   16.7101 C   0  0  0  0  0  0  0  0  0  0  0  0
   -1.2173   -3.9294   26.9717 O   0  0  0  0  0  0  0  0  0  0  0  0
   -1.0025   -5.0942   27.4586 C   0  0  0  0  0  0  0  0  0  0  0  0
    2.2474   -8.9123   16.6273 C   0  0  0  0  0  0  0  0  0  0  0  0
    4.4957   -9.2636   17.3041 C   0  0  0  0  0  0  0  0  0  0  0  0
   -1.8070   -5.6086   28.1920 O   0  0  0  0  0  0  0  0  0  0  0  0
   10.4296   -5.1799   28.3140 C   0  0  0  0  0  0  0  0  0  0  0  0
    6.6017   -5.9004   26.9187 C   0  0  0  0  0  0  0  0  0  0  0  0
    2.4761   -6.9940   26.4111 N   0  0  0  0  0  0  0  0  0  0  0  0
    9.1353   -5.4053   27.8239 C   0  0  0  0  0  0  0  0  0  0  0  0
    0.9922   -9.3232   16.5995 O   0  0  0  0  0  0  0  0  0  0  0  0
    1.5232   -7.6869   27.1182 C   0  0  0  0  0  0  0  0  0  0  0  0
    8.6878   -6.6715   27.7262 N   0  0  0  0  0  0  0  0  0  0  0  0
    6.9911   -8.2423   27.1808 C   0  0  0  0  0  0  0  0  0  0  0  0
    3.8436   -7.2758   16.0578 C   0  0  0  0  0  0  0  0  0  0  0  0
    3.1882   -9.7190   17.2566 C   0  0  0  0  0  0  0  0  0  0  0  0
    5.3488   -6.1737   26.5092 C   0  0  0  0  0  0  0  0  0  0  0  0
    7.4567   -6.9464   27.2858 C   0  0  0  0  0  0  0  0  0  0  0  0
    0.1921   -5.7592   27.1123 C   0  0  0  0  0  0  0  0  0  0  0  0
    3.5517   -7.7407   25.9711 C   0  0  0  0  0  0  0  0  0  0  0  0
  1  4  4  0
  1 22  4  0
  2 20  4  0
  2 27  4  0
  3 12  4  0
  3 23  4  0
  4 25  4  0
  4 28  1  0
  5  8  4  0
  5 17  4  0
  6  7  4  0
  6 16  4  0
  7 18  4  0
  8 27  4  0
  9 13  4  0
  9 23  4  0
 10 11  1  0
 11 14  2  0
 11 27  1  0
 12 19  1  0
 12 24  4  0
 13 24  4  0
 15 18  1  0
 16 25  4  0
 16 26  4  0
 17 20  4  0
 17 28  1  0
 18 21  4  0
 21 26  4  0
 22 26  4  0
M  END
$$$$

 Created by Python create_sdf_string function

 28 30  0  0  0  0  0  0  0  0999 V2000
    5.7174   -8.4529   26.7190 C   0  0  0  0  0  0  0  0  0  0  0  0
    0.3974   -7.0711   27.5149 C   0  0  0  0  0  0  0  0  0  0  0  0
    2.5338   -7.6891   16.0102 C   0  0  0  0  0  0  0  0  0  0  0  0
    4.8690   -7.4380   26.4151 C   0  0  0  0  0  0  0  0  0  0  0  0
    2.3021   -5.6726   26.0378 C   0  0  0  0  0  0  0  0  0  0  0  0
    7.0880   -4.6163   27.0010 C   0  0  0  0  0  0  0  0  0  0  0  0
    8.3117   -4.3698   27.4436 C   0  0  0  0  0  0  0  0  0  0  0  0
    1.1339   -5.0515   26.3541 C   0  0  0  0  0  0  0  0  0  0  0  0
    4.8080   -8.0362   16.7101 C   0  0  0  0  0  0  0  0  0  0  0  0
   -1.2173   -3.9294   26.9717 O   0  0  0  0  0  0  0  0  0  0  0  0
   -1.0025   -5.0942   27.4586 C   0  0  0  0  0  0  0  0  0  0  0  0
    2.2474   -8.9123   16.6273 C   0  0  0  0  0  0  0  0  0  0  0  0
    4.4957   -9.2636   17.3041 C   0  0  0  0  0  0  0  0  0  0  0  0
   -1.8070   -5.6086   28.1920 O   0  0  0  0  0  0  0  0  0  0  0  0
   10.4296   -5.1799   28.3140 C   0  0  0  0  0  0  0  0  0  0  0  0
    6.6017   -5.9004   26.9187 C   0  0  0  0  0  0  0  0  0  0  0  0
    2.4761   -6.9940   26.4111 N   0  0  0  0  0  0  0  0  0  0  0  0
    9.1353   -5.4053   27.8239 C   0  0  0  0  0  0  0  0  0  0  0  0
    0.9922   -9.3232   16.5995 O   0  0  0  0  0  0  0  0  0  0  0  0
    1.5232   -7.6869   27.1182 C   0  0  0  0  0  0  0  0  0  0  0  0
    8.6878   -6.6715   27.7262 N   0  0  0  0  0  0  0  0  0  0  0  0
    6.9911   -8.2423   27.1808 C   0  0  0  0  0  0  0  0  0  0  0  0
    3.8436   -7.2758   16.0578 C   0  0  0  0  0  0  0  0  0  0  0  0
    3.1882   -9.7190   17.2566 C   0  0  0  0  0  0  0  0  0  0  0  0
    5.3488   -6.1737   26.5092 C   0  0  0  0  0  0  0  0  0  0  0  0
    7.4567   -6.9464   27.2858 C   0  0  0  0  0  0  0  0  0  0  0  0
    0.1921   -5.7592   27.1123 C   0  0  0  0  0  0  0  0  0  0  0  0
    3.5517   -7.7407   25.9711 C   0  0  0  0  0  0  0  0  0  0  0  0
  1  4  4  0
  1 22  4  0
  2 20  4  0
  2 27  4  0
  3 12  4  0
  3 23  4  0
  4 25  4  0
  4 28  1  0
  5  8  4  0
  5 17  4  0
  6  7  4  0
  6 16  4  0
  7 18  4  0
  8 27  4  0
  9 13  4  0
  9 23  4  0
 10 11  1  0
 11 14  2  0
 11 27  1  0
 12 19  1  0
 12 24  4  0
 13 24  4  0
 15 18  1  0
 16 25  4  0
 16 26  4  0
 17 20  4  0
 17 28  1  0
 18 21  4  0
 21 26  4  0
 22 26  4  0
M  END
$$$$

 Created by Python create_sdf_string function

 28 30  0  0  0  0  0  0  0  0999 V2000
    5.7174   -8.4529   26.7190 C   0  0  0  0  0  0  0  0  0  0  0  0
    0.3974   -7.0711   27.5149 C   0  0  0  0  0  0  0  0  0  0  0  0
    2.5338   -7.6891   16.0102 C   0  0  0  0  0  0  0  0  0  0  0  0
    4.8690   -7.4380   26.4151 C   0  0  0  0  0  0  0  0  0  0  0  0
    2.3021   -5.6726   26.0378 C   0  0  0  0  0  0  0  0  0  0  0  0
    7.0880   -4.6163   27.0010 C   0  0  0  0  0  0  0  0  0  0  0  0
    8.3117   -4.3698   27.4436 C   0  0  0  0  0  0  0  0  0  0  0  0
    1.1339   -5.0515   26.3541 C   0  0  0  0  0  0  0  0  0  0  0  0
    4.8080   -8.0362   16.7101 C   0  0  0  0  0  0  0  0  0  0  0  0
   -1.2173   -3.9294   26.9717 O   0  0  0  0  0  0  0  0  0  0  0  0
   -1.0025   -5.0942   27.4586 C   0  0  0  0  0  0  0  0  0  0  0  0
    2.2474   -8.9123   16.6273 C   0  0  0  0  0  0  0  0  0  0  0  0
    4.4957   -9.2636   17.3041 C   0  0  0  0  0  0  0  0  0  0  0  0
   -1.8070   -5.6086   28.1920 O   0  0  0  0  0  0  0  0  0  0  0  0
   10.4296   -5.1799   28.3140 C   0  0  0  0  0  0  0  0  0  0  0  0
    6.6017   -5.9004   26.9187 C   0  0  0  0  0  0  0  0  0  0  0  0
    2.4761   -6.9940   26.4111 N   0  0  0  0  0  0  0  0  0  0  0  0
    9.1353   -5.4053   27.8239 C   0  0  0  0  0  0  0  0  0  0  0  0
    0.9922   -9.3232   16.5995 O   0  0  0  0  0  0  0  0  0  0  0  0
    1.5232   -7.6869   27.1182 C   0  0  0  0  0  0  0  0  0  0  0  0
    8.6878   -6.6715   27.7262 N   0  0  0  0  0  0  0  0  0  0  0  0
    6.9911   -8.2423   27.1808 C   0  0  0  0  0  0  0  0  0  0  0  0
    3.8436   -7.2758   16.0578 C   0  0  0  0  0  0  0  0  0  0  0  0
    3.1882   -9.7190   17.2566 C   0  0  0  0  0  0  0  0  0  0  0  0
    5.3488   -6.1737   26.5092 C   0  0  0  0  0  0  0  0  0  0  0  0
    7.4567   -6.9464   27.2858 C   0  0  0  0  0  0  0  0  0  0  0  0
    0.1921   -5.7592   27.1123 C   0  0  0  0  0  0  0  0  0  0  0  0
    3.5517   -7.7407   25.9711 C   0  0  0  0  0  0  0  0  0  0  0  0
  1  4  4  0
  1 22  4  0
  2 20  4  0
  2 27  4  0
  3 12  4  0
  3 23  4  0
  4 25  4  0
  4 28  1  0
  5  8  4  0
  5 17  4  0
  6  7  4  0
  6 16  4  0
  7 18  4  0
  8 27  4  0
  9 13  4  0
  9 23  4  0
 10 11  1  0
 11 14  2  0
 11 27  1  0
 12 19  1  0
 12 24  4  0
 13 24  4  0
 15 18  1  0
 16 25  4  0
 16 26  4  0
 17 20  4  0
 17 28  1  0
 18 21  4  0
 21 26  4  0
 22 26  4  0
M  END
$$$$

 Created by Python create_sdf_string function

 28 30  0  0  0  0  0  0  0  0999 V2000
    5.7174   -8.4529   26.7190 C   0  0  0  0  0  0  0  0  0  0  0  0
    0.3974   -7.0711   27.5149 C   0  0  0  0  0  0  0  0  0  0  0  0
    2.5338   -7.6891   16.0102 C   0  0  0  0  0  0  0  0  0  0  0  0
    4.8690   -7.4380   26.4151 C   0  0  0  0  0  0  0  0  0  0  0  0
    2.3021   -5.6726   26.0378 C   0  0  0  0  0  0  0  0  0  0  0  0
    7.0880   -4.6163   27.0010 C   0  0  0  0  0  0  0  0  0  0  0  0
    8.3117   -4.3698   27.4436 C   0  0  0  0  0  0  0  0  0  0  0  0
    1.1339   -5.0515   26.3541 C   0  0  0  0  0  0  0  0  0  0  0  0
    4.8080   -8.0362   16.7101 C   0  0  0  0  0  0  0  0  0  0  0  0
   -1.2173   -3.9294   26.9717 O   0  0  0  0  0  0  0  0  0  0  0  0
   -1.0025   -5.0942   27.4586 C   0  0  0  0  0  0  0  0  0  0  0  0
    2.2474   -8.9123   16.6273 C   0  0  0  0  0  0  0  0  0  0  0  0
    4.4957   -9.2636   17.3041 C   0  0  0  0  0  0  0  0  0  0  0  0
   -1.8070   -5.6086   28.1920 O   0  0  0  0  0  0  0  0  0  0  0  0
   10.4296   -5.1799   28.3140 C   0  0  0  0  0  0  0  0  0  0  0  0
    6.6017   -5.9004   26.9187 C   0  0  0  0  0  0  0  0  0  0  0  0
    2.4761   -6.9940   26.4111 N   0  0  0  0  0  0  0  0  0  0  0  0
    9.1353   -5.4053   27.8239 C   0  0  0  0  0  0  0  0  0  0  0  0
    0.9922   -9.3232   16.5995 O   0  0  0  0  0  0  0  0  0  0  0  0
    1.5232   -7.6869   27.1182 C   0  0  0  0  0  0  0  0  0  0  0  0
    8.6878   -6.6715   27.7262 N   0  0  0  0  0  0  0  0  0  0  0  0
    6.9911   -8.2423   27.1808 C   0  0  0  0  0  0  0  0  0  0  0  0
    3.8436   -7.2758   16.0578 C   0  0  0  0  0  0  0  0  0  0  0  0
    3.1882   -9.7190   17.2566 C   0  0  0  0  0  0  0  0  0  0  0  0
    5.3488   -6.1737   26.5092 C   0  0  0  0  0  0  0  0  0  0  0  0
    7.4567   -6.9464   27.2858 C   0  0  0  0  0  0  0  0  0  0  0  0
    0.1921   -5.7592   27.1123 C   0  0  0  0  0  0  0  0  0  0  0  0
    3.5517   -7.7407   25.9711 C   0  0  0  0  0  0  0  0  0  0  0  0
  1  4  4  0
  1 22  4  0
  2 20  4  0
  2 27  4  0
  3 12  4  0
  3 23  4  0
  4 25  4  0
  4 28  1  0
  5  8  4  0
  5 17  4  0
  6  7  4  0
  6 16  4  0
  7 18  4  0
  8 27  4  0
  9 13  4  0
  9 23  4  0
 10 11  1  0
 11 14  2  0
 11 27  1  0
 12 19  1  0
 12 24  4  0
 13 24  4  0
 15 18  1  0
 16 25  4  0
 16 26  4  0
 17 20  4  0
 17 28  1  0
 18 21  4  0
 21 26  4  0
 22 26  4  0
M  END
$$$$

 Created by Python create_sdf_string function

 28 30  0  0  0  0  0  0  0  0999 V2000
    5.7174   -8.4529   26.7190 C   0  0  0  0  0  0  0  0  0  0  0  0
    0.3974   -7.0711   27.5149 C   0  0  0  0  0  0  0  0  0  0  0  0
    2.5338   -7.6891   16.0102 C   0  0  0  0  0  0  0  0  0  0  0  0
    4.8690   -7.4380   26.4151 C   0  0  0  0  0  0  0  0  0  0  0  0
    2.3021   -5.6726   26.0378 C   0  0  0  0  0  0  0  0  0  0  0  0
    7.0880   -4.6163   27.0010 C   0  0  0  0  0  0  0  0  0  0  0  0
    8.3117   -4.3698   27.4436 C   0  0  0  0  0  0  0  0  0  0  0  0
    1.1339   -5.0515   26.3541 C   0  0  0  0  0  0  0  0  0  0  0  0
    4.8080   -8.0362   16.7101 C   0  0  0  0  0  0  0  0  0  0  0  0
   -1.2173   -3.9294   26.9717 O   0  0  0  0  0  0  0  0  0  0  0  0
   -1.0025   -5.0942   27.4586 C   0  0  0  0  0  0  0  0  0  0  0  0
    2.2474   -8.9123   16.6273 C   0  0  0  0  0  0  0  0  0  0  0  0
    4.4957   -9.2636   17.3041 C   0  0  0  0  0  0  0  0  0  0  0  0
   -1.8070   -5.6086   28.1920 O   0  0  0  0  0  0  0  0  0  0  0  0
   10.4296   -5.1799   28.3140 C   0  0  0  0  0  0  0  0  0  0  0  0
    6.6017   -5.9004   26.9187 C   0  0  0  0  0  0  0  0  0  0  0  0
    2.4761   -6.9940   26.4111 N   0  0  0  0  0  0  0  0  0  0  0  0
    9.1353   -5.4053   27.8239 C   0  0  0  0  0  0  0  0  0  0  0  0
    0.9922   -9.3232   16.5995 O   0  0  0  0  0  0  0  0  0  0  0  0
    1.5232   -7.6869   27.1182 C   0  0  0  0  0  0  0  0  0  0  0  0
    8.6878   -6.6715   27.7262 N   0  0  0  0  0  0  0  0  0  0  0  0
    6.9911   -8.2423   27.1808 C   0  0  0  0  0  0  0  0  0  0  0  0
    3.8436   -7.2758   16.0578 C   0  0  0  0  0  0  0  0  0  0  0  0
    3.1882   -9.7190   17.2566 C   0  0  0  0  0  0  0  0  0  0  0  0
    5.3488   -6.1737   26.5092 C   0  0  0  0  0  0  0  0  0  0  0  0
    7.4567   -6.9464   27.2858 C   0  0  0  0  0  0  0  0  0  0  0  0
    0.1921   -5.7592   27.1123 C   0  0  0  0  0  0  0  0  0  0  0  0
    3.5517   -7.7407   25.9711 C   0  0  0  0  0  0  0  0  0  0  0  0
  1  4  4  0
  1 22  4  0
  2 20  4  0
  2 27  4  0
  3 12  4  0
  3 23  4  0
  4 25  4  0
  4 28  1  0
  5  8  4  0
  5 17  4  0
  6  7  4  0
  6 16  4  0
  7 18  4  0
  8 27  4  0
  9 13  4  0
  9 23  4  0
 10 11  1  0
 11 14  2  0
 11 27  1  0
 12 19  1  0
 12 24  4  0
 13 24  4  0
 15 18  1  0
 16 25  4  0
 16 26  4  0
 17 20  4  0
 17 28  1  0
 18 21  4  0
 21 26  4  0
 22 26  4  0
M  END
$$$$

 Created by Python create_sdf_string function

 28 30  0  0  0  0  0  0  0  0999 V2000
    5.7174   -8.4529   26.7190 C   0  0  0  0  0  0  0  0  0  0  0  0
    0.3974   -7.0711   27.5149 C   0  0  0  0  0  0  0  0  0  0  0  0
    2.5338   -7.6891   16.0102 C   0  0  0  0  0  0  0  0  0  0  0  0
    4.8690   -7.4380   26.4151 C   0  0  0  0  0  0  0  0  0  0  0  0
    2.3021   -5.6726   26.0378 C   0  0  0  0  0  0  0  0  0  0  0  0
    7.0880   -4.6163   27.0010 C   0  0  0  0  0  0  0  0  0  0  0  0
    8.3117   -4.3698   27.4436 C   0  0  0  0  0  0  0  0  0  0  0  0
    1.1339   -5.0515   26.3541 C   0  0  0  0  0  0  0  0  0  0  0  0
    4.8080   -8.0362   16.7101 C   0  0  0  0  0  0  0  0  0  0  0  0
   -1.2173   -3.9294   26.9717 O   0  0  0  0  0  0  0  0  0  0  0  0
   -1.0025   -5.0942   27.4586 C   0  0  0  0  0  0  0  0  0  0  0  0
    2.2474   -8.9123   16.6273 C   0  0  0  0  0  0  0  0  0  0  0  0
    4.4957   -9.2636   17.3041 C   0  0  0  0  0  0  0  0  0  0  0  0
   -1.8070   -5.6086   28.1920 O   0  0  0  0  0  0  0  0  0  0  0  0
   10.4296   -5.1799   28.3140 C   0  0  0  0  0  0  0  0  0  0  0  0
    6.6017   -5.9004   26.9187 C   0  0  0  0  0  0  0  0  0  0  0  0
    2.4761   -6.9940   26.4111 N   0  0  0  0  0  0  0  0  0  0  0  0
    9.1353   -5.4053   27.8239 C   0  0  0  0  0  0  0  0  0  0  0  0
    0.9922   -9.3232   16.5995 O   0  0  0  0  0  0  0  0  0  0  0  0
    1.5232   -7.6869   27.1182 C   0  0  0  0  0  0  0  0  0  0  0  0
    8.6878   -6.6715   27.7262 N   0  0  0  0  0  0  0  0  0  0  0  0
    6.9911   -8.2423   27.1808 C   0  0  0  0  0  0  0  0  0  0  0  0
    3.8436   -7.2758   16.0578 C   0  0  0  0  0  0  0  0  0  0  0  0
    3.1882   -9.7190   17.2566 C   0  0  0  0  0  0  0  0  0  0  0  0
    5.3488   -6.1737   26.5092 C   0  0  0  0  0  0  0  0  0  0  0  0
    7.4567   -6.9464   27.2858 C   0  0  0  0  0  0  0  0  0  0  0  0
    0.1921   -5.7592   27.1123 C   0  0  0  0  0  0  0  0  0  0  0  0
    3.5517   -7.7407   25.9711 C   0  0  0  0  0  0  0  0  0  0  0  0
  1  4  4  0
  1 22  4  0
  2 20  4  0
  2 27  4  0
  3 12  4  0
  3 23  4  0
  4 25  4  0
  4 28  1  0
  5  8  4  0
  5 17  4  0
  6  7  4  0
  6 16  4  0
  7 18  4  0
  8 27  4  0
  9 13  4  0
  9 23  4  0
 10 11  1  0
 11 14  2  0
 11 27  1  0
 12 19  1  0
 12 24  4  0
 13 24  4  0
 15 18  1  0
 16 25  4  0
 16 26  4  0
 17 20  4  0
 17 28  1  0
 18 21  4  0
 21 26  4  0
 22 26  4  0
M  END
$$$$

 Created by Python create_sdf_string function

 28 30  0  0  0  0  0  0  0  0999 V2000
    5.7174   -8.4529   26.7190 C   0  0  0  0  0  0  0  0  0  0  0  0
    0.3974   -7.0711   27.5149 C   0  0  0  0  0  0  0  0  0  0  0  0
    2.5338   -7.6891   16.0102 C   0  0  0  0  0  0  0  0  0  0  0  0
    4.8690   -7.4380   26.4151 C   0  0  0  0  0  0  0  0  0  0  0  0
    2.3021   -5.6726   26.0378 C   0  0  0  0  0  0  0  0  0  0  0  0
    7.0880   -4.6163   27.0010 C   0  0  0  0  0  0  0  0  0  0  0  0
    8.3117   -4.3698   27.4436 C   0  0  0  0  0  0  0  0  0  0  0  0
    1.1339   -5.0515   26.3541 C   0  0  0  0  0  0  0  0  0  0  0  0
    4.8080   -8.0362   16.7101 C   0  0  0  0  0  0  0  0  0  0  0  0
   -1.2173   -3.9294   26.9717 O   0  0  0  0  0  0  0  0  0  0  0  0
   -1.0025   -5.0942   27.4586 C   0  0  0  0  0  0  0  0  0  0  0  0
    2.2474   -8.9123   16.6273 C   0  0  0  0  0  0  0  0  0  0  0  0
    4.4957   -9.2636   17.3041 C   0  0  0  0  0  0  0  0  0  0  0  0
   -1.8070   -5.6086   28.1920 O   0  0  0  0  0  0  0  0  0  0  0  0
   10.4296   -5.1799   28.3140 C   0  0  0  0  0  0  0  0  0  0  0  0
    6.6017   -5.9004   26.9187 C   0  0  0  0  0  0  0  0  0  0  0  0
    2.4761   -6.9940   26.4111 N   0  0  0  0  0  0  0  0  0  0  0  0
    9.1353   -5.4053   27.8239 C   0  0  0  0  0  0  0  0  0  0  0  0
    0.9922   -9.3232   16.5995 O   0  0  0  0  0  0  0  0  0  0  0  0
    1.5232   -7.6869   27.1182 C   0  0  0  0  0  0  0  0  0  0  0  0
    8.6878   -6.6715   27.7262 N   0  0  0  0  0  0  0  0  0  0  0  0
    6.9911   -8.2423   27.1808 C   0  0  0  0  0  0  0  0  0  0  0  0
    3.8436   -7.2758   16.0578 C   0  0  0  0  0  0  0  0  0  0  0  0
    3.1882   -9.7190   17.2566 C   0  0  0  0  0  0  0  0  0  0  0  0
    5.3488   -6.1737   26.5092 C   0  0  0  0  0  0  0  0  0  0  0  0
    7.4567   -6.9464   27.2858 C   0  0  0  0  0  0  0  0  0  0  0  0
    0.1921   -5.7592   27.1123 C   0  0  0  0  0  0  0  0  0  0  0  0
    3.5517   -7.7407   25.9711 C   0  0  0  0  0  0  0  0  0  0  0  0
  1  4  4  0
  1 22  4  0
  2 20  4  0
  2 27  4  0
  3 12  4  0
  3 23  4  0
  4 25  4  0
  4 28  1  0
  5  8  4  0
  5 17  4  0
  6  7  4  0
  6 16  4  0
  7 18  4  0
  8 27  4  0
  9 13  4  0
  9 23  4  0
 10 11  1  0
 11 14  2  0
 11 27  1  0
 12 19  1  0
 12 24  4  0
 13 24  4  0
 15 18  1  0
 16 25  4  0
 16 26  4  0
 17 20  4  0
 17 28  1  0
 18 21  4  0
 21 26  4  0
 22 26  4  0
M  END
$$$$

 Created by Python create_sdf_string function

 28 30  0  0  0  0  0  0  0  0999 V2000
    5.7174   -8.4529   26.7190 C   0  0  0  0  0  0  0  0  0  0  0  0
    0.3974   -7.0711   27.5149 C   0  0  0  0  0  0  0  0  0  0  0  0
    2.5338   -7.6891   16.0102 C   0  0  0  0  0  0  0  0  0  0  0  0
    4.8690   -7.4380   26.4151 C   0  0  0  0  0  0  0  0  0  0  0  0
    2.3021   -5.6726   26.0378 C   0  0  0  0  0  0  0  0  0  0  0  0
    7.0880   -4.6163   27.0010 C   0  0  0  0  0  0  0  0  0  0  0  0
    8.3117   -4.3698   27.4436 C   0  0  0  0  0  0  0  0  0  0  0  0
    1.1339   -5.0515   26.3541 C   0  0  0  0  0  0  0  0  0  0  0  0
    4.8080   -8.0362   16.7101 C   0  0  0  0  0  0  0  0  0  0  0  0
   -1.2173   -3.9294   26.9717 O   0  0  0  0  0  0  0  0  0  0  0  0
   -1.0025   -5.0942   27.4586 C   0  0  0  0  0  0  0  0  0  0  0  0
    2.2474   -8.9123   16.6273 C   0  0  0  0  0  0  0  0  0  0  0  0
    4.4957   -9.2636   17.3041 C   0  0  0  0  0  0  0  0  0  0  0  0
   -1.8070   -5.6086   28.1920 O   0  0  0  0  0  0  0  0  0  0  0  0
   10.4296   -5.1799   28.3140 C   0  0  0  0  0  0  0  0  0  0  0  0
    6.6017   -5.9004   26.9187 C   0  0  0  0  0  0  0  0  0  0  0  0
    2.4761   -6.9940   26.4111 N   0  0  0  0  0  0  0  0  0  0  0  0
    9.1353   -5.4053   27.8239 C   0  0  0  0  0  0  0  0  0  0  0  0
    0.9922   -9.3232   16.5995 O   0  0  0  0  0  0  0  0  0  0  0  0
    1.5232   -7.6869   27.1182 C   0  0  0  0  0  0  0  0  0  0  0  0
    8.6878   -6.6715   27.7262 N   0  0  0  0  0  0  0  0  0  0  0  0
    6.9911   -8.2423   27.1808 C   0  0  0  0  0  0  0  0  0  0  0  0
    3.8436   -7.2758   16.0578 C   0  0  0  0  0  0  0  0  0  0  0  0
    3.1882   -9.7190   17.2566 C   0  0  0  0  0  0  0  0  0  0  0  0
    5.3488   -6.1737   26.5092 C   0  0  0  0  0  0  0  0  0  0  0  0
    7.4567   -6.9464   27.2858 C   0  0  0  0  0  0  0  0  0  0  0  0
    0.1921   -5.7592   27.1123 C   0  0  0  0  0  0  0  0  0  0  0  0
    3.5517   -7.7407   25.9711 C   0  0  0  0  0  0  0  0  0  0  0  0
  1  4  4  0
  1 22  4  0
  2 20  4  0
  2 27  4  0
  3 12  4  0
  3 23  4  0
  4 25  4  0
  4 28  1  0
  5  8  4  0
  5 17  4  0
  6  7  4  0
  6 16  4  0
  7 18  4  0
  8 27  4  0
  9 13  4  0
  9 23  4  0
 10 11  1  0
 11 14  2  0
 11 27  1  0
 12 19  1  0
 12 24  4  0
 13 24  4  0
 15 18  1  0
 16 25  4  0
 16 26  4  0
 17 20  4  0
 17 28  1  0
 18 21  4  0
 21 26  4  0
 22 26  4  0
M  END
$$$$

 Created by Python create_sdf_string function

 28 30  0  0  0  0  0  0  0  0999 V2000
    5.7174   -8.4529   26.7190 C   0  0  0  0  0  0  0  0  0  0  0  0
    0.3974   -7.0711   27.5149 C   0  0  0  0  0  0  0  0  0  0  0  0
    2.5338   -7.6891   16.0102 C   0  0  0  0  0  0  0  0  0  0  0  0
    4.8690   -7.4380   26.4151 C   0  0  0  0  0  0  0  0  0  0  0  0
    2.3021   -5.6726   26.0378 C   0  0  0  0  0  0  0  0  0  0  0  0
    7.0880   -4.6163   27.0010 C   0  0  0  0  0  0  0  0  0  0  0  0
    8.3117   -4.3698   27.4436 C   0  0  0  0  0  0  0  0  0  0  0  0
    1.1339   -5.0515   26.3541 C   0  0  0  0  0  0  0  0  0  0  0  0
    4.8080   -8.0362   16.7101 C   0  0  0  0  0  0  0  0  0  0  0  0
   -1.2173   -3.9294   26.9717 O   0  0  0  0  0  0  0  0  0  0  0  0
   -1.0025   -5.0942   27.4586 C   0  0  0  0  0  0  0  0  0  0  0  0
    2.2474   -8.9123   16.6273 C   0  0  0  0  0  0  0  0  0  0  0  0
    4.4957   -9.2636   17.3041 C   0  0  0  0  0  0  0  0  0  0  0  0
   -1.8070   -5.6086   28.1920 O   0  0  0  0  0  0  0  0  0  0  0  0
   10.4296   -5.1799   28.3140 C   0  0  0  0  0  0  0  0  0  0  0  0
    6.6017   -5.9004   26.9187 C   0  0  0  0  0  0  0  0  0  0  0  0
    2.4761   -6.9940   26.4111 N   0  0  0  0  0  0  0  0  0  0  0  0
    9.1353   -5.4053   27.8239 C   0  0  0  0  0  0  0  0  0  0  0  0
    0.9922   -9.3232   16.5995 O   0  0  0  0  0  0  0  0  0  0  0  0
    1.5232   -7.6869   27.1182 C   0  0  0  0  0  0  0  0  0  0  0  0
    8.6878   -6.6715   27.7262 N   0  0  0  0  0  0  0  0  0  0  0  0
    6.9911   -8.2423   27.1808 C   0  0  0  0  0  0  0  0  0  0  0  0
    3.8436   -7.2758   16.0578 C   0  0  0  0  0  0  0  0  0  0  0  0
    3.1882   -9.7190   17.2566 C   0  0  0  0  0  0  0  0  0  0  0  0
    5.3488   -6.1737   26.5092 C   0  0  0  0  0  0  0  0  0  0  0  0
    7.4567   -6.9464   27.2858 C   0  0  0  0  0  0  0  0  0  0  0  0
    0.1921   -5.7592   27.1123 C   0  0  0  0  0  0  0  0  0  0  0  0
    3.5517   -7.7407   25.9711 C   0  0  0  0  0  0  0  0  0  0  0  0
  1  4  4  0
  1 22  4  0
  2 20  4  0
  2 27  4  0
  3 12  4  0
  3 23  4  0
  4 25  4  0
  4 28  1  0
  5  8  4  0
  5 17  4  0
  6  7  4  0
  6 16  4  0
  7 18  4  0
  8 27  4  0
  9 13  4  0
  9 23  4  0
 10 11  1  0
 11 14  2  0
 11 27  1  0
 12 19  1  0
 12 24  4  0
 13 24  4  0
 15 18  1  0
 16 25  4  0
 16 26  4  0
 17 20  4  0
 17 28  1  0
 18 21  4  0
 21 26  4  0
 22 26  4  0
M  END
$$$$

 Created by Python create_sdf_string function

 28 30  0  0  0  0  0  0  0  0999 V2000
    5.7174   -8.4529   26.7190 C   0  0  0  0  0  0  0  0  0  0  0  0
    0.3974   -7.0711   27.5149 C   0  0  0  0  0  0  0  0  0  0  0  0
    2.5338   -7.6891   16.0102 C   0  0  0  0  0  0  0  0  0  0  0  0
    4.8690   -7.4380   26.4151 C   0  0  0  0  0  0  0  0  0  0  0  0
    2.3021   -5.6726   26.0378 C   0  0  0  0  0  0  0  0  0  0  0  0
    7.0880   -4.6163   27.0010 C   0  0  0  0  0  0  0  0  0  0  0  0
    8.3117   -4.3698   27.4436 C   0  0  0  0  0  0  0  0  0  0  0  0
    1.1339   -5.0515   26.3541 C   0  0  0  0  0  0  0  0  0  0  0  0
    4.8080   -8.0362   16.7101 C   0  0  0  0  0  0  0  0  0  0  0  0
   -1.2173   -3.9294   26.9717 O   0  0  0  0  0  0  0  0  0  0  0  0
   -1.0025   -5.0942   27.4586 C   0  0  0  0  0  0  0  0  0  0  0  0
    2.2474   -8.9123   16.6273 C   0  0  0  0  0  0  0  0  0  0  0  0
    4.4957   -9.2636   17.3041 C   0  0  0  0  0  0  0  0  0  0  0  0
   -1.8070   -5.6086   28.1920 O   0  0  0  0  0  0  0  0  0  0  0  0
   10.4296   -5.1799   28.3140 C   0  0  0  0  0  0  0  0  0  0  0  0
    6.6017   -5.9004   26.9187 C   0  0  0  0  0  0  0  0  0  0  0  0
    2.4761   -6.9940   26.4111 N   0  0  0  0  0  0  0  0  0  0  0  0
    9.1353   -5.4053   27.8239 C   0  0  0  0  0  0  0  0  0  0  0  0
    0.9922   -9.3232   16.5995 O   0  0  0  0  0  0  0  0  0  0  0  0
    1.5232   -7.6869   27.1182 C   0  0  0  0  0  0  0  0  0  0  0  0
    8.6878   -6.6715   27.7262 N   0  0  0  0  0  0  0  0  0  0  0  0
    6.9911   -8.2423   27.1808 C   0  0  0  0  0  0  0  0  0  0  0  0
    3.8436   -7.2758   16.0578 C   0  0  0  0  0  0  0  0  0  0  0  0
    3.1882   -9.7190   17.2566 C   0  0  0  0  0  0  0  0  0  0  0  0
    5.3488   -6.1737   26.5092 C   0  0  0  0  0  0  0  0  0  0  0  0
    7.4567   -6.9464   27.2858 C   0  0  0  0  0  0  0  0  0  0  0  0
    0.1921   -5.7592   27.1123 C   0  0  0  0  0  0  0  0  0  0  0  0
    3.5517   -7.7407   25.9711 C   0  0  0  0  0  0  0  0  0  0  0  0
  1  4  4  0
  1 22  4  0
  2 20  4  0
  2 27  4  0
  3 12  4  0
  3 23  4  0
  4 25  4  0
  4 28  1  0
  5  8  4  0
  5 17  4  0
  6  7  4  0
  6 16  4  0
  7 18  4  0
  8 27  4  0
  9 13  4  0
  9 23  4  0
 10 11  1  0
 11 14  2  0
 11 27  1  0
 12 19  1  0
 12 24  4  0
 13 24  4  0
 15 18  1  0
 16 25  4  0
 16 26  4  0
 17 20  4  0
 17 28  1  0
 18 21  4  0
 21 26  4  0
 22 26  4  0
M  END
$$$$

 Created by Python create_sdf_string function

 28 30  0  0  0  0  0  0  0  0999 V2000
    5.7174   -8.4529   26.7190 C   0  0  0  0  0  0  0  0  0  0  0  0
    0.3974   -7.0711   27.5149 C   0  0  0  0  0  0  0  0  0  0  0  0
    2.5338   -7.6891   16.0102 C   0  0  0  0  0  0  0  0  0  0  0  0
    4.8690   -7.4380   26.4151 C   0  0  0  0  0  0  0  0  0  0  0  0
    2.3021   -5.6726   26.0378 C   0  0  0  0  0  0  0  0  0  0  0  0
    7.0880   -4.6163   27.0010 C   0  0  0  0  0  0  0  0  0  0  0  0
    8.3117   -4.3698   27.4436 C   0  0  0  0  0  0  0  0  0  0  0  0
    1.1339   -5.0515   26.3541 C   0  0  0  0  0  0  0  0  0  0  0  0
    4.8080   -8.0362   16.7101 C   0  0  0  0  0  0  0  0  0  0  0  0
   -1.2173   -3.9294   26.9717 O   0  0  0  0  0  0  0  0  0  0  0  0
   -1.0025   -5.0942   27.4586 C   0  0  0  0  0  0  0  0  0  0  0  0
    2.2474   -8.9123   16.6273 C   0  0  0  0  0  0  0  0  0  0  0  0
    4.4957   -9.2636   17.3041 C   0  0  0  0  0  0  0  0  0  0  0  0
   -1.8070   -5.6086   28.1920 O   0  0  0  0  0  0  0  0  0  0  0  0
   10.4296   -5.1799   28.3140 C   0  0  0  0  0  0  0  0  0  0  0  0
    6.6017   -5.9004   26.9187 C   0  0  0  0  0  0  0  0  0  0  0  0
    2.4761   -6.9940   26.4111 N   0  0  0  0  0  0  0  0  0  0  0  0
    9.1353   -5.4053   27.8239 C   0  0  0  0  0  0  0  0  0  0  0  0
    0.9922   -9.3232   16.5995 O   0  0  0  0  0  0  0  0  0  0  0  0
    1.5232   -7.6869   27.1182 C   0  0  0  0  0  0  0  0  0  0  0  0
    8.6878   -6.6715   27.7262 N   0  0  0  0  0  0  0  0  0  0  0  0
    6.9911   -8.2423   27.1808 C   0  0  0  0  0  0  0  0  0  0  0  0
    3.8436   -7.2758   16.0578 C   0  0  0  0  0  0  0  0  0  0  0  0
    3.1882   -9.7190   17.2566 C   0  0  0  0  0  0  0  0  0  0  0  0
    5.3488   -6.1737   26.5092 C   0  0  0  0  0  0  0  0  0  0  0  0
    7.4567   -6.9464   27.2858 C   0  0  0  0  0  0  0  0  0  0  0  0
    0.1921   -5.7592   27.1123 C   0  0  0  0  0  0  0  0  0  0  0  0
    3.5517   -7.7407   25.9711 C   0  0  0  0  0  0  0  0  0  0  0  0
  1  4  4  0
  1 22  4  0
  2 20  4  0
  2 27  4  0
  3 12  4  0
  3 23  4  0
  4 25  4  0
  4 28  1  0
  5  8  4  0
  5 17  4  0
  6  7  4  0
  6 16  4  0
  7 18  4  0
  8 27  4  0
  9 13  4  0
  9 23  4  0
 10 11  1  0
 11 14  2  0
 11 27  1  0
 12 19  1  0
 12 24  4  0
 13 24  4  0
 15 18  1  0
 16 25  4  0
 16 26  4  0
 17 20  4  0
 17 28  1  0
 18 21  4  0
 21 26  4  0
 22 26  4  0
M  END
$$$$

 Created by Python create_sdf_string function

 28 30  0  0  0  0  0  0  0  0999 V2000
    5.7174   -8.4529   26.7190 C   0  0  0  0  0  0  0  0  0  0  0  0
    0.3974   -7.0711   27.5149 C   0  0  0  0  0  0  0  0  0  0  0  0
    2.5338   -7.6891   16.0102 C   0  0  0  0  0  0  0  0  0  0  0  0
    4.8690   -7.4380   26.4151 C   0  0  0  0  0  0  0  0  0  0  0  0
    2.3021   -5.6726   26.0378 C   0  0  0  0  0  0  0  0  0  0  0  0
    7.0880   -4.6163   27.0010 C   0  0  0  0  0  0  0  0  0  0  0  0
    8.3117   -4.3698   27.4436 C   0  0  0  0  0  0  0  0  0  0  0  0
    1.1339   -5.0515   26.3541 C   0  0  0  0  0  0  0  0  0  0  0  0
    4.8080   -8.0362   16.7101 C   0  0  0  0  0  0  0  0  0  0  0  0
   -1.2173   -3.9294   26.9717 O   0  0  0  0  0  0  0  0  0  0  0  0
   -1.0025   -5.0942   27.4586 C   0  0  0  0  0  0  0  0  0  0  0  0
    2.2474   -8.9123   16.6273 C   0  0  0  0  0  0  0  0  0  0  0  0
    4.4957   -9.2636   17.3041 C   0  0  0  0  0  0  0  0  0  0  0  0
   -1.8070   -5.6086   28.1920 O   0  0  0  0  0  0  0  0  0  0  0  0
   10.4296   -5.1799   28.3140 C   0  0  0  0  0  0  0  0  0  0  0  0
    6.6017   -5.9004   26.9187 C   0  0  0  0  0  0  0  0  0  0  0  0
    2.4761   -6.9940   26.4111 N   0  0  0  0  0  0  0  0  0  0  0  0
    9.1353   -5.4053   27.8239 C   0  0  0  0  0  0  0  0  0  0  0  0
    0.9922   -9.3232   16.5995 O   0  0  0  0  0  0  0  0  0  0  0  0
    1.5232   -7.6869   27.1182 C   0  0  0  0  0  0  0  0  0  0  0  0
    8.6878   -6.6715   27.7262 N   0  0  0  0  0  0  0  0  0  0  0  0
    6.9911   -8.2423   27.1808 C   0  0  0  0  0  0  0  0  0  0  0  0
    3.8436   -7.2758   16.0578 C   0  0  0  0  0  0  0  0  0  0  0  0
    3.1882   -9.7190   17.2566 C   0  0  0  0  0  0  0  0  0  0  0  0
    5.3488   -6.1737   26.5092 C   0  0  0  0  0  0  0  0  0  0  0  0
    7.4567   -6.9464   27.2858 C   0  0  0  0  0  0  0  0  0  0  0  0
    0.1921   -5.7592   27.1123 C   0  0  0  0  0  0  0  0  0  0  0  0
    3.5517   -7.7407   25.9711 C   0  0  0  0  0  0  0  0  0  0  0  0
  1  4  4  0
  1 22  4  0
  2 20  4  0
  2 27  4  0
  3 12  4  0
  3 23  4  0
  4 25  4  0
  4 28  1  0
  5  8  4  0
  5 17  4  0
  6  7  4  0
  6 16  4  0
  7 18  4  0
  8 27  4  0
  9 13  4  0
  9 23  4  0
 10 11  1  0
 11 14  2  0
 11 27  1  0
 12 19  1  0
 12 24  4  0
 13 24  4  0
 15 18  1  0
 16 25  4  0
 16 26  4  0
 17 20  4  0
 17 28  1  0
 18 21  4  0
 21 26  4  0
 22 26  4  0
M  END
$$$$

 Created by Python create_sdf_string function

 28 30  0  0  0  0  0  0  0  0999 V2000
    5.7174   -8.4529   26.7190 C   0  0  0  0  0  0  0  0  0  0  0  0
    0.3974   -7.0711   27.5149 C   0  0  0  0  0  0  0  0  0  0  0  0
    2.5338   -7.6891   16.0102 C   0  0  0  0  0  0  0  0  0  0  0  0
    4.8690   -7.4380   26.4151 C   0  0  0  0  0  0  0  0  0  0  0  0
    2.3021   -5.6726   26.0378 C   0  0  0  0  0  0  0  0  0  0  0  0
    7.0880   -4.6163   27.0010 C   0  0  0  0  0  0  0  0  0  0  0  0
    8.3117   -4.3698   27.4436 C   0  0  0  0  0  0  0  0  0  0  0  0
    1.1339   -5.0515   26.3541 C   0  0  0  0  0  0  0  0  0  0  0  0
    4.8080   -8.0362   16.7101 C   0  0  0  0  0  0  0  0  0  0  0  0
   -1.2173   -3.9294   26.9717 O   0  0  0  0  0  0  0  0  0  0  0  0
   -1.0025   -5.0942   27.4586 C   0  0  0  0  0  0  0  0  0  0  0  0
    2.2474   -8.9123   16.6273 C   0  0  0  0  0  0  0  0  0  0  0  0
    4.4957   -9.2636   17.3041 C   0  0  0  0  0  0  0  0  0  0  0  0
   -1.8070   -5.6086   28.1920 O   0  0  0  0  0  0  0  0  0  0  0  0
   10.4296   -5.1799   28.3140 C   0  0  0  0  0  0  0  0  0  0  0  0
    6.6017   -5.9004   26.9187 C   0  0  0  0  0  0  0  0  0  0  0  0
    2.4761   -6.9940   26.4111 N   0  0  0  0  0  0  0  0  0  0  0  0
    9.1353   -5.4053   27.8239 C   0  0  0  0  0  0  0  0  0  0  0  0
    0.9922   -9.3232   16.5995 O   0  0  0  0  0  0  0  0  0  0  0  0
    1.5232   -7.6869   27.1182 C   0  0  0  0  0  0  0  0  0  0  0  0
    8.6878   -6.6715   27.7262 N   0  0  0  0  0  0  0  0  0  0  0  0
    6.9911   -8.2423   27.1808 C   0  0  0  0  0  0  0  0  0  0  0  0
    3.8436   -7.2758   16.0578 C   0  0  0  0  0  0  0  0  0  0  0  0
    3.1882   -9.7190   17.2566 C   0  0  0  0  0  0  0  0  0  0  0  0
    5.3488   -6.1737   26.5092 C   0  0  0  0  0  0  0  0  0  0  0  0
    7.4567   -6.9464   27.2858 C   0  0  0  0  0  0  0  0  0  0  0  0
    0.1921   -5.7592   27.1123 C   0  0  0  0  0  0  0  0  0  0  0  0
    3.5517   -7.7407   25.9711 C   0  0  0  0  0  0  0  0  0  0  0  0
  1  4  4  0
  1 22  4  0
  2 20  4  0
  2 27  4  0
  3 12  4  0
  3 23  4  0
  4 25  4  0
  4 28  1  0
  5  8  4  0
  5 17  4  0
  6  7  4  0
  6 16  4  0
  7 18  4  0
  8 27  4  0
  9 13  4  0
  9 23  4  0
 10 11  1  0
 11 14  2  0
 11 27  1  0
 12 19  1  0
 12 24  4  0
 13 24  4  0
 15 18  1  0
 16 25  4  0
 16 26  4  0
 17 20  4  0
 17 28  1  0
 18 21  4  0
 21 26  4  0
 22 26  4  0
M  END
$$$$

 Created by Python create_sdf_string function

 28 30  0  0  0  0  0  0  0  0999 V2000
    5.7174   -8.4529   26.7190 C   0  0  0  0  0  0  0  0  0  0  0  0
    0.3974   -7.0711   27.5149 C   0  0  0  0  0  0  0  0  0  0  0  0
    2.5338   -7.6891   16.0102 C   0  0  0  0  0  0  0  0  0  0  0  0
    4.8690   -7.4380   26.4151 C   0  0  0  0  0  0  0  0  0  0  0  0
    2.3021   -5.6726   26.0378 C   0  0  0  0  0  0  0  0  0  0  0  0
    7.0880   -4.6163   27.0010 C   0  0  0  0  0  0  0  0  0  0  0  0
    8.3117   -4.3698   27.4436 C   0  0  0  0  0  0  0  0  0  0  0  0
    1.1339   -5.0515   26.3541 C   0  0  0  0  0  0  0  0  0  0  0  0
    4.8080   -8.0362   16.7101 C   0  0  0  0  0  0  0  0  0  0  0  0
   -1.2173   -3.9294   26.9717 O   0  0  0  0  0  0  0  0  0  0  0  0
   -1.0025   -5.0942   27.4586 C   0  0  0  0  0  0  0  0  0  0  0  0
    2.2474   -8.9123   16.6273 C   0  0  0  0  0  0  0  0  0  0  0  0
    4.4957   -9.2636   17.3041 C   0  0  0  0  0  0  0  0  0  0  0  0
   -1.8070   -5.6086   28.1920 O   0  0  0  0  0  0  0  0  0  0  0  0
   10.4296   -5.1799   28.3140 C   0  0  0  0  0  0  0  0  0  0  0  0
    6.6017   -5.9004   26.9187 C   0  0  0  0  0  0  0  0  0  0  0  0
    2.4761   -6.9940   26.4111 N   0  0  0  0  0  0  0  0  0  0  0  0
    9.1353   -5.4053   27.8239 C   0  0  0  0  0  0  0  0  0  0  0  0
    0.9922   -9.3232   16.5995 O   0  0  0  0  0  0  0  0  0  0  0  0
    1.5232   -7.6869   27.1182 C   0  0  0  0  0  0  0  0  0  0  0  0
    8.6878   -6.6715   27.7262 N   0  0  0  0  0  0  0  0  0  0  0  0
    6.9911   -8.2423   27.1808 C   0  0  0  0  0  0  0  0  0  0  0  0
    3.8436   -7.2758   16.0578 C   0  0  0  0  0  0  0  0  0  0  0  0
    3.1882   -9.7190   17.2566 C   0  0  0  0  0  0  0  0  0  0  0  0
    5.3488   -6.1737   26.5092 C   0  0  0  0  0  0  0  0  0  0  0  0
    7.4567   -6.9464   27.2858 C   0  0  0  0  0  0  0  0  0  0  0  0
    0.1921   -5.7592   27.1123 C   0  0  0  0  0  0  0  0  0  0  0  0
    3.5517   -7.7407   25.9711 C   0  0  0  0  0  0  0  0  0  0  0  0
  1  4  4  0
  1 22  4  0
  2 20  4  0
  2 27  4  0
  3 12  4  0
  3 23  4  0
  4 25  4  0
  4 28  1  0
  5  8  4  0
  5 17  4  0
  6  7  4  0
  6 16  4  0
  7 18  4  0
  8 27  4  0
  9 13  4  0
  9 23  4  0
 10 11  1  0
 11 14  2  0
 11 27  1  0
 12 19  1  0
 12 24  4  0
 13 24  4  0
 15 18  1  0
 16 25  4  0
 16 26  4  0
 17 20  4  0
 17 28  1  0
 18 21  4  0
 21 26  4  0
 22 26  4  0
M  END
$$$$

 Created by Python create_sdf_string function

 28 30  0  0  0  0  0  0  0  0999 V2000
    5.7174   -8.4529   26.7190 C   0  0  0  0  0  0  0  0  0  0  0  0
    0.3974   -7.0711   27.5149 C   0  0  0  0  0  0  0  0  0  0  0  0
    2.5338   -7.6891   16.0102 C   0  0  0  0  0  0  0  0  0  0  0  0
    4.8690   -7.4380   26.4151 C   0  0  0  0  0  0  0  0  0  0  0  0
    2.3021   -5.6726   26.0378 C   0  0  0  0  0  0  0  0  0  0  0  0
    7.0880   -4.6163   27.0010 C   0  0  0  0  0  0  0  0  0  0  0  0
    8.3117   -4.3698   27.4436 C   0  0  0  0  0  0  0  0  0  0  0  0
    1.1339   -5.0515   26.3541 C   0  0  0  0  0  0  0  0  0  0  0  0
    4.8080   -8.0362   16.7101 C   0  0  0  0  0  0  0  0  0  0  0  0
   -1.2173   -3.9294   26.9717 O   0  0  0  0  0  0  0  0  0  0  0  0
   -1.0025   -5.0942   27.4586 C   0  0  0  0  0  0  0  0  0  0  0  0
    2.2474   -8.9123   16.6273 C   0  0  0  0  0  0  0  0  0  0  0  0
    4.4957   -9.2636   17.3041 C   0  0  0  0  0  0  0  0  0  0  0  0
   -1.8070   -5.6086   28.1920 O   0  0  0  0  0  0  0  0  0  0  0  0
   10.4296   -5.1799   28.3140 C   0  0  0  0  0  0  0  0  0  0  0  0
    6.6017   -5.9004   26.9187 C   0  0  0  0  0  0  0  0  0  0  0  0
    2.4761   -6.9940   26.4111 N   0  0  0  0  0  0  0  0  0  0  0  0
    9.1353   -5.4053   27.8239 C   0  0  0  0  0  0  0  0  0  0  0  0
    0.9922   -9.3232   16.5995 O   0  0  0  0  0  0  0  0  0  0  0  0
    1.5232   -7.6869   27.1182 C   0  0  0  0  0  0  0  0  0  0  0  0
    8.6878   -6.6715   27.7262 N   0  0  0  0  0  0  0  0  0  0  0  0
    6.9911   -8.2423   27.1808 C   0  0  0  0  0  0  0  0  0  0  0  0
    3.8436   -7.2758   16.0578 C   0  0  0  0  0  0  0  0  0  0  0  0
    3.1882   -9.7190   17.2566 C   0  0  0  0  0  0  0  0  0  0  0  0
    5.3488   -6.1737   26.5092 C   0  0  0  0  0  0  0  0  0  0  0  0
    7.4567   -6.9464   27.2858 C   0  0  0  0  0  0  0  0  0  0  0  0
    0.1921   -5.7592   27.1123 C   0  0  0  0  0  0  0  0  0  0  0  0
    3.5517   -7.7407   25.9711 C   0  0  0  0  0  0  0  0  0  0  0  0
  1  4  4  0
  1 22  4  0
  2 20  4  0
  2 27  4  0
  3 12  4  0
  3 23  4  0
  4 25  4  0
  4 28  1  0
  5  8  4  0
  5 17  4  0
  6  7  4  0
  6 16  4  0
  7 18  4  0
  8 27  4  0
  9 13  4  0
  9 23  4  0
 10 11  1  0
 11 14  2  0
 11 27  1  0
 12 19  1  0
 12 24  4  0
 13 24  4  0
 15 18  1  0
 16 25  4  0
 16 26  4  0
 17 20  4  0
 17 28  1  0
 18 21  4  0
 21 26  4  0
 22 26  4  0
M  END
$$$$

 Created by Python create_sdf_string function

 28 30  0  0  0  0  0  0  0  0999 V2000
    5.7174   -8.4529   26.7190 C   0  0  0  0  0  0  0  0  0  0  0  0
    0.3974   -7.0711   27.5149 C   0  0  0  0  0  0  0  0  0  0  0  0
    2.5338   -7.6891   16.0102 C   0  0  0  0  0  0  0  0  0  0  0  0
    4.8690   -7.4380   26.4151 C   0  0  0  0  0  0  0  0  0  0  0  0
    2.3021   -5.6726   26.0378 C   0  0  0  0  0  0  0  0  0  0  0  0
    7.0880   -4.6163   27.0010 C   0  0  0  0  0  0  0  0  0  0  0  0
    8.3117   -4.3698   27.4436 C   0  0  0  0  0  0  0  0  0  0  0  0
    1.1339   -5.0515   26.3541 C   0  0  0  0  0  0  0  0  0  0  0  0
    4.8080   -8.0362   16.7101 C   0  0  0  0  0  0  0  0  0  0  0  0
   -1.2173   -3.9294   26.9717 O   0  0  0  0  0  0  0  0  0  0  0  0
   -1.0025   -5.0942   27.4586 C   0  0  0  0  0  0  0  0  0  0  0  0
    2.2474   -8.9123   16.6273 C   0  0  0  0  0  0  0  0  0  0  0  0
    4.4957   -9.2636   17.3041 C   0  0  0  0  0  0  0  0  0  0  0  0
   -1.8070   -5.6086   28.1920 O   0  0  0  0  0  0  0  0  0  0  0  0
   10.4296   -5.1799   28.3140 C   0  0  0  0  0  0  0  0  0  0  0  0
    6.6017   -5.9004   26.9187 C   0  0  0  0  0  0  0  0  0  0  0  0
    2.4761   -6.9940   26.4111 N   0  0  0  0  0  0  0  0  0  0  0  0
    9.1353   -5.4053   27.8239 C   0  0  0  0  0  0  0  0  0  0  0  0
    0.9922   -9.3232   16.5995 O   0  0  0  0  0  0  0  0  0  0  0  0
    1.5232   -7.6869   27.1182 C   0  0  0  0  0  0  0  0  0  0  0  0
    8.6878   -6.6715   27.7262 N   0  0  0  0  0  0  0  0  0  0  0  0
    6.9911   -8.2423   27.1808 C   0  0  0  0  0  0  0  0  0  0  0  0
    3.8436   -7.2758   16.0578 C   0  0  0  0  0  0  0  0  0  0  0  0
    3.1882   -9.7190   17.2566 C   0  0  0  0  0  0  0  0  0  0  0  0
    5.3488   -6.1737   26.5092 C   0  0  0  0  0  0  0  0  0  0  0  0
    7.4567   -6.9464   27.2858 C   0  0  0  0  0  0  0  0  0  0  0  0
    0.1921   -5.7592   27.1123 C   0  0  0  0  0  0  0  0  0  0  0  0
    3.5517   -7.7407   25.9711 C   0  0  0  0  0  0  0  0  0  0  0  0
  1  4  4  0
  1 22  4  0
  2 20  4  0
  2 27  4  0
  3 12  4  0
  3 23  4  0
  4 25  4  0
  4 28  1  0
  5  8  4  0
  5 17  4  0
  6  7  4  0
  6 16  4  0
  7 18  4  0
  8 27  4  0
  9 13  4  0
  9 23  4  0
 10 11  1  0
 11 14  2  0
 11 27  1  0
 12 19  1  0
 12 24  4  0
 13 24  4  0
 15 18  1  0
 16 25  4  0
 16 26  4  0
 17 20  4  0
 17 28  1  0
 18 21  4  0
 21 26  4  0
 22 26  4  0
M  END
$$$$

 Created by Python create_sdf_string function

 28 30  0  0  0  0  0  0  0  0999 V2000
    5.7174   -8.4529   26.7190 C   0  0  0  0  0  0  0  0  0  0  0  0
    0.3974   -7.0711   27.5149 C   0  0  0  0  0  0  0  0  0  0  0  0
    2.5338   -7.6891   16.0102 C   0  0  0  0  0  0  0  0  0  0  0  0
    4.8690   -7.4380   26.4151 C   0  0  0  0  0  0  0  0  0  0  0  0
    2.3021   -5.6726   26.0378 C   0  0  0  0  0  0  0  0  0  0  0  0
    7.0880   -4.6163   27.0010 C   0  0  0  0  0  0  0  0  0  0  0  0
    8.3117   -4.3698   27.4436 C   0  0  0  0  0  0  0  0  0  0  0  0
    1.1339   -5.0515   26.3541 C   0  0  0  0  0  0  0  0  0  0  0  0
    4.8080   -8.0362   16.7101 C   0  0  0  0  0  0  0  0  0  0  0  0
   -1.2173   -3.9294   26.9717 O   0  0  0  0  0  0  0  0  0  0  0  0
   -1.0025   -5.0942   27.4586 C   0  0  0  0  0  0  0  0  0  0  0  0
    2.2474   -8.9123   16.6273 C   0  0  0  0  0  0  0  0  0  0  0  0
    4.4957   -9.2636   17.3041 C   0  0  0  0  0  0  0  0  0  0  0  0
   -1.8070   -5.6086   28.1920 O   0  0  0  0  0  0  0  0  0  0  0  0
   10.4296   -5.1799   28.3140 C   0  0  0  0  0  0  0  0  0  0  0  0
    6.6017   -5.9004   26.9187 C   0  0  0  0  0  0  0  0  0  0  0  0
    2.4761   -6.9940   26.4111 N   0  0  0  0  0  0  0  0  0  0  0  0
    9.1353   -5.4053   27.8239 C   0  0  0  0  0  0  0  0  0  0  0  0
    0.9922   -9.3232   16.5995 O   0  0  0  0  0  0  0  0  0  0  0  0
    1.5232   -7.6869   27.1182 C   0  0  0  0  0  0  0  0  0  0  0  0
    8.6878   -6.6715   27.7262 N   0  0  0  0  0  0  0  0  0  0  0  0
    6.9911   -8.2423   27.1808 C   0  0  0  0  0  0  0  0  0  0  0  0
    3.8436   -7.2758   16.0578 C   0  0  0  0  0  0  0  0  0  0  0  0
    3.1882   -9.7190   17.2566 C   0  0  0  0  0  0  0  0  0  0  0  0
    5.3488   -6.1737   26.5092 C   0  0  0  0  0  0  0  0  0  0  0  0
    7.4567   -6.9464   27.2858 C   0  0  0  0  0  0  0  0  0  0  0  0
    0.1921   -5.7592   27.1123 C   0  0  0  0  0  0  0  0  0  0  0  0
    3.5517   -7.7407   25.9711 C   0  0  0  0  0  0  0  0  0  0  0  0
  1  4  4  0
  1 22  4  0
  2 20  4  0
  2 27  4  0
  3 12  4  0
  3 23  4  0
  4 25  4  0
  4 28  1  0
  5  8  4  0
  5 17  4  0
  6  7  4  0
  6 16  4  0
  7 18  4  0
  8 27  4  0
  9 13  4  0
  9 23  4  0
 10 11  1  0
 11 14  2  0
 11 27  1  0
 12 19  1  0
 12 24  4  0
 13 24  4  0
 15 18  1  0
 16 25  4  0
 16 26  4  0
 17 20  4  0
 17 28  1  0
 18 21  4  0
 21 26  4  0
 22 26  4  0
M  END
$$$$

 Created by Python create_sdf_string function

 28 30  0  0  0  0  0  0  0  0999 V2000
    5.7174   -8.4529   26.7190 C   0  0  0  0  0  0  0  0  0  0  0  0
    0.3974   -7.0711   27.5149 C   0  0  0  0  0  0  0  0  0  0  0  0
    2.5338   -7.6891   16.0102 C   0  0  0  0  0  0  0  0  0  0  0  0
    4.8690   -7.4380   26.4151 C   0  0  0  0  0  0  0  0  0  0  0  0
    2.3021   -5.6726   26.0378 C   0  0  0  0  0  0  0  0  0  0  0  0
    7.0880   -4.6163   27.0010 C   0  0  0  0  0  0  0  0  0  0  0  0
    8.3117   -4.3698   27.4436 C   0  0  0  0  0  0  0  0  0  0  0  0
    1.1339   -5.0515   26.3541 C   0  0  0  0  0  0  0  0  0  0  0  0
    4.8080   -8.0362   16.7101 C   0  0  0  0  0  0  0  0  0  0  0  0
   -1.2173   -3.9294   26.9717 O   0  0  0  0  0  0  0  0  0  0  0  0
   -1.0025   -5.0942   27.4586 C   0  0  0  0  0  0  0  0  0  0  0  0
    2.2474   -8.9123   16.6273 C   0  0  0  0  0  0  0  0  0  0  0  0
    4.4957   -9.2636   17.3041 C   0  0  0  0  0  0  0  0  0  0  0  0
   -1.8070   -5.6086   28.1920 O   0  0  0  0  0  0  0  0  0  0  0  0
   10.4296   -5.1799   28.3140 C   0  0  0  0  0  0  0  0  0  0  0  0
    6.6017   -5.9004   26.9187 C   0  0  0  0  0  0  0  0  0  0  0  0
    2.4761   -6.9940   26.4111 N   0  0  0  0  0  0  0  0  0  0  0  0
    9.1353   -5.4053   27.8239 C   0  0  0  0  0  0  0  0  0  0  0  0
    0.9922   -9.3232   16.5995 O   0  0  0  0  0  0  0  0  0  0  0  0
    1.5232   -7.6869   27.1182 C   0  0  0  0  0  0  0  0  0  0  0  0
    8.6878   -6.6715   27.7262 N   0  0  0  0  0  0  0  0  0  0  0  0
    6.9911   -8.2423   27.1808 C   0  0  0  0  0  0  0  0  0  0  0  0
    3.8436   -7.2758   16.0578 C   0  0  0  0  0  0  0  0  0  0  0  0
    3.1882   -9.7190   17.2566 C   0  0  0  0  0  0  0  0  0  0  0  0
    5.3488   -6.1737   26.5092 C   0  0  0  0  0  0  0  0  0  0  0  0
    7.4567   -6.9464   27.2858 C   0  0  0  0  0  0  0  0  0  0  0  0
    0.1921   -5.7592   27.1123 C   0  0  0  0  0  0  0  0  0  0  0  0
    3.5517   -7.7407   25.9711 C   0  0  0  0  0  0  0  0  0  0  0  0
  1  4  4  0
  1 22  4  0
  2 20  4  0
  2 27  4  0
  3 12  4  0
  3 23  4  0
  4 25  4  0
  4 28  1  0
  5  8  4  0
  5 17  4  0
  6  7  4  0
  6 16  4  0
  7 18  4  0
  8 27  4  0
  9 13  4  0
  9 23  4  0
 10 11  1  0
 11 14  2  0
 11 27  1  0
 12 19  1  0
 12 24  4  0
 13 24  4  0
 15 18  1  0
 16 25  4  0
 16 26  4  0
 17 20  4  0
 17 28  1  0
 18 21  4  0
 21 26  4  0
 22 26  4  0
M  END
$$$$

 Created by Python create_sdf_string function

 28 30  0  0  0  0  0  0  0  0999 V2000
    5.7174   -8.4529   26.7190 C   0  0  0  0  0  0  0  0  0  0  0  0
    0.3974   -7.0711   27.5149 C   0  0  0  0  0  0  0  0  0  0  0  0
    2.5338   -7.6891   16.0102 C   0  0  0  0  0  0  0  0  0  0  0  0
    4.8690   -7.4380   26.4151 C   0  0  0  0  0  0  0  0  0  0  0  0
    2.3021   -5.6726   26.0378 C   0  0  0  0  0  0  0  0  0  0  0  0
    7.0880   -4.6163   27.0010 C   0  0  0  0  0  0  0  0  0  0  0  0
    8.3117   -4.3698   27.4436 C   0  0  0  0  0  0  0  0  0  0  0  0
    1.1339   -5.0515   26.3541 C   0  0  0  0  0  0  0  0  0  0  0  0
    4.8080   -8.0362   16.7101 C   0  0  0  0  0  0  0  0  0  0  0  0
   -1.2173   -3.9294   26.9717 O   0  0  0  0  0  0  0  0  0  0  0  0
   -1.0025   -5.0942   27.4586 C   0  0  0  0  0  0  0  0  0  0  0  0
    2.2474   -8.9123   16.6273 C   0  0  0  0  0  0  0  0  0  0  0  0
    4.4957   -9.2636   17.3041 C   0  0  0  0  0  0  0  0  0  0  0  0
   -1.8070   -5.6086   28.1920 O   0  0  0  0  0  0  0  0  0  0  0  0
   10.4296   -5.1799   28.3140 C   0  0  0  0  0  0  0  0  0  0  0  0
    6.6017   -5.9004   26.9187 C   0  0  0  0  0  0  0  0  0  0  0  0
    2.4761   -6.9940   26.4111 N   0  0  0  0  0  0  0  0  0  0  0  0
    9.1353   -5.4053   27.8239 C   0  0  0  0  0  0  0  0  0  0  0  0
    0.9922   -9.3232   16.5995 O   0  0  0  0  0  0  0  0  0  0  0  0
    1.5232   -7.6869   27.1182 C   0  0  0  0  0  0  0  0  0  0  0  0
    8.6878   -6.6715   27.7262 N   0  0  0  0  0  0  0  0  0  0  0  0
    6.9911   -8.2423   27.1808 C   0  0  0  0  0  0  0  0  0  0  0  0
    3.8436   -7.2758   16.0578 C   0  0  0  0  0  0  0  0  0  0  0  0
    3.1882   -9.7190   17.2566 C   0  0  0  0  0  0  0  0  0  0  0  0
    5.3488   -6.1737   26.5092 C   0  0  0  0  0  0  0  0  0  0  0  0
    7.4567   -6.9464   27.2858 C   0  0  0  0  0  0  0  0  0  0  0  0
    0.1921   -5.7592   27.1123 C   0  0  0  0  0  0  0  0  0  0  0  0
    3.5517   -7.7407   25.9711 C   0  0  0  0  0  0  0  0  0  0  0  0
  1  4  4  0
  1 22  4  0
  2 20  4  0
  2 27  4  0
  3 12  4  0
  3 23  4  0
  4 25  4  0
  4 28  1  0
  5  8  4  0
  5 17  4  0
  6  7  4  0
  6 16  4  0
  7 18  4  0
  8 27  4  0
  9 13  4  0
  9 23  4  0
 10 11  1  0
 11 14  2  0
 11 27  1  0
 12 19  1  0
 12 24  4  0
 13 24  4  0
 15 18  1  0
 16 25  4  0
 16 26  4  0
 17 20  4  0
 17 28  1  0
 18 21  4  0
 21 26  4  0
 22 26  4  0
M  END
$$$$

 Created by Python create_sdf_string function

 28 30  0  0  0  0  0  0  0  0999 V2000
    5.7174   -8.4529   26.7190 C   0  0  0  0  0  0  0  0  0  0  0  0
    0.3974   -7.0711   27.5149 C   0  0  0  0  0  0  0  0  0  0  0  0
    2.5338   -7.6891   16.0102 C   0  0  0  0  0  0  0  0  0  0  0  0
    4.8690   -7.4380   26.4151 C   0  0  0  0  0  0  0  0  0  0  0  0
    2.3021   -5.6726   26.0378 C   0  0  0  0  0  0  0  0  0  0  0  0
    7.0880   -4.6163   27.0010 C   0  0  0  0  0  0  0  0  0  0  0  0
    8.3117   -4.3698   27.4436 C   0  0  0  0  0  0  0  0  0  0  0  0
    1.1339   -5.0515   26.3541 C   0  0  0  0  0  0  0  0  0  0  0  0
    4.8080   -8.0362   16.7101 C   0  0  0  0  0  0  0  0  0  0  0  0
   -1.2173   -3.9294   26.9717 O   0  0  0  0  0  0  0  0  0  0  0  0
   -1.0025   -5.0942   27.4586 C   0  0  0  0  0  0  0  0  0  0  0  0
    2.2474   -8.9123   16.6273 C   0  0  0  0  0  0  0  0  0  0  0  0
    4.4957   -9.2636   17.3041 C   0  0  0  0  0  0  0  0  0  0  0  0
   -1.8070   -5.6086   28.1920 O   0  0  0  0  0  0  0  0  0  0  0  0
   10.4296   -5.1799   28.3140 C   0  0  0  0  0  0  0  0  0  0  0  0
    6.6017   -5.9004   26.9187 C   0  0  0  0  0  0  0  0  0  0  0  0
    2.4761   -6.9940   26.4111 N   0  0  0  0  0  0  0  0  0  0  0  0
    9.1353   -5.4053   27.8239 C   0  0  0  0  0  0  0  0  0  0  0  0
    0.9922   -9.3232   16.5995 O   0  0  0  0  0  0  0  0  0  0  0  0
    1.5232   -7.6869   27.1182 C   0  0  0  0  0  0  0  0  0  0  0  0
    8.6878   -6.6715   27.7262 N   0  0  0  0  0  0  0  0  0  0  0  0
    6.9911   -8.2423   27.1808 C   0  0  0  0  0  0  0  0  0  0  0  0
    3.8436   -7.2758   16.0578 C   0  0  0  0  0  0  0  0  0  0  0  0
    3.1882   -9.7190   17.2566 C   0  0  0  0  0  0  0  0  0  0  0  0
    5.3488   -6.1737   26.5092 C   0  0  0  0  0  0  0  0  0  0  0  0
    7.4567   -6.9464   27.2858 C   0  0  0  0  0  0  0  0  0  0  0  0
    0.1921   -5.7592   27.1123 C   0  0  0  0  0  0  0  0  0  0  0  0
    3.5517   -7.7407   25.9711 C   0  0  0  0  0  0  0  0  0  0  0  0
  1  4  4  0
  1 22  4  0
  2 20  4  0
  2 27  4  0
  3 12  4  0
  3 23  4  0
  4 25  4  0
  4 28  1  0
  5  8  4  0
  5 17  4  0
  6  7  4  0
  6 16  4  0
  7 18  4  0
  8 27  4  0
  9 13  4  0
  9 23  4  0
 10 11  1  0
 11 14  2  0
 11 27  1  0
 12 19  1  0
 12 24  4  0
 13 24  4  0
 15 18  1  0
 16 25  4  0
 16 26  4  0
 17 20  4  0
 17 28  1  0
 18 21  4  0
 21 26  4  0
 22 26  4  0
M  END
$$$$

 Created by Python create_sdf_string function

 28 30  0  0  0  0  0  0  0  0999 V2000
    5.7174   -8.4529   26.7190 C   0  0  0  0  0  0  0  0  0  0  0  0
    0.3974   -7.0711   27.5149 C   0  0  0  0  0  0  0  0  0  0  0  0
    2.5338   -7.6891   16.0102 C   0  0  0  0  0  0  0  0  0  0  0  0
    4.8690   -7.4380   26.4151 C   0  0  0  0  0  0  0  0  0  0  0  0
    2.3021   -5.6726   26.0378 C   0  0  0  0  0  0  0  0  0  0  0  0
    7.0880   -4.6163   27.0010 C   0  0  0  0  0  0  0  0  0  0  0  0
    8.3117   -4.3698   27.4436 C   0  0  0  0  0  0  0  0  0  0  0  0
    1.1339   -5.0515   26.3541 C   0  0  0  0  0  0  0  0  0  0  0  0
    4.8080   -8.0362   16.7101 C   0  0  0  0  0  0  0  0  0  0  0  0
   -1.2173   -3.9294   26.9717 O   0  0  0  0  0  0  0  0  0  0  0  0
   -1.0025   -5.0942   27.4586 C   0  0  0  0  0  0  0  0  0  0  0  0
    2.2474   -8.9123   16.6273 C   0  0  0  0  0  0  0  0  0  0  0  0
    4.4957   -9.2636   17.3041 C   0  0  0  0  0  0  0  0  0  0  0  0
   -1.8070   -5.6086   28.1920 O   0  0  0  0  0  0  0  0  0  0  0  0
   10.4296   -5.1799   28.3140 C   0  0  0  0  0  0  0  0  0  0  0  0
    6.6017   -5.9004   26.9187 C   0  0  0  0  0  0  0  0  0  0  0  0
    2.4761   -6.9940   26.4111 N   0  0  0  0  0  0  0  0  0  0  0  0
    9.1353   -5.4053   27.8239 C   0  0  0  0  0  0  0  0  0  0  0  0
    0.9922   -9.3232   16.5995 O   0  0  0  0  0  0  0  0  0  0  0  0
    1.5232   -7.6869   27.1182 C   0  0  0  0  0  0  0  0  0  0  0  0
    8.6878   -6.6715   27.7262 N   0  0  0  0  0  0  0  0  0  0  0  0
    6.9911   -8.2423   27.1808 C   0  0  0  0  0  0  0  0  0  0  0  0
    3.8436   -7.2758   16.0578 C   0  0  0  0  0  0  0  0  0  0  0  0
    3.1882   -9.7190   17.2566 C   0  0  0  0  0  0  0  0  0  0  0  0
    5.3488   -6.1737   26.5092 C   0  0  0  0  0  0  0  0  0  0  0  0
    7.4567   -6.9464   27.2858 C   0  0  0  0  0  0  0  0  0  0  0  0
    0.1921   -5.7592   27.1123 C   0  0  0  0  0  0  0  0  0  0  0  0
    3.5517   -7.7407   25.9711 C   0  0  0  0  0  0  0  0  0  0  0  0
  1  4  4  0
  1 22  4  0
  2 20  4  0
  2 27  4  0
  3 12  4  0
  3 23  4  0
  4 25  4  0
  4 28  1  0
  5  8  4  0
  5 17  4  0
  6  7  4  0
  6 16  4  0
  7 18  4  0
  8 27  4  0
  9 13  4  0
  9 23  4  0
 10 11  1  0
 11 14  2  0
 11 27  1  0
 12 19  1  0
 12 24  4  0
 13 24  4  0
 15 18  1  0
 16 25  4  0
 16 26  4  0
 17 20  4  0
 17 28  1  0
 18 21  4  0
 21 26  4  0
 22 26  4  0
M  END
$$$$

 Created by Python create_sdf_string function

 28 30  0  0  0  0  0  0  0  0999 V2000
    5.7174   -8.4529   26.7190 C   0  0  0  0  0  0  0  0  0  0  0  0
    0.3974   -7.0711   27.5149 C   0  0  0  0  0  0  0  0  0  0  0  0
    2.5338   -7.6891   16.0102 C   0  0  0  0  0  0  0  0  0  0  0  0
    4.8690   -7.4380   26.4151 C   0  0  0  0  0  0  0  0  0  0  0  0
    2.3021   -5.6726   26.0378 C   0  0  0  0  0  0  0  0  0  0  0  0
    7.0880   -4.6163   27.0010 C   0  0  0  0  0  0  0  0  0  0  0  0
    8.3117   -4.3698   27.4436 C   0  0  0  0  0  0  0  0  0  0  0  0
    1.1339   -5.0515   26.3541 C   0  0  0  0  0  0  0  0  0  0  0  0
    4.8080   -8.0362   16.7101 C   0  0  0  0  0  0  0  0  0  0  0  0
   -1.2173   -3.9294   26.9717 O   0  0  0  0  0  0  0  0  0  0  0  0
   -1.0025   -5.0942   27.4586 C   0  0  0  0  0  0  0  0  0  0  0  0
    2.2474   -8.9123   16.6273 C   0  0  0  0  0  0  0  0  0  0  0  0
    4.4957   -9.2636   17.3041 C   0  0  0  0  0  0  0  0  0  0  0  0
   -1.8070   -5.6086   28.1920 O   0  0  0  0  0  0  0  0  0  0  0  0
   10.4296   -5.1799   28.3140 C   0  0  0  0  0  0  0  0  0  0  0  0
    6.6017   -5.9004   26.9187 C   0  0  0  0  0  0  0  0  0  0  0  0
    2.4761   -6.9940   26.4111 N   0  0  0  0  0  0  0  0  0  0  0  0
    9.1353   -5.4053   27.8239 C   0  0  0  0  0  0  0  0  0  0  0  0
    0.9922   -9.3232   16.5995 O   0  0  0  0  0  0  0  0  0  0  0  0
    1.5232   -7.6869   27.1182 C   0  0  0  0  0  0  0  0  0  0  0  0
    8.6878   -6.6715   27.7262 N   0  0  0  0  0  0  0  0  0  0  0  0
    6.9911   -8.2423   27.1808 C   0  0  0  0  0  0  0  0  0  0  0  0
    3.8436   -7.2758   16.0578 C   0  0  0  0  0  0  0  0  0  0  0  0
    3.1882   -9.7190   17.2566 C   0  0  0  0  0  0  0  0  0  0  0  0
    5.3488   -6.1737   26.5092 C   0  0  0  0  0  0  0  0  0  0  0  0
    7.4567   -6.9464   27.2858 C   0  0  0  0  0  0  0  0  0  0  0  0
    0.1921   -5.7592   27.1123 C   0  0  0  0  0  0  0  0  0  0  0  0
    3.5517   -7.7407   25.9711 C   0  0  0  0  0  0  0  0  0  0  0  0
  1  4  4  0
  1 22  4  0
  2 20  4  0
  2 27  4  0
  3 12  4  0
  3 23  4  0
  4 25  4  0
  4 28  1  0
  5  8  4  0
  5 17  4  0
  6  7  4  0
  6 16  4  0
  7 18  4  0
  8 27  4  0
  9 13  4  0
  9 23  4  0
 10 11  1  0
 11 14  2  0
 11 27  1  0
 12 19  1  0
 12 24  4  0
 13 24  4  0
 15 18  1  0
 16 25  4  0
 16 26  4  0
 17 20  4  0
 17 28  1  0
 18 21  4  0
 21 26  4  0
 22 26  4  0
M  END
$$$$

 Created by Python create_sdf_string function

 28 30  0  0  0  0  0  0  0  0999 V2000
    5.7174   -8.4529   26.7190 C   0  0  0  0  0  0  0  0  0  0  0  0
    0.3974   -7.0711   27.5149 C   0  0  0  0  0  0  0  0  0  0  0  0
    2.5338   -7.6891   16.0102 C   0  0  0  0  0  0  0  0  0  0  0  0
    4.8690   -7.4380   26.4151 C   0  0  0  0  0  0  0  0  0  0  0  0
    2.3021   -5.6726   26.0378 C   0  0  0  0  0  0  0  0  0  0  0  0
    7.0880   -4.6163   27.0010 C   0  0  0  0  0  0  0  0  0  0  0  0
    8.3117   -4.3698   27.4436 C   0  0  0  0  0  0  0  0  0  0  0  0
    1.1339   -5.0515   26.3541 C   0  0  0  0  0  0  0  0  0  0  0  0
    4.8080   -8.0362   16.7101 C   0  0  0  0  0  0  0  0  0  0  0  0
   -1.2173   -3.9294   26.9717 O   0  0  0  0  0  0  0  0  0  0  0  0
   -1.0025   -5.0942   27.4586 C   0  0  0  0  0  0  0  0  0  0  0  0
    2.2474   -8.9123   16.6273 C   0  0  0  0  0  0  0  0  0  0  0  0
    4.4957   -9.2636   17.3041 C   0  0  0  0  0  0  0  0  0  0  0  0
   -1.8070   -5.6086   28.1920 O   0  0  0  0  0  0  0  0  0  0  0  0
   10.4296   -5.1799   28.3140 C   0  0  0  0  0  0  0  0  0  0  0  0
    6.6017   -5.9004   26.9187 C   0  0  0  0  0  0  0  0  0  0  0  0
    2.4761   -6.9940   26.4111 N   0  0  0  0  0  0  0  0  0  0  0  0
    9.1353   -5.4053   27.8239 C   0  0  0  0  0  0  0  0  0  0  0  0
    0.9922   -9.3232   16.5995 O   0  0  0  0  0  0  0  0  0  0  0  0
    1.5232   -7.6869   27.1182 C   0  0  0  0  0  0  0  0  0  0  0  0
    8.6878   -6.6715   27.7262 N   0  0  0  0  0  0  0  0  0  0  0  0
    6.9911   -8.2423   27.1808 C   0  0  0  0  0  0  0  0  0  0  0  0
    3.8436   -7.2758   16.0578 C   0  0  0  0  0  0  0  0  0  0  0  0
    3.1882   -9.7190   17.2566 C   0  0  0  0  0  0  0  0  0  0  0  0
    5.3488   -6.1737   26.5092 C   0  0  0  0  0  0  0  0  0  0  0  0
    7.4567   -6.9464   27.2858 C   0  0  0  0  0  0  0  0  0  0  0  0
    0.1921   -5.7592   27.1123 C   0  0  0  0  0  0  0  0  0  0  0  0
    3.5517   -7.7407   25.9711 C   0  0  0  0  0  0  0  0  0  0  0  0
  1  4  4  0
  1 22  4  0
  2 20  4  0
  2 27  4  0
  3 12  4  0
  3 23  4  0
  4 25  4  0
  4 28  1  0
  5  8  4  0
  5 17  4  0
  6  7  4  0
  6 16  4  0
  7 18  4  0
  8 27  4  0
  9 13  4  0
  9 23  4  0
 10 11  1  0
 11 14  2  0
 11 27  1  0
 12 19  1  0
 12 24  4  0
 13 24  4  0
 15 18  1  0
 16 25  4  0
 16 26  4  0
 17 20  4  0
 17 28  1  0
 18 21  4  0
 21 26  4  0
 22 26  4  0
M  END
$$$$

 Created by Python create_sdf_string function

 28 30  0  0  0  0  0  0  0  0999 V2000
    5.7174   -8.4529   26.7190 C   0  0  0  0  0  0  0  0  0  0  0  0
    0.3974   -7.0711   27.5149 C   0  0  0  0  0  0  0  0  0  0  0  0
    2.5338   -7.6891   16.0102 C   0  0  0  0  0  0  0  0  0  0  0  0
    4.8690   -7.4380   26.4151 C   0  0  0  0  0  0  0  0  0  0  0  0
    2.3021   -5.6726   26.0378 C   0  0  0  0  0  0  0  0  0  0  0  0
    7.0880   -4.6163   27.0010 C   0  0  0  0  0  0  0  0  0  0  0  0
    8.3117   -4.3698   27.4436 C   0  0  0  0  0  0  0  0  0  0  0  0
    1.1339   -5.0515   26.3541 C   0  0  0  0  0  0  0  0  0  0  0  0
    4.8080   -8.0362   16.7101 C   0  0  0  0  0  0  0  0  0  0  0  0
   -1.2173   -3.9294   26.9717 O   0  0  0  0  0  0  0  0  0  0  0  0
   -1.0025   -5.0942   27.4586 C   0  0  0  0  0  0  0  0  0  0  0  0
    2.2474   -8.9123   16.6273 C   0  0  0  0  0  0  0  0  0  0  0  0
    4.4957   -9.2636   17.3041 C   0  0  0  0  0  0  0  0  0  0  0  0
   -1.8070   -5.6086   28.1920 O   0  0  0  0  0  0  0  0  0  0  0  0
   10.4296   -5.1799   28.3140 C   0  0  0  0  0  0  0  0  0  0  0  0
    6.6017   -5.9004   26.9187 C   0  0  0  0  0  0  0  0  0  0  0  0
    2.4761   -6.9940   26.4111 N   0  0  0  0  0  0  0  0  0  0  0  0
    9.1353   -5.4053   27.8239 C   0  0  0  0  0  0  0  0  0  0  0  0
    0.9922   -9.3232   16.5995 O   0  0  0  0  0  0  0  0  0  0  0  0
    1.5232   -7.6869   27.1182 C   0  0  0  0  0  0  0  0  0  0  0  0
    8.6878   -6.6715   27.7262 N   0  0  0  0  0  0  0  0  0  0  0  0
    6.9911   -8.2423   27.1808 C   0  0  0  0  0  0  0  0  0  0  0  0
    3.8436   -7.2758   16.0578 C   0  0  0  0  0  0  0  0  0  0  0  0
    3.1882   -9.7190   17.2566 C   0  0  0  0  0  0  0  0  0  0  0  0
    5.3488   -6.1737   26.5092 C   0  0  0  0  0  0  0  0  0  0  0  0
    7.4567   -6.9464   27.2858 C   0  0  0  0  0  0  0  0  0  0  0  0
    0.1921   -5.7592   27.1123 C   0  0  0  0  0  0  0  0  0  0  0  0
    3.5517   -7.7407   25.9711 C   0  0  0  0  0  0  0  0  0  0  0  0
  1  4  4  0
  1 22  4  0
  2 20  4  0
  2 27  4  0
  3 12  4  0
  3 23  4  0
  4 25  4  0
  4 28  1  0
  5  8  4  0
  5 17  4  0
  6  7  4  0
  6 16  4  0
  7 18  4  0
  8 27  4  0
  9 13  4  0
  9 23  4  0
 10 11  1  0
 11 14  2  0
 11 27  1  0
 12 19  1  0
 12 24  4  0
 13 24  4  0
 15 18  1  0
 16 25  4  0
 16 26  4  0
 17 20  4  0
 17 28  1  0
 18 21  4  0
 21 26  4  0
 22 26  4  0
M  END
$$$$

 Created by Python create_sdf_string function

 28 30  0  0  0  0  0  0  0  0999 V2000
    5.7174   -8.4529   26.7190 C   0  0  0  0  0  0  0  0  0  0  0  0
    0.3974   -7.0711   27.5149 C   0  0  0  0  0  0  0  0  0  0  0  0
    2.5338   -7.6891   16.0102 C   0  0  0  0  0  0  0  0  0  0  0  0
    4.8690   -7.4380   26.4151 C   0  0  0  0  0  0  0  0  0  0  0  0
    2.3021   -5.6726   26.0378 C   0  0  0  0  0  0  0  0  0  0  0  0
    7.0880   -4.6163   27.0010 C   0  0  0  0  0  0  0  0  0  0  0  0
    8.3117   -4.3698   27.4436 C   0  0  0  0  0  0  0  0  0  0  0  0
    1.1339   -5.0515   26.3541 C   0  0  0  0  0  0  0  0  0  0  0  0
    4.8080   -8.0362   16.7101 C   0  0  0  0  0  0  0  0  0  0  0  0
   -1.2173   -3.9294   26.9717 O   0  0  0  0  0  0  0  0  0  0  0  0
   -1.0025   -5.0942   27.4586 C   0  0  0  0  0  0  0  0  0  0  0  0
    2.2474   -8.9123   16.6273 C   0  0  0  0  0  0  0  0  0  0  0  0
    4.4957   -9.2636   17.3041 C   0  0  0  0  0  0  0  0  0  0  0  0
   -1.8070   -5.6086   28.1920 O   0  0  0  0  0  0  0  0  0  0  0  0
   10.4296   -5.1799   28.3140 C   0  0  0  0  0  0  0  0  0  0  0  0
    6.6017   -5.9004   26.9187 C   0  0  0  0  0  0  0  0  0  0  0  0
    2.4761   -6.9940   26.4111 N   0  0  0  0  0  0  0  0  0  0  0  0
    9.1353   -5.4053   27.8239 C   0  0  0  0  0  0  0  0  0  0  0  0
    0.9922   -9.3232   16.5995 O   0  0  0  0  0  0  0  0  0  0  0  0
    1.5232   -7.6869   27.1182 C   0  0  0  0  0  0  0  0  0  0  0  0
    8.6878   -6.6715   27.7262 N   0  0  0  0  0  0  0  0  0  0  0  0
    6.9911   -8.2423   27.1808 C   0  0  0  0  0  0  0  0  0  0  0  0
    3.8436   -7.2758   16.0578 C   0  0  0  0  0  0  0  0  0  0  0  0
    3.1882   -9.7190   17.2566 C   0  0  0  0  0  0  0  0  0  0  0  0
    5.3488   -6.1737   26.5092 C   0  0  0  0  0  0  0  0  0  0  0  0
    7.4567   -6.9464   27.2858 C   0  0  0  0  0  0  0  0  0  0  0  0
    0.1921   -5.7592   27.1123 C   0  0  0  0  0  0  0  0  0  0  0  0
    3.5517   -7.7407   25.9711 C   0  0  0  0  0  0  0  0  0  0  0  0
  1  4  4  0
  1 22  4  0
  2 20  4  0
  2 27  4  0
  3 12  4  0
  3 23  4  0
  4 25  4  0
  4 28  1  0
  5  8  4  0
  5 17  4  0
  6  7  4  0
  6 16  4  0
  7 18  4  0
  8 27  4  0
  9 13  4  0
  9 23  4  0
 10 11  1  0
 11 14  2  0
 11 27  1  0
 12 19  1  0
 12 24  4  0
 13 24  4  0
 15 18  1  0
 16 25  4  0
 16 26  4  0
 17 20  4  0
 17 28  1  0
 18 21  4  0
 21 26  4  0
 22 26  4  0
M  END
$$$$

 Created by Python create_sdf_string function

 28 30  0  0  0  0  0  0  0  0999 V2000
    5.7174   -8.4529   26.7190 C   0  0  0  0  0  0  0  0  0  0  0  0
    0.3974   -7.0711   27.5149 C   0  0  0  0  0  0  0  0  0  0  0  0
    2.5338   -7.6891   16.0102 C   0  0  0  0  0  0  0  0  0  0  0  0
    4.8690   -7.4380   26.4151 C   0  0  0  0  0  0  0  0  0  0  0  0
    2.3021   -5.6726   26.0378 C   0  0  0  0  0  0  0  0  0  0  0  0
    7.0880   -4.6163   27.0010 C   0  0  0  0  0  0  0  0  0  0  0  0
    8.3117   -4.3698   27.4436 C   0  0  0  0  0  0  0  0  0  0  0  0
    1.1339   -5.0515   26.3541 C   0  0  0  0  0  0  0  0  0  0  0  0
    4.8080   -8.0362   16.7101 C   0  0  0  0  0  0  0  0  0  0  0  0
   -1.2173   -3.9294   26.9717 O   0  0  0  0  0  0  0  0  0  0  0  0
   -1.0025   -5.0942   27.4586 C   0  0  0  0  0  0  0  0  0  0  0  0
    2.2474   -8.9123   16.6273 C   0  0  0  0  0  0  0  0  0  0  0  0
    4.4957   -9.2636   17.3041 C   0  0  0  0  0  0  0  0  0  0  0  0
   -1.8070   -5.6086   28.1920 O   0  0  0  0  0  0  0  0  0  0  0  0
   10.4296   -5.1799   28.3140 C   0  0  0  0  0  0  0  0  0  0  0  0
    6.6017   -5.9004   26.9187 C   0  0  0  0  0  0  0  0  0  0  0  0
    2.4761   -6.9940   26.4111 N   0  0  0  0  0  0  0  0  0  0  0  0
    9.1353   -5.4053   27.8239 C   0  0  0  0  0  0  0  0  0  0  0  0
    0.9922   -9.3232   16.5995 O   0  0  0  0  0  0  0  0  0  0  0  0
    1.5232   -7.6869   27.1182 C   0  0  0  0  0  0  0  0  0  0  0  0
    8.6878   -6.6715   27.7262 N   0  0  0  0  0  0  0  0  0  0  0  0
    6.9911   -8.2423   27.1808 C   0  0  0  0  0  0  0  0  0  0  0  0
    3.8436   -7.2758   16.0578 C   0  0  0  0  0  0  0  0  0  0  0  0
    3.1882   -9.7190   17.2566 C   0  0  0  0  0  0  0  0  0  0  0  0
    5.3488   -6.1737   26.5092 C   0  0  0  0  0  0  0  0  0  0  0  0
    7.4567   -6.9464   27.2858 C   0  0  0  0  0  0  0  0  0  0  0  0
    0.1921   -5.7592   27.1123 C   0  0  0  0  0  0  0  0  0  0  0  0
    3.5517   -7.7407   25.9711 C   0  0  0  0  0  0  0  0  0  0  0  0
  1  4  4  0
  1 22  4  0
  2 20  4  0
  2 27  4  0
  3 12  4  0
  3 23  4  0
  4 25  4  0
  4 28  1  0
  5  8  4  0
  5 17  4  0
  6  7  4  0
  6 16  4  0
  7 18  4  0
  8 27  4  0
  9 13  4  0
  9 23  4  0
 10 11  1  0
 11 14  2  0
 11 27  1  0
 12 19  1  0
 12 24  4  0
 13 24  4  0
 15 18  1  0
 16 25  4  0
 16 26  4  0
 17 20  4  0
 17 28  1  0
 18 21  4  0
 21 26  4  0
 22 26  4  0
M  END
$$$$

 Created by Python create_sdf_string function

 28 30  0  0  0  0  0  0  0  0999 V2000
    5.7174   -8.4529   26.7190 C   0  0  0  0  0  0  0  0  0  0  0  0
    0.3974   -7.0711   27.5149 C   0  0  0  0  0  0  0  0  0  0  0  0
    2.5338   -7.6891   16.0102 C   0  0  0  0  0  0  0  0  0  0  0  0
    4.8690   -7.4380   26.4151 C   0  0  0  0  0  0  0  0  0  0  0  0
    2.3021   -5.6726   26.0378 C   0  0  0  0  0  0  0  0  0  0  0  0
    7.0880   -4.6163   27.0010 C   0  0  0  0  0  0  0  0  0  0  0  0
    8.3117   -4.3698   27.4436 C   0  0  0  0  0  0  0  0  0  0  0  0
    1.1339   -5.0515   26.3541 C   0  0  0  0  0  0  0  0  0  0  0  0
    4.8080   -8.0362   16.7101 C   0  0  0  0  0  0  0  0  0  0  0  0
   -1.2173   -3.9294   26.9717 O   0  0  0  0  0  0  0  0  0  0  0  0
   -1.0025   -5.0942   27.4586 C   0  0  0  0  0  0  0  0  0  0  0  0
    2.2474   -8.9123   16.6273 C   0  0  0  0  0  0  0  0  0  0  0  0
    4.4957   -9.2636   17.3041 C   0  0  0  0  0  0  0  0  0  0  0  0
   -1.8070   -5.6086   28.1920 O   0  0  0  0  0  0  0  0  0  0  0  0
   10.4296   -5.1799   28.3140 C   0  0  0  0  0  0  0  0  0  0  0  0
    6.6017   -5.9004   26.9187 C   0  0  0  0  0  0  0  0  0  0  0  0
    2.4761   -6.9940   26.4111 N   0  0  0  0  0  0  0  0  0  0  0  0
    9.1353   -5.4053   27.8239 C   0  0  0  0  0  0  0  0  0  0  0  0
    0.9922   -9.3232   16.5995 O   0  0  0  0  0  0  0  0  0  0  0  0
    1.5232   -7.6869   27.1182 C   0  0  0  0  0  0  0  0  0  0  0  0
    8.6878   -6.6715   27.7262 N   0  0  0  0  0  0  0  0  0  0  0  0
    6.9911   -8.2423   27.1808 C   0  0  0  0  0  0  0  0  0  0  0  0
    3.8436   -7.2758   16.0578 C   0  0  0  0  0  0  0  0  0  0  0  0
    3.1882   -9.7190   17.2566 C   0  0  0  0  0  0  0  0  0  0  0  0
    5.3488   -6.1737   26.5092 C   0  0  0  0  0  0  0  0  0  0  0  0
    7.4567   -6.9464   27.2858 C   0  0  0  0  0  0  0  0  0  0  0  0
    0.1921   -5.7592   27.1123 C   0  0  0  0  0  0  0  0  0  0  0  0
    3.5517   -7.7407   25.9711 C   0  0  0  0  0  0  0  0  0  0  0  0
  1  4  4  0
  1 22  4  0
  2 20  4  0
  2 27  4  0
  3 12  4  0
  3 23  4  0
  4 25  4  0
  4 28  1  0
  5  8  4  0
  5 17  4  0
  6  7  4  0
  6 16  4  0
  7 18  4  0
  8 27  4  0
  9 13  4  0
  9 23  4  0
 10 11  1  0
 11 14  2  0
 11 27  1  0
 12 19  1  0
 12 24  4  0
 13 24  4  0
 15 18  1  0
 16 25  4  0
 16 26  4  0
 17 20  4  0
 17 28  1  0
 18 21  4  0
 21 26  4  0
 22 26  4  0
M  END
$$$$

 Created by Python create_sdf_string function

 28 30  0  0  0  0  0  0  0  0999 V2000
    5.7174   -8.4529   26.7190 C   0  0  0  0  0  0  0  0  0  0  0  0
    0.3974   -7.0711   27.5149 C   0  0  0  0  0  0  0  0  0  0  0  0
    2.5338   -7.6891   16.0102 C   0  0  0  0  0  0  0  0  0  0  0  0
    4.8690   -7.4380   26.4151 C   0  0  0  0  0  0  0  0  0  0  0  0
    2.3021   -5.6726   26.0378 C   0  0  0  0  0  0  0  0  0  0  0  0
    7.0880   -4.6163   27.0010 C   0  0  0  0  0  0  0  0  0  0  0  0
    8.3117   -4.3698   27.4436 C   0  0  0  0  0  0  0  0  0  0  0  0
    1.1339   -5.0515   26.3541 C   0  0  0  0  0  0  0  0  0  0  0  0
    4.8080   -8.0362   16.7101 C   0  0  0  0  0  0  0  0  0  0  0  0
   -1.2173   -3.9294   26.9717 O   0  0  0  0  0  0  0  0  0  0  0  0
   -1.0025   -5.0942   27.4586 C   0  0  0  0  0  0  0  0  0  0  0  0
    2.2474   -8.9123   16.6273 C   0  0  0  0  0  0  0  0  0  0  0  0
    4.4957   -9.2636   17.3041 C   0  0  0  0  0  0  0  0  0  0  0  0
   -1.8070   -5.6086   28.1920 O   0  0  0  0  0  0  0  0  0  0  0  0
   10.4296   -5.1799   28.3140 C   0  0  0  0  0  0  0  0  0  0  0  0
    6.6017   -5.9004   26.9187 C   0  0  0  0  0  0  0  0  0  0  0  0
    2.4761   -6.9940   26.4111 N   0  0  0  0  0  0  0  0  0  0  0  0
    9.1353   -5.4053   27.8239 C   0  0  0  0  0  0  0  0  0  0  0  0
    0.9922   -9.3232   16.5995 O   0  0  0  0  0  0  0  0  0  0  0  0
    1.5232   -7.6869   27.1182 C   0  0  0  0  0  0  0  0  0  0  0  0
    8.6878   -6.6715   27.7262 N   0  0  0  0  0  0  0  0  0  0  0  0
    6.9911   -8.2423   27.1808 C   0  0  0  0  0  0  0  0  0  0  0  0
    3.8436   -7.2758   16.0578 C   0  0  0  0  0  0  0  0  0  0  0  0
    3.1882   -9.7190   17.2566 C   0  0  0  0  0  0  0  0  0  0  0  0
    5.3488   -6.1737   26.5092 C   0  0  0  0  0  0  0  0  0  0  0  0
    7.4567   -6.9464   27.2858 C   0  0  0  0  0  0  0  0  0  0  0  0
    0.1921   -5.7592   27.1123 C   0  0  0  0  0  0  0  0  0  0  0  0
    3.5517   -7.7407   25.9711 C   0  0  0  0  0  0  0  0  0  0  0  0
  1  4  4  0
  1 22  4  0
  2 20  4  0
  2 27  4  0
  3 12  4  0
  3 23  4  0
  4 25  4  0
  4 28  1  0
  5  8  4  0
  5 17  4  0
  6  7  4  0
  6 16  4  0
  7 18  4  0
  8 27  4  0
  9 13  4  0
  9 23  4  0
 10 11  1  0
 11 14  2  0
 11 27  1  0
 12 19  1  0
 12 24  4  0
 13 24  4  0
 15 18  1  0
 16 25  4  0
 16 26  4  0
 17 20  4  0
 17 28  1  0
 18 21  4  0
 21 26  4  0
 22 26  4  0
M  END
$$$$

 Created by Python create_sdf_string function

 28 30  0  0  0  0  0  0  0  0999 V2000
    5.7174   -8.4529   26.7190 C   0  0  0  0  0  0  0  0  0  0  0  0
    0.3974   -7.0711   27.5149 C   0  0  0  0  0  0  0  0  0  0  0  0
    2.5338   -7.6891   16.0102 C   0  0  0  0  0  0  0  0  0  0  0  0
    4.8690   -7.4380   26.4151 C   0  0  0  0  0  0  0  0  0  0  0  0
    2.3021   -5.6726   26.0378 C   0  0  0  0  0  0  0  0  0  0  0  0
    7.0880   -4.6163   27.0010 C   0  0  0  0  0  0  0  0  0  0  0  0
    8.3117   -4.3698   27.4436 C   0  0  0  0  0  0  0  0  0  0  0  0
    1.1339   -5.0515   26.3541 C   0  0  0  0  0  0  0  0  0  0  0  0
    4.8080   -8.0362   16.7101 C   0  0  0  0  0  0  0  0  0  0  0  0
   -1.2173   -3.9294   26.9717 O   0  0  0  0  0  0  0  0  0  0  0  0
   -1.0025   -5.0942   27.4586 C   0  0  0  0  0  0  0  0  0  0  0  0
    2.2474   -8.9123   16.6273 C   0  0  0  0  0  0  0  0  0  0  0  0
    4.4957   -9.2636   17.3041 C   0  0  0  0  0  0  0  0  0  0  0  0
   -1.8070   -5.6086   28.1920 O   0  0  0  0  0  0  0  0  0  0  0  0
   10.4296   -5.1799   28.3140 C   0  0  0  0  0  0  0  0  0  0  0  0
    6.6017   -5.9004   26.9187 C   0  0  0  0  0  0  0  0  0  0  0  0
    2.4761   -6.9940   26.4111 N   0  0  0  0  0  0  0  0  0  0  0  0
    9.1353   -5.4053   27.8239 C   0  0  0  0  0  0  0  0  0  0  0  0
    0.9922   -9.3232   16.5995 O   0  0  0  0  0  0  0  0  0  0  0  0
    1.5232   -7.6869   27.1182 C   0  0  0  0  0  0  0  0  0  0  0  0
    8.6878   -6.6715   27.7262 N   0  0  0  0  0  0  0  0  0  0  0  0
    6.9911   -8.2423   27.1808 C   0  0  0  0  0  0  0  0  0  0  0  0
    3.8436   -7.2758   16.0578 C   0  0  0  0  0  0  0  0  0  0  0  0
    3.1882   -9.7190   17.2566 C   0  0  0  0  0  0  0  0  0  0  0  0
    5.3488   -6.1737   26.5092 C   0  0  0  0  0  0  0  0  0  0  0  0
    7.4567   -6.9464   27.2858 C   0  0  0  0  0  0  0  0  0  0  0  0
    0.1921   -5.7592   27.1123 C   0  0  0  0  0  0  0  0  0  0  0  0
    3.5517   -7.7407   25.9711 C   0  0  0  0  0  0  0  0  0  0  0  0
  1  4  4  0
  1 22  4  0
  2 20  4  0
  2 27  4  0
  3 12  4  0
  3 23  4  0
  4 25  4  0
  4 28  1  0
  5  8  4  0
  5 17  4  0
  6  7  4  0
  6 16  4  0
  7 18  4  0
  8 27  4  0
  9 13  4  0
  9 23  4  0
 10 11  1  0
 11 14  2  0
 11 27  1  0
 12 19  1  0
 12 24  4  0
 13 24  4  0
 15 18  1  0
 16 25  4  0
 16 26  4  0
 17 20  4  0
 17 28  1  0
 18 21  4  0
 21 26  4  0
 22 26  4  0
M  END
$$$$

 Created by Python create_sdf_string function

 28 30  0  0  0  0  0  0  0  0999 V2000
    5.7174   -8.4529   26.7190 C   0  0  0  0  0  0  0  0  0  0  0  0
    0.3974   -7.0711   27.5149 C   0  0  0  0  0  0  0  0  0  0  0  0
    2.5338   -7.6891   16.0102 C   0  0  0  0  0  0  0  0  0  0  0  0
    4.8690   -7.4380   26.4151 C   0  0  0  0  0  0  0  0  0  0  0  0
    2.3021   -5.6726   26.0378 C   0  0  0  0  0  0  0  0  0  0  0  0
    7.0880   -4.6163   27.0010 C   0  0  0  0  0  0  0  0  0  0  0  0
    8.3117   -4.3698   27.4436 C   0  0  0  0  0  0  0  0  0  0  0  0
    1.1339   -5.0515   26.3541 C   0  0  0  0  0  0  0  0  0  0  0  0
    4.8080   -8.0362   16.7101 C   0  0  0  0  0  0  0  0  0  0  0  0
   -1.2173   -3.9294   26.9717 O   0  0  0  0  0  0  0  0  0  0  0  0
   -1.0025   -5.0942   27.4586 C   0  0  0  0  0  0  0  0  0  0  0  0
    2.2474   -8.9123   16.6273 C   0  0  0  0  0  0  0  0  0  0  0  0
    4.4957   -9.2636   17.3041 C   0  0  0  0  0  0  0  0  0  0  0  0
   -1.8070   -5.6086   28.1920 O   0  0  0  0  0  0  0  0  0  0  0  0
   10.4296   -5.1799   28.3140 C   0  0  0  0  0  0  0  0  0  0  0  0
    6.6017   -5.9004   26.9187 C   0  0  0  0  0  0  0  0  0  0  0  0
    2.4761   -6.9940   26.4111 N   0  0  0  0  0  0  0  0  0  0  0  0
    9.1353   -5.4053   27.8239 C   0  0  0  0  0  0  0  0  0  0  0  0
    0.9922   -9.3232   16.5995 O   0  0  0  0  0  0  0  0  0  0  0  0
    1.5232   -7.6869   27.1182 C   0  0  0  0  0  0  0  0  0  0  0  0
    8.6878   -6.6715   27.7262 N   0  0  0  0  0  0  0  0  0  0  0  0
    6.9911   -8.2423   27.1808 C   0  0  0  0  0  0  0  0  0  0  0  0
    3.8436   -7.2758   16.0578 C   0  0  0  0  0  0  0  0  0  0  0  0
    3.1882   -9.7190   17.2566 C   0  0  0  0  0  0  0  0  0  0  0  0
    5.3488   -6.1737   26.5092 C   0  0  0  0  0  0  0  0  0  0  0  0
    7.4567   -6.9464   27.2858 C   0  0  0  0  0  0  0  0  0  0  0  0
    0.1921   -5.7592   27.1123 C   0  0  0  0  0  0  0  0  0  0  0  0
    3.5517   -7.7407   25.9711 C   0  0  0  0  0  0  0  0  0  0  0  0
  1  4  4  0
  1 22  4  0
  2 20  4  0
  2 27  4  0
  3 12  4  0
  3 23  4  0
  4 25  4  0
  4 28  1  0
  5  8  4  0
  5 17  4  0
  6  7  4  0
  6 16  4  0
  7 18  4  0
  8 27  4  0
  9 13  4  0
  9 23  4  0
 10 11  1  0
 11 14  2  0
 11 27  1  0
 12 19  1  0
 12 24  4  0
 13 24  4  0
 15 18  1  0
 16 25  4  0
 16 26  4  0
 17 20  4  0
 17 28  1  0
 18 21  4  0
 21 26  4  0
 22 26  4  0
M  END
$$$$

 Created by Python create_sdf_string function

 28 30  0  0  0  0  0  0  0  0999 V2000
    5.7174   -8.4529   26.7190 C   0  0  0  0  0  0  0  0  0  0  0  0
    0.3974   -7.0711   27.5149 C   0  0  0  0  0  0  0  0  0  0  0  0
    2.5338   -7.6891   16.0102 C   0  0  0  0  0  0  0  0  0  0  0  0
    4.8690   -7.4380   26.4151 C   0  0  0  0  0  0  0  0  0  0  0  0
    2.3021   -5.6726   26.0378 C   0  0  0  0  0  0  0  0  0  0  0  0
    7.0880   -4.6163   27.0010 C   0  0  0  0  0  0  0  0  0  0  0  0
    8.3117   -4.3698   27.4436 C   0  0  0  0  0  0  0  0  0  0  0  0
    1.1339   -5.0515   26.3541 C   0  0  0  0  0  0  0  0  0  0  0  0
    4.8080   -8.0362   16.7101 C   0  0  0  0  0  0  0  0  0  0  0  0
   -1.2173   -3.9294   26.9717 O   0  0  0  0  0  0  0  0  0  0  0  0
   -1.0025   -5.0942   27.4586 C   0  0  0  0  0  0  0  0  0  0  0  0
    2.2474   -8.9123   16.6273 C   0  0  0  0  0  0  0  0  0  0  0  0
    4.4957   -9.2636   17.3041 C   0  0  0  0  0  0  0  0  0  0  0  0
   -1.8070   -5.6086   28.1920 O   0  0  0  0  0  0  0  0  0  0  0  0
   10.4296   -5.1799   28.3140 C   0  0  0  0  0  0  0  0  0  0  0  0
    6.6017   -5.9004   26.9187 C   0  0  0  0  0  0  0  0  0  0  0  0
    2.4761   -6.9940   26.4111 N   0  0  0  0  0  0  0  0  0  0  0  0
    9.1353   -5.4053   27.8239 C   0  0  0  0  0  0  0  0  0  0  0  0
    0.9922   -9.3232   16.5995 O   0  0  0  0  0  0  0  0  0  0  0  0
    1.5232   -7.6869   27.1182 C   0  0  0  0  0  0  0  0  0  0  0  0
    8.6878   -6.6715   27.7262 N   0  0  0  0  0  0  0  0  0  0  0  0
    6.9911   -8.2423   27.1808 C   0  0  0  0  0  0  0  0  0  0  0  0
    3.8436   -7.2758   16.0578 C   0  0  0  0  0  0  0  0  0  0  0  0
    3.1882   -9.7190   17.2566 C   0  0  0  0  0  0  0  0  0  0  0  0
    5.3488   -6.1737   26.5092 C   0  0  0  0  0  0  0  0  0  0  0  0
    7.4567   -6.9464   27.2858 C   0  0  0  0  0  0  0  0  0  0  0  0
    0.1921   -5.7592   27.1123 C   0  0  0  0  0  0  0  0  0  0  0  0
    3.5517   -7.7407   25.9711 C   0  0  0  0  0  0  0  0  0  0  0  0
  1  4  4  0
  1 22  4  0
  2 20  4  0
  2 27  4  0
  3 12  4  0
  3 23  4  0
  4 25  4  0
  4 28  1  0
  5  8  4  0
  5 17  4  0
  6  7  4  0
  6 16  4  0
  7 18  4  0
  8 27  4  0
  9 13  4  0
  9 23  4  0
 10 11  1  0
 11 14  2  0
 11 27  1  0
 12 19  1  0
 12 24  4  0
 13 24  4  0
 15 18  1  0
 16 25  4  0
 16 26  4  0
 17 20  4  0
 17 28  1  0
 18 21  4  0
 21 26  4  0
 22 26  4  0
M  END
$$$$

 Created by Python create_sdf_string function

 28 30  0  0  0  0  0  0  0  0999 V2000
    5.7174   -8.4529   26.7190 C   0  0  0  0  0  0  0  0  0  0  0  0
    0.3974   -7.0711   27.5149 C   0  0  0  0  0  0  0  0  0  0  0  0
    2.5338   -7.6891   16.0102 C   0  0  0  0  0  0  0  0  0  0  0  0
    4.8690   -7.4380   26.4151 C   0  0  0  0  0  0  0  0  0  0  0  0
    2.3021   -5.6726   26.0378 C   0  0  0  0  0  0  0  0  0  0  0  0
    7.0880   -4.6163   27.0010 C   0  0  0  0  0  0  0  0  0  0  0  0
    8.3117   -4.3698   27.4436 C   0  0  0  0  0  0  0  0  0  0  0  0
    1.1339   -5.0515   26.3541 C   0  0  0  0  0  0  0  0  0  0  0  0
    4.8080   -8.0362   16.7101 C   0  0  0  0  0  0  0  0  0  0  0  0
   -1.2173   -3.9294   26.9717 O   0  0  0  0  0  0  0  0  0  0  0  0
   -1.0025   -5.0942   27.4586 C   0  0  0  0  0  0  0  0  0  0  0  0
    2.2474   -8.9123   16.6273 C   0  0  0  0  0  0  0  0  0  0  0  0
    4.4957   -9.2636   17.3041 C   0  0  0  0  0  0  0  0  0  0  0  0
   -1.8070   -5.6086   28.1920 O   0  0  0  0  0  0  0  0  0  0  0  0
   10.4296   -5.1799   28.3140 C   0  0  0  0  0  0  0  0  0  0  0  0
    6.6017   -5.9004   26.9187 C   0  0  0  0  0  0  0  0  0  0  0  0
    2.4761   -6.9940   26.4111 N   0  0  0  0  0  0  0  0  0  0  0  0
    9.1353   -5.4053   27.8239 C   0  0  0  0  0  0  0  0  0  0  0  0
    0.9922   -9.3232   16.5995 O   0  0  0  0  0  0  0  0  0  0  0  0
    1.5232   -7.6869   27.1182 C   0  0  0  0  0  0  0  0  0  0  0  0
    8.6878   -6.6715   27.7262 N   0  0  0  0  0  0  0  0  0  0  0  0
    6.9911   -8.2423   27.1808 C   0  0  0  0  0  0  0  0  0  0  0  0
    3.8436   -7.2758   16.0578 C   0  0  0  0  0  0  0  0  0  0  0  0
    3.1882   -9.7190   17.2566 C   0  0  0  0  0  0  0  0  0  0  0  0
    5.3488   -6.1737   26.5092 C   0  0  0  0  0  0  0  0  0  0  0  0
    7.4567   -6.9464   27.2858 C   0  0  0  0  0  0  0  0  0  0  0  0
    0.1921   -5.7592   27.1123 C   0  0  0  0  0  0  0  0  0  0  0  0
    3.5517   -7.7407   25.9711 C   0  0  0  0  0  0  0  0  0  0  0  0
  1  4  4  0
  1 22  4  0
  2 20  4  0
  2 27  4  0
  3 12  4  0
  3 23  4  0
  4 25  4  0
  4 28  1  0
  5  8  4  0
  5 17  4  0
  6  7  4  0
  6 16  4  0
  7 18  4  0
  8 27  4  0
  9 13  4  0
  9 23  4  0
 10 11  1  0
 11 14  2  0
 11 27  1  0
 12 19  1  0
 12 24  4  0
 13 24  4  0
 15 18  1  0
 16 25  4  0
 16 26  4  0
 17 20  4  0
 17 28  1  0
 18 21  4  0
 21 26  4  0
 22 26  4  0
M  END
$$$$

 Created by Python create_sdf_string function

 28 30  0  0  0  0  0  0  0  0999 V2000
    5.7174   -8.4529   26.7190 C   0  0  0  0  0  0  0  0  0  0  0  0
    0.3974   -7.0711   27.5149 C   0  0  0  0  0  0  0  0  0  0  0  0
    2.5338   -7.6891   16.0102 C   0  0  0  0  0  0  0  0  0  0  0  0
    4.8690   -7.4380   26.4151 C   0  0  0  0  0  0  0  0  0  0  0  0
    2.3021   -5.6726   26.0378 C   0  0  0  0  0  0  0  0  0  0  0  0
    7.0880   -4.6163   27.0010 C   0  0  0  0  0  0  0  0  0  0  0  0
    8.3117   -4.3698   27.4436 C   0  0  0  0  0  0  0  0  0  0  0  0
    1.1339   -5.0515   26.3541 C   0  0  0  0  0  0  0  0  0  0  0  0
    4.8080   -8.0362   16.7101 C   0  0  0  0  0  0  0  0  0  0  0  0
   -1.2173   -3.9294   26.9717 O   0  0  0  0  0  0  0  0  0  0  0  0
   -1.0025   -5.0942   27.4586 C   0  0  0  0  0  0  0  0  0  0  0  0
    2.2474   -8.9123   16.6273 C   0  0  0  0  0  0  0  0  0  0  0  0
    4.4957   -9.2636   17.3041 C   0  0  0  0  0  0  0  0  0  0  0  0
   -1.8070   -5.6086   28.1920 O   0  0  0  0  0  0  0  0  0  0  0  0
   10.4296   -5.1799   28.3140 C   0  0  0  0  0  0  0  0  0  0  0  0
    6.6017   -5.9004   26.9187 C   0  0  0  0  0  0  0  0  0  0  0  0
    2.4761   -6.9940   26.4111 N   0  0  0  0  0  0  0  0  0  0  0  0
    9.1353   -5.4053   27.8239 C   0  0  0  0  0  0  0  0  0  0  0  0
    0.9922   -9.3232   16.5995 O   0  0  0  0  0  0  0  0  0  0  0  0
    1.5232   -7.6869   27.1182 C   0  0  0  0  0  0  0  0  0  0  0  0
    8.6878   -6.6715   27.7262 N   0  0  0  0  0  0  0  0  0  0  0  0
    6.9911   -8.2423   27.1808 C   0  0  0  0  0  0  0  0  0  0  0  0
    3.8436   -7.2758   16.0578 C   0  0  0  0  0  0  0  0  0  0  0  0
    3.1882   -9.7190   17.2566 C   0  0  0  0  0  0  0  0  0  0  0  0
    5.3488   -6.1737   26.5092 C   0  0  0  0  0  0  0  0  0  0  0  0
    7.4567   -6.9464   27.2858 C   0  0  0  0  0  0  0  0  0  0  0  0
    0.1921   -5.7592   27.1123 C   0  0  0  0  0  0  0  0  0  0  0  0
    3.5517   -7.7407   25.9711 C   0  0  0  0  0  0  0  0  0  0  0  0
  1  4  4  0
  1 22  4  0
  2 20  4  0
  2 27  4  0
  3 12  4  0
  3 23  4  0
  4 25  4  0
  4 28  1  0
  5  8  4  0
  5 17  4  0
  6  7  4  0
  6 16  4  0
  7 18  4  0
  8 27  4  0
  9 13  4  0
  9 23  4  0
 10 11  1  0
 11 14  2  0
 11 27  1  0
 12 19  1  0
 12 24  4  0
 13 24  4  0
 15 18  1  0
 16 25  4  0
 16 26  4  0
 17 20  4  0
 17 28  1  0
 18 21  4  0
 21 26  4  0
 22 26  4  0
M  END
$$$$

 Created by Python create_sdf_string function

 28 30  0  0  0  0  0  0  0  0999 V2000
    5.7174   -8.4529   26.7190 C   0  0  0  0  0  0  0  0  0  0  0  0
    0.3974   -7.0711   27.5149 C   0  0  0  0  0  0  0  0  0  0  0  0
    2.5338   -7.6891   16.0102 C   0  0  0  0  0  0  0  0  0  0  0  0
    4.8690   -7.4380   26.4151 C   0  0  0  0  0  0  0  0  0  0  0  0
    2.3021   -5.6726   26.0378 C   0  0  0  0  0  0  0  0  0  0  0  0
    7.0880   -4.6163   27.0010 C   0  0  0  0  0  0  0  0  0  0  0  0
    8.3117   -4.3698   27.4436 C   0  0  0  0  0  0  0  0  0  0  0  0
    1.1339   -5.0515   26.3541 C   0  0  0  0  0  0  0  0  0  0  0  0
    4.8080   -8.0362   16.7101 C   0  0  0  0  0  0  0  0  0  0  0  0
   -1.2173   -3.9294   26.9717 O   0  0  0  0  0  0  0  0  0  0  0  0
   -1.0025   -5.0942   27.4586 C   0  0  0  0  0  0  0  0  0  0  0  0
    2.2474   -8.9123   16.6273 C   0  0  0  0  0  0  0  0  0  0  0  0
    4.4957   -9.2636   17.3041 C   0  0  0  0  0  0  0  0  0  0  0  0
   -1.8070   -5.6086   28.1920 O   0  0  0  0  0  0  0  0  0  0  0  0
   10.4296   -5.1799   28.3140 C   0  0  0  0  0  0  0  0  0  0  0  0
    6.6017   -5.9004   26.9187 C   0  0  0  0  0  0  0  0  0  0  0  0
    2.4761   -6.9940   26.4111 N   0  0  0  0  0  0  0  0  0  0  0  0
    9.1353   -5.4053   27.8239 C   0  0  0  0  0  0  0  0  0  0  0  0
    0.9922   -9.3232   16.5995 O   0  0  0  0  0  0  0  0  0  0  0  0
    1.5232   -7.6869   27.1182 C   0  0  0  0  0  0  0  0  0  0  0  0
    8.6878   -6.6715   27.7262 N   0  0  0  0  0  0  0  0  0  0  0  0
    6.9911   -8.2423   27.1808 C   0  0  0  0  0  0  0  0  0  0  0  0
    3.8436   -7.2758   16.0578 C   0  0  0  0  0  0  0  0  0  0  0  0
    3.1882   -9.7190   17.2566 C   0  0  0  0  0  0  0  0  0  0  0  0
    5.3488   -6.1737   26.5092 C   0  0  0  0  0  0  0  0  0  0  0  0
    7.4567   -6.9464   27.2858 C   0  0  0  0  0  0  0  0  0  0  0  0
    0.1921   -5.7592   27.1123 C   0  0  0  0  0  0  0  0  0  0  0  0
    3.5517   -7.7407   25.9711 C   0  0  0  0  0  0  0  0  0  0  0  0
  1  4  4  0
  1 22  4  0
  2 20  4  0
  2 27  4  0
  3 12  4  0
  3 23  4  0
  4 25  4  0
  4 28  1  0
  5  8  4  0
  5 17  4  0
  6  7  4  0
  6 16  4  0
  7 18  4  0
  8 27  4  0
  9 13  4  0
  9 23  4  0
 10 11  1  0
 11 14  2  0
 11 27  1  0
 12 19  1  0
 12 24  4  0
 13 24  4  0
 15 18  1  0
 16 25  4  0
 16 26  4  0
 17 20  4  0
 17 28  1  0
 18 21  4  0
 21 26  4  0
 22 26  4  0
M  END
$$$$

 Created by Python create_sdf_string function

 28 30  0  0  0  0  0  0  0  0999 V2000
    5.7174   -8.4529   26.7190 C   0  0  0  0  0  0  0  0  0  0  0  0
    0.3974   -7.0711   27.5149 C   0  0  0  0  0  0  0  0  0  0  0  0
    2.5338   -7.6891   16.0102 C   0  0  0  0  0  0  0  0  0  0  0  0
    4.8690   -7.4380   26.4151 C   0  0  0  0  0  0  0  0  0  0  0  0
    2.3021   -5.6726   26.0378 C   0  0  0  0  0  0  0  0  0  0  0  0
    7.0880   -4.6163   27.0010 C   0  0  0  0  0  0  0  0  0  0  0  0
    8.3117   -4.3698   27.4436 C   0  0  0  0  0  0  0  0  0  0  0  0
    1.1339   -5.0515   26.3541 C   0  0  0  0  0  0  0  0  0  0  0  0
    4.8080   -8.0362   16.7101 C   0  0  0  0  0  0  0  0  0  0  0  0
   -1.2173   -3.9294   26.9717 O   0  0  0  0  0  0  0  0  0  0  0  0
   -1.0025   -5.0942   27.4586 C   0  0  0  0  0  0  0  0  0  0  0  0
    2.2474   -8.9123   16.6273 C   0  0  0  0  0  0  0  0  0  0  0  0
    4.4957   -9.2636   17.3041 C   0  0  0  0  0  0  0  0  0  0  0  0
   -1.8070   -5.6086   28.1920 O   0  0  0  0  0  0  0  0  0  0  0  0
   10.4296   -5.1799   28.3140 C   0  0  0  0  0  0  0  0  0  0  0  0
    6.6017   -5.9004   26.9187 C   0  0  0  0  0  0  0  0  0  0  0  0
    2.4761   -6.9940   26.4111 N   0  0  0  0  0  0  0  0  0  0  0  0
    9.1353   -5.4053   27.8239 C   0  0  0  0  0  0  0  0  0  0  0  0
    0.9922   -9.3232   16.5995 O   0  0  0  0  0  0  0  0  0  0  0  0
    1.5232   -7.6869   27.1182 C   0  0  0  0  0  0  0  0  0  0  0  0
    8.6878   -6.6715   27.7262 N   0  0  0  0  0  0  0  0  0  0  0  0
    6.9911   -8.2423   27.1808 C   0  0  0  0  0  0  0  0  0  0  0  0
    3.8436   -7.2758   16.0578 C   0  0  0  0  0  0  0  0  0  0  0  0
    3.1882   -9.7190   17.2566 C   0  0  0  0  0  0  0  0  0  0  0  0
    5.3488   -6.1737   26.5092 C   0  0  0  0  0  0  0  0  0  0  0  0
    7.4567   -6.9464   27.2858 C   0  0  0  0  0  0  0  0  0  0  0  0
    0.1921   -5.7592   27.1123 C   0  0  0  0  0  0  0  0  0  0  0  0
    3.5517   -7.7407   25.9711 C   0  0  0  0  0  0  0  0  0  0  0  0
  1  4  4  0
  1 22  4  0
  2 20  4  0
  2 27  4  0
  3 12  4  0
  3 23  4  0
  4 25  4  0
  4 28  1  0
  5  8  4  0
  5 17  4  0
  6  7  4  0
  6 16  4  0
  7 18  4  0
  8 27  4  0
  9 13  4  0
  9 23  4  0
 10 11  1  0
 11 14  2  0
 11 27  1  0
 12 19  1  0
 12 24  4  0
 13 24  4  0
 15 18  1  0
 16 25  4  0
 16 26  4  0
 17 20  4  0
 17 28  1  0
 18 21  4  0
 21 26  4  0
 22 26  4  0
M  END
$$$$

 Created by Python create_sdf_string function

 28 30  0  0  0  0  0  0  0  0999 V2000
    5.7174   -8.4529   26.7190 C   0  0  0  0  0  0  0  0  0  0  0  0
    0.3974   -7.0711   27.5149 C   0  0  0  0  0  0  0  0  0  0  0  0
    2.5338   -7.6891   16.0102 C   0  0  0  0  0  0  0  0  0  0  0  0
    4.8690   -7.4380   26.4151 C   0  0  0  0  0  0  0  0  0  0  0  0
    2.3021   -5.6726   26.0378 C   0  0  0  0  0  0  0  0  0  0  0  0
    7.0880   -4.6163   27.0010 C   0  0  0  0  0  0  0  0  0  0  0  0
    8.3117   -4.3698   27.4436 C   0  0  0  0  0  0  0  0  0  0  0  0
    1.1339   -5.0515   26.3541 C   0  0  0  0  0  0  0  0  0  0  0  0
    4.8080   -8.0362   16.7101 C   0  0  0  0  0  0  0  0  0  0  0  0
   -1.2173   -3.9294   26.9717 O   0  0  0  0  0  0  0  0  0  0  0  0
   -1.0025   -5.0942   27.4586 C   0  0  0  0  0  0  0  0  0  0  0  0
    2.2474   -8.9123   16.6273 C   0  0  0  0  0  0  0  0  0  0  0  0
    4.4957   -9.2636   17.3041 C   0  0  0  0  0  0  0  0  0  0  0  0
   -1.8070   -5.6086   28.1920 O   0  0  0  0  0  0  0  0  0  0  0  0
   10.4296   -5.1799   28.3140 C   0  0  0  0  0  0  0  0  0  0  0  0
    6.6017   -5.9004   26.9187 C   0  0  0  0  0  0  0  0  0  0  0  0
    2.4761   -6.9940   26.4111 N   0  0  0  0  0  0  0  0  0  0  0  0
    9.1353   -5.4053   27.8239 C   0  0  0  0  0  0  0  0  0  0  0  0
    0.9922   -9.3232   16.5995 O   0  0  0  0  0  0  0  0  0  0  0  0
    1.5232   -7.6869   27.1182 C   0  0  0  0  0  0  0  0  0  0  0  0
    8.6878   -6.6715   27.7262 N   0  0  0  0  0  0  0  0  0  0  0  0
    6.9911   -8.2423   27.1808 C   0  0  0  0  0  0  0  0  0  0  0  0
    3.8436   -7.2758   16.0578 C   0  0  0  0  0  0  0  0  0  0  0  0
    3.1882   -9.7190   17.2566 C   0  0  0  0  0  0  0  0  0  0  0  0
    5.3488   -6.1737   26.5092 C   0  0  0  0  0  0  0  0  0  0  0  0
    7.4567   -6.9464   27.2858 C   0  0  0  0  0  0  0  0  0  0  0  0
    0.1921   -5.7592   27.1123 C   0  0  0  0  0  0  0  0  0  0  0  0
    3.5517   -7.7407   25.9711 C   0  0  0  0  0  0  0  0  0  0  0  0
  1  4  4  0
  1 22  4  0
  2 20  4  0
  2 27  4  0
  3 12  4  0
  3 23  4  0
  4 25  4  0
  4 28  1  0
  5  8  4  0
  5 17  4  0
  6  7  4  0
  6 16  4  0
  7 18  4  0
  8 27  4  0
  9 13  4  0
  9 23  4  0
 10 11  1  0
 11 14  2  0
 11 27  1  0
 12 19  1  0
 12 24  4  0
 13 24  4  0
 15 18  1  0
 16 25  4  0
 16 26  4  0
 17 20  4  0
 17 28  1  0
 18 21  4  0
 21 26  4  0
 22 26  4  0
M  END
$$$$

 Created by Python create_sdf_string function

 28 30  0  0  0  0  0  0  0  0999 V2000
    5.7174   -8.4529   26.7190 C   0  0  0  0  0  0  0  0  0  0  0  0
    0.3974   -7.0711   27.5149 C   0  0  0  0  0  0  0  0  0  0  0  0
    2.5338   -7.6891   16.0102 C   0  0  0  0  0  0  0  0  0  0  0  0
    4.8690   -7.4380   26.4151 C   0  0  0  0  0  0  0  0  0  0  0  0
    2.3021   -5.6726   26.0378 C   0  0  0  0  0  0  0  0  0  0  0  0
    7.0880   -4.6163   27.0010 C   0  0  0  0  0  0  0  0  0  0  0  0
    8.3117   -4.3698   27.4436 C   0  0  0  0  0  0  0  0  0  0  0  0
    1.1339   -5.0515   26.3541 C   0  0  0  0  0  0  0  0  0  0  0  0
    4.8080   -8.0362   16.7101 C   0  0  0  0  0  0  0  0  0  0  0  0
   -1.2173   -3.9294   26.9717 O   0  0  0  0  0  0  0  0  0  0  0  0
   -1.0025   -5.0942   27.4586 C   0  0  0  0  0  0  0  0  0  0  0  0
    2.2474   -8.9123   16.6273 C   0  0  0  0  0  0  0  0  0  0  0  0
    4.4957   -9.2636   17.3041 C   0  0  0  0  0  0  0  0  0  0  0  0
   -1.8070   -5.6086   28.1920 O   0  0  0  0  0  0  0  0  0  0  0  0
   10.4296   -5.1799   28.3140 C   0  0  0  0  0  0  0  0  0  0  0  0
    6.6017   -5.9004   26.9187 C   0  0  0  0  0  0  0  0  0  0  0  0
    2.4761   -6.9940   26.4111 N   0  0  0  0  0  0  0  0  0  0  0  0
    9.1353   -5.4053   27.8239 C   0  0  0  0  0  0  0  0  0  0  0  0
    0.9922   -9.3232   16.5995 O   0  0  0  0  0  0  0  0  0  0  0  0
    1.5232   -7.6869   27.1182 C   0  0  0  0  0  0  0  0  0  0  0  0
    8.6878   -6.6715   27.7262 N   0  0  0  0  0  0  0  0  0  0  0  0
    6.9911   -8.2423   27.1808 C   0  0  0  0  0  0  0  0  0  0  0  0
    3.8436   -7.2758   16.0578 C   0  0  0  0  0  0  0  0  0  0  0  0
    3.1882   -9.7190   17.2566 C   0  0  0  0  0  0  0  0  0  0  0  0
    5.3488   -6.1737   26.5092 C   0  0  0  0  0  0  0  0  0  0  0  0
    7.4567   -6.9464   27.2858 C   0  0  0  0  0  0  0  0  0  0  0  0
    0.1921   -5.7592   27.1123 C   0  0  0  0  0  0  0  0  0  0  0  0
    3.5517   -7.7407   25.9711 C   0  0  0  0  0  0  0  0  0  0  0  0
  1  4  4  0
  1 22  4  0
  2 20  4  0
  2 27  4  0
  3 12  4  0
  3 23  4  0
  4 25  4  0
  4 28  1  0
  5  8  4  0
  5 17  4  0
  6  7  4  0
  6 16  4  0
  7 18  4  0
  8 27  4  0
  9 13  4  0
  9 23  4  0
 10 11  1  0
 11 14  2  0
 11 27  1  0
 12 19  1  0
 12 24  4  0
 13 24  4  0
 15 18  1  0
 16 25  4  0
 16 26  4  0
 17 20  4  0
 17 28  1  0
 18 21  4  0
 21 26  4  0
 22 26  4  0
M  END
$$$$

 Created by Python create_sdf_string function

 28 30  0  0  0  0  0  0  0  0999 V2000
    5.7174   -8.4529   26.7190 C   0  0  0  0  0  0  0  0  0  0  0  0
    0.3974   -7.0711   27.5149 C   0  0  0  0  0  0  0  0  0  0  0  0
    2.5338   -7.6891   16.0102 C   0  0  0  0  0  0  0  0  0  0  0  0
    4.8690   -7.4380   26.4151 C   0  0  0  0  0  0  0  0  0  0  0  0
    2.3021   -5.6726   26.0378 C   0  0  0  0  0  0  0  0  0  0  0  0
    7.0880   -4.6163   27.0010 C   0  0  0  0  0  0  0  0  0  0  0  0
    8.3117   -4.3698   27.4436 C   0  0  0  0  0  0  0  0  0  0  0  0
    1.1339   -5.0515   26.3541 C   0  0  0  0  0  0  0  0  0  0  0  0
    4.8080   -8.0362   16.7101 C   0  0  0  0  0  0  0  0  0  0  0  0
   -1.2173   -3.9294   26.9717 O   0  0  0  0  0  0  0  0  0  0  0  0
   -1.0025   -5.0942   27.4586 C   0  0  0  0  0  0  0  0  0  0  0  0
    2.2474   -8.9123   16.6273 C   0  0  0  0  0  0  0  0  0  0  0  0
    4.4957   -9.2636   17.3041 C   0  0  0  0  0  0  0  0  0  0  0  0
   -1.8070   -5.6086   28.1920 O   0  0  0  0  0  0  0  0  0  0  0  0
   10.4296   -5.1799   28.3140 C   0  0  0  0  0  0  0  0  0  0  0  0
    6.6017   -5.9004   26.9187 C   0  0  0  0  0  0  0  0  0  0  0  0
    2.4761   -6.9940   26.4111 N   0  0  0  0  0  0  0  0  0  0  0  0
    9.1353   -5.4053   27.8239 C   0  0  0  0  0  0  0  0  0  0  0  0
    0.9922   -9.3232   16.5995 O   0  0  0  0  0  0  0  0  0  0  0  0
    1.5232   -7.6869   27.1182 C   0  0  0  0  0  0  0  0  0  0  0  0
    8.6878   -6.6715   27.7262 N   0  0  0  0  0  0  0  0  0  0  0  0
    6.9911   -8.2423   27.1808 C   0  0  0  0  0  0  0  0  0  0  0  0
    3.8436   -7.2758   16.0578 C   0  0  0  0  0  0  0  0  0  0  0  0
    3.1882   -9.7190   17.2566 C   0  0  0  0  0  0  0  0  0  0  0  0
    5.3488   -6.1737   26.5092 C   0  0  0  0  0  0  0  0  0  0  0  0
    7.4567   -6.9464   27.2858 C   0  0  0  0  0  0  0  0  0  0  0  0
    0.1921   -5.7592   27.1123 C   0  0  0  0  0  0  0  0  0  0  0  0
    3.5517   -7.7407   25.9711 C   0  0  0  0  0  0  0  0  0  0  0  0
  1  4  4  0
  1 22  4  0
  2 20  4  0
  2 27  4  0
  3 12  4  0
  3 23  4  0
  4 25  4  0
  4 28  1  0
  5  8  4  0
  5 17  4  0
  6  7  4  0
  6 16  4  0
  7 18  4  0
  8 27  4  0
  9 13  4  0
  9 23  4  0
 10 11  1  0
 11 14  2  0
 11 27  1  0
 12 19  1  0
 12 24  4  0
 13 24  4  0
 15 18  1  0
 16 25  4  0
 16 26  4  0
 17 20  4  0
 17 28  1  0
 18 21  4  0
 21 26  4  0
 22 26  4  0
M  END
$$$$

 Created by Python create_sdf_string function

 28 30  0  0  0  0  0  0  0  0999 V2000
    5.7174   -8.4529   26.7190 C   0  0  0  0  0  0  0  0  0  0  0  0
    0.3974   -7.0711   27.5149 C   0  0  0  0  0  0  0  0  0  0  0  0
    2.5338   -7.6891   16.0102 C   0  0  0  0  0  0  0  0  0  0  0  0
    4.8690   -7.4380   26.4151 C   0  0  0  0  0  0  0  0  0  0  0  0
    2.3021   -5.6726   26.0378 C   0  0  0  0  0  0  0  0  0  0  0  0
    7.0880   -4.6163   27.0010 C   0  0  0  0  0  0  0  0  0  0  0  0
    8.3117   -4.3698   27.4436 C   0  0  0  0  0  0  0  0  0  0  0  0
    1.1339   -5.0515   26.3541 C   0  0  0  0  0  0  0  0  0  0  0  0
    4.8080   -8.0362   16.7101 C   0  0  0  0  0  0  0  0  0  0  0  0
   -1.2173   -3.9294   26.9717 O   0  0  0  0  0  0  0  0  0  0  0  0
   -1.0025   -5.0942   27.4586 C   0  0  0  0  0  0  0  0  0  0  0  0
    2.2474   -8.9123   16.6273 C   0  0  0  0  0  0  0  0  0  0  0  0
    4.4957   -9.2636   17.3041 C   0  0  0  0  0  0  0  0  0  0  0  0
   -1.8070   -5.6086   28.1920 O   0  0  0  0  0  0  0  0  0  0  0  0
   10.4296   -5.1799   28.3140 C   0  0  0  0  0  0  0  0  0  0  0  0
    6.6017   -5.9004   26.9187 C   0  0  0  0  0  0  0  0  0  0  0  0
    2.4761   -6.9940   26.4111 N   0  0  0  0  0  0  0  0  0  0  0  0
    9.1353   -5.4053   27.8239 C   0  0  0  0  0  0  0  0  0  0  0  0
    0.9922   -9.3232   16.5995 O   0  0  0  0  0  0  0  0  0  0  0  0
    1.5232   -7.6869   27.1182 C   0  0  0  0  0  0  0  0  0  0  0  0
    8.6878   -6.6715   27.7262 N   0  0  0  0  0  0  0  0  0  0  0  0
    6.9911   -8.2423   27.1808 C   0  0  0  0  0  0  0  0  0  0  0  0
    3.8436   -7.2758   16.0578 C   0  0  0  0  0  0  0  0  0  0  0  0
    3.1882   -9.7190   17.2566 C   0  0  0  0  0  0  0  0  0  0  0  0
    5.3488   -6.1737   26.5092 C   0  0  0  0  0  0  0  0  0  0  0  0
    7.4567   -6.9464   27.2858 C   0  0  0  0  0  0  0  0  0  0  0  0
    0.1921   -5.7592   27.1123 C   0  0  0  0  0  0  0  0  0  0  0  0
    3.5517   -7.7407   25.9711 C   0  0  0  0  0  0  0  0  0  0  0  0
  1  4  4  0
  1 22  4  0
  2 20  4  0
  2 27  4  0
  3 12  4  0
  3 23  4  0
  4 25  4  0
  4 28  1  0
  5  8  4  0
  5 17  4  0
  6  7  4  0
  6 16  4  0
  7 18  4  0
  8 27  4  0
  9 13  4  0
  9 23  4  0
 10 11  1  0
 11 14  2  0
 11 27  1  0
 12 19  1  0
 12 24  4  0
 13 24  4  0
 15 18  1  0
 16 25  4  0
 16 26  4  0
 17 20  4  0
 17 28  1  0
 18 21  4  0
 21 26  4  0
 22 26  4  0
M  END
$$$$

 Created by Python create_sdf_string function

 28 30  0  0  0  0  0  0  0  0999 V2000
    5.7174   -8.4529   26.7190 C   0  0  0  0  0  0  0  0  0  0  0  0
    0.3974   -7.0711   27.5149 C   0  0  0  0  0  0  0  0  0  0  0  0
    2.5338   -7.6891   16.0102 C   0  0  0  0  0  0  0  0  0  0  0  0
    4.8690   -7.4380   26.4151 C   0  0  0  0  0  0  0  0  0  0  0  0
    2.3021   -5.6726   26.0378 C   0  0  0  0  0  0  0  0  0  0  0  0
    7.0880   -4.6163   27.0010 C   0  0  0  0  0  0  0  0  0  0  0  0
    8.3117   -4.3698   27.4436 C   0  0  0  0  0  0  0  0  0  0  0  0
    1.1339   -5.0515   26.3541 C   0  0  0  0  0  0  0  0  0  0  0  0
    4.8080   -8.0362   16.7101 C   0  0  0  0  0  0  0  0  0  0  0  0
   -1.2173   -3.9294   26.9717 O   0  0  0  0  0  0  0  0  0  0  0  0
   -1.0025   -5.0942   27.4586 C   0  0  0  0  0  0  0  0  0  0  0  0
    2.2474   -8.9123   16.6273 C   0  0  0  0  0  0  0  0  0  0  0  0
    4.4957   -9.2636   17.3041 C   0  0  0  0  0  0  0  0  0  0  0  0
   -1.8070   -5.6086   28.1920 O   0  0  0  0  0  0  0  0  0  0  0  0
   10.4296   -5.1799   28.3140 C   0  0  0  0  0  0  0  0  0  0  0  0
    6.6017   -5.9004   26.9187 C   0  0  0  0  0  0  0  0  0  0  0  0
    2.4761   -6.9940   26.4111 N   0  0  0  0  0  0  0  0  0  0  0  0
    9.1353   -5.4053   27.8239 C   0  0  0  0  0  0  0  0  0  0  0  0
    0.9922   -9.3232   16.5995 O   0  0  0  0  0  0  0  0  0  0  0  0
    1.5232   -7.6869   27.1182 C   0  0  0  0  0  0  0  0  0  0  0  0
    8.6878   -6.6715   27.7262 N   0  0  0  0  0  0  0  0  0  0  0  0
    6.9911   -8.2423   27.1808 C   0  0  0  0  0  0  0  0  0  0  0  0
    3.8436   -7.2758   16.0578 C   0  0  0  0  0  0  0  0  0  0  0  0
    3.1882   -9.7190   17.2566 C   0  0  0  0  0  0  0  0  0  0  0  0
    5.3488   -6.1737   26.5092 C   0  0  0  0  0  0  0  0  0  0  0  0
    7.4567   -6.9464   27.2858 C   0  0  0  0  0  0  0  0  0  0  0  0
    0.1921   -5.7592   27.1123 C   0  0  0  0  0  0  0  0  0  0  0  0
    3.5517   -7.7407   25.9711 C   0  0  0  0  0  0  0  0  0  0  0  0
  1  4  4  0
  1 22  4  0
  2 20  4  0
  2 27  4  0
  3 12  4  0
  3 23  4  0
  4 25  4  0
  4 28  1  0
  5  8  4  0
  5 17  4  0
  6  7  4  0
  6 16  4  0
  7 18  4  0
  8 27  4  0
  9 13  4  0
  9 23  4  0
 10 11  1  0
 11 14  2  0
 11 27  1  0
 12 19  1  0
 12 24  4  0
 13 24  4  0
 15 18  1  0
 16 25  4  0
 16 26  4  0
 17 20  4  0
 17 28  1  0
 18 21  4  0
 21 26  4  0
 22 26  4  0
M  END
$$$$

 Created by Python create_sdf_string function

 28 30  0  0  0  0  0  0  0  0999 V2000
    5.7174   -8.4529   26.7190 C   0  0  0  0  0  0  0  0  0  0  0  0
    0.3974   -7.0711   27.5149 C   0  0  0  0  0  0  0  0  0  0  0  0
    2.5338   -7.6891   16.0102 C   0  0  0  0  0  0  0  0  0  0  0  0
    4.8690   -7.4380   26.4151 C   0  0  0  0  0  0  0  0  0  0  0  0
    2.3021   -5.6726   26.0378 C   0  0  0  0  0  0  0  0  0  0  0  0
    7.0880   -4.6163   27.0010 C   0  0  0  0  0  0  0  0  0  0  0  0
    8.3117   -4.3698   27.4436 C   0  0  0  0  0  0  0  0  0  0  0  0
    1.1339   -5.0515   26.3541 C   0  0  0  0  0  0  0  0  0  0  0  0
    4.8080   -8.0362   16.7101 C   0  0  0  0  0  0  0  0  0  0  0  0
   -1.2173   -3.9294   26.9717 O   0  0  0  0  0  0  0  0  0  0  0  0
   -1.0025   -5.0942   27.4586 C   0  0  0  0  0  0  0  0  0  0  0  0
    2.2474   -8.9123   16.6273 C   0  0  0  0  0  0  0  0  0  0  0  0
    4.4957   -9.2636   17.3041 C   0  0  0  0  0  0  0  0  0  0  0  0
   -1.8070   -5.6086   28.1920 O   0  0  0  0  0  0  0  0  0  0  0  0
   10.4296   -5.1799   28.3140 C   0  0  0  0  0  0  0  0  0  0  0  0
    6.6017   -5.9004   26.9187 C   0  0  0  0  0  0  0  0  0  0  0  0
    2.4761   -6.9940   26.4111 N   0  0  0  0  0  0  0  0  0  0  0  0
    9.1353   -5.4053   27.8239 C   0  0  0  0  0  0  0  0  0  0  0  0
    0.9922   -9.3232   16.5995 O   0  0  0  0  0  0  0  0  0  0  0  0
    1.5232   -7.6869   27.1182 C   0  0  0  0  0  0  0  0  0  0  0  0
    8.6878   -6.6715   27.7262 N   0  0  0  0  0  0  0  0  0  0  0  0
    6.9911   -8.2423   27.1808 C   0  0  0  0  0  0  0  0  0  0  0  0
    3.8436   -7.2758   16.0578 C   0  0  0  0  0  0  0  0  0  0  0  0
    3.1882   -9.7190   17.2566 C   0  0  0  0  0  0  0  0  0  0  0  0
    5.3488   -6.1737   26.5092 C   0  0  0  0  0  0  0  0  0  0  0  0
    7.4567   -6.9464   27.2858 C   0  0  0  0  0  0  0  0  0  0  0  0
    0.1921   -5.7592   27.1123 C   0  0  0  0  0  0  0  0  0  0  0  0
    3.5517   -7.7407   25.9711 C   0  0  0  0  0  0  0  0  0  0  0  0
  1  4  4  0
  1 22  4  0
  2 20  4  0
  2 27  4  0
  3 12  4  0
  3 23  4  0
  4 25  4  0
  4 28  1  0
  5  8  4  0
  5 17  4  0
  6  7  4  0
  6 16  4  0
  7 18  4  0
  8 27  4  0
  9 13  4  0
  9 23  4  0
 10 11  1  0
 11 14  2  0
 11 27  1  0
 12 19  1  0
 12 24  4  0
 13 24  4  0
 15 18  1  0
 16 25  4  0
 16 26  4  0
 17 20  4  0
 17 28  1  0
 18 21  4  0
 21 26  4  0
 22 26  4  0
M  END
$$$$

 Created by Python create_sdf_string function

 28 30  0  0  0  0  0  0  0  0999 V2000
    5.7174   -8.4529   26.7190 C   0  0  0  0  0  0  0  0  0  0  0  0
    0.3974   -7.0711   27.5149 C   0  0  0  0  0  0  0  0  0  0  0  0
    2.5338   -7.6891   16.0102 C   0  0  0  0  0  0  0  0  0  0  0  0
    4.8690   -7.4380   26.4151 C   0  0  0  0  0  0  0  0  0  0  0  0
    2.3021   -5.6726   26.0378 C   0  0  0  0  0  0  0  0  0  0  0  0
    7.0880   -4.6163   27.0010 C   0  0  0  0  0  0  0  0  0  0  0  0
    8.3117   -4.3698   27.4436 C   0  0  0  0  0  0  0  0  0  0  0  0
    1.1339   -5.0515   26.3541 C   0  0  0  0  0  0  0  0  0  0  0  0
    4.8080   -8.0362   16.7101 C   0  0  0  0  0  0  0  0  0  0  0  0
   -1.2173   -3.9294   26.9717 O   0  0  0  0  0  0  0  0  0  0  0  0
   -1.0025   -5.0942   27.4586 C   0  0  0  0  0  0  0  0  0  0  0  0
    2.2474   -8.9123   16.6273 C   0  0  0  0  0  0  0  0  0  0  0  0
    4.4957   -9.2636   17.3041 C   0  0  0  0  0  0  0  0  0  0  0  0
   -1.8070   -5.6086   28.1920 O   0  0  0  0  0  0  0  0  0  0  0  0
   10.4296   -5.1799   28.3140 C   0  0  0  0  0  0  0  0  0  0  0  0
    6.6017   -5.9004   26.9187 C   0  0  0  0  0  0  0  0  0  0  0  0
    2.4761   -6.9940   26.4111 N   0  0  0  0  0  0  0  0  0  0  0  0
    9.1353   -5.4053   27.8239 C   0  0  0  0  0  0  0  0  0  0  0  0
    0.9922   -9.3232   16.5995 O   0  0  0  0  0  0  0  0  0  0  0  0
    1.5232   -7.6869   27.1182 C   0  0  0  0  0  0  0  0  0  0  0  0
    8.6878   -6.6715   27.7262 N   0  0  0  0  0  0  0  0  0  0  0  0
    6.9911   -8.2423   27.1808 C   0  0  0  0  0  0  0  0  0  0  0  0
    3.8436   -7.2758   16.0578 C   0  0  0  0  0  0  0  0  0  0  0  0
    3.1882   -9.7190   17.2566 C   0  0  0  0  0  0  0  0  0  0  0  0
    5.3488   -6.1737   26.5092 C   0  0  0  0  0  0  0  0  0  0  0  0
    7.4567   -6.9464   27.2858 C   0  0  0  0  0  0  0  0  0  0  0  0
    0.1921   -5.7592   27.1123 C   0  0  0  0  0  0  0  0  0  0  0  0
    3.5517   -7.7407   25.9711 C   0  0  0  0  0  0  0  0  0  0  0  0
  1  4  4  0
  1 22  4  0
  2 20  4  0
  2 27  4  0
  3 12  4  0
  3 23  4  0
  4 25  4  0
  4 28  1  0
  5  8  4  0
  5 17  4  0
  6  7  4  0
  6 16  4  0
  7 18  4  0
  8 27  4  0
  9 13  4  0
  9 23  4  0
 10 11  1  0
 11 14  2  0
 11 27  1  0
 12 19  1  0
 12 24  4  0
 13 24  4  0
 15 18  1  0
 16 25  4  0
 16 26  4  0
 17 20  4  0
 17 28  1  0
 18 21  4  0
 21 26  4  0
 22 26  4  0
M  END
$$$$

 Created by Python create_sdf_string function

 28 30  0  0  0  0  0  0  0  0999 V2000
    5.7174   -8.4529   26.7190 C   0  0  0  0  0  0  0  0  0  0  0  0
    0.3974   -7.0711   27.5149 C   0  0  0  0  0  0  0  0  0  0  0  0
    2.5338   -7.6891   16.0102 C   0  0  0  0  0  0  0  0  0  0  0  0
    4.8690   -7.4380   26.4151 C   0  0  0  0  0  0  0  0  0  0  0  0
    2.3021   -5.6726   26.0378 C   0  0  0  0  0  0  0  0  0  0  0  0
    7.0880   -4.6163   27.0010 C   0  0  0  0  0  0  0  0  0  0  0  0
    8.3117   -4.3698   27.4436 C   0  0  0  0  0  0  0  0  0  0  0  0
    1.1339   -5.0515   26.3541 C   0  0  0  0  0  0  0  0  0  0  0  0
    4.8080   -8.0362   16.7101 C   0  0  0  0  0  0  0  0  0  0  0  0
   -1.2173   -3.9294   26.9717 O   0  0  0  0  0  0  0  0  0  0  0  0
   -1.0025   -5.0942   27.4586 C   0  0  0  0  0  0  0  0  0  0  0  0
    2.2474   -8.9123   16.6273 C   0  0  0  0  0  0  0  0  0  0  0  0
    4.4957   -9.2636   17.3041 C   0  0  0  0  0  0  0  0  0  0  0  0
   -1.8070   -5.6086   28.1920 O   0  0  0  0  0  0  0  0  0  0  0  0
   10.4296   -5.1799   28.3140 C   0  0  0  0  0  0  0  0  0  0  0  0
    6.6017   -5.9004   26.9187 C   0  0  0  0  0  0  0  0  0  0  0  0
    2.4761   -6.9940   26.4111 N   0  0  0  0  0  0  0  0  0  0  0  0
    9.1353   -5.4053   27.8239 C   0  0  0  0  0  0  0  0  0  0  0  0
    0.9922   -9.3232   16.5995 O   0  0  0  0  0  0  0  0  0  0  0  0
    1.5232   -7.6869   27.1182 C   0  0  0  0  0  0  0  0  0  0  0  0
    8.6878   -6.6715   27.7262 N   0  0  0  0  0  0  0  0  0  0  0  0
    6.9911   -8.2423   27.1808 C   0  0  0  0  0  0  0  0  0  0  0  0
    3.8436   -7.2758   16.0578 C   0  0  0  0  0  0  0  0  0  0  0  0
    3.1882   -9.7190   17.2566 C   0  0  0  0  0  0  0  0  0  0  0  0
    5.3488   -6.1737   26.5092 C   0  0  0  0  0  0  0  0  0  0  0  0
    7.4567   -6.9464   27.2858 C   0  0  0  0  0  0  0  0  0  0  0  0
    0.1921   -5.7592   27.1123 C   0  0  0  0  0  0  0  0  0  0  0  0
    3.5517   -7.7407   25.9711 C   0  0  0  0  0  0  0  0  0  0  0  0
  1  4  4  0
  1 22  4  0
  2 20  4  0
  2 27  4  0
  3 12  4  0
  3 23  4  0
  4 25  4  0
  4 28  1  0
  5  8  4  0
  5 17  4  0
  6  7  4  0
  6 16  4  0
  7 18  4  0
  8 27  4  0
  9 13  4  0
  9 23  4  0
 10 11  1  0
 11 14  2  0
 11 27  1  0
 12 19  1  0
 12 24  4  0
 13 24  4  0
 15 18  1  0
 16 25  4  0
 16 26  4  0
 17 20  4  0
 17 28  1  0
 18 21  4  0
 21 26  4  0
 22 26  4  0
M  END
$$$$

 Created by Python create_sdf_string function

 28 30  0  0  0  0  0  0  0  0999 V2000
    5.7174   -8.4529   26.7190 C   0  0  0  0  0  0  0  0  0  0  0  0
    0.3974   -7.0711   27.5149 C   0  0  0  0  0  0  0  0  0  0  0  0
    2.5338   -7.6891   16.0102 C   0  0  0  0  0  0  0  0  0  0  0  0
    4.8690   -7.4380   26.4151 C   0  0  0  0  0  0  0  0  0  0  0  0
    2.3021   -5.6726   26.0378 C   0  0  0  0  0  0  0  0  0  0  0  0
    7.0880   -4.6163   27.0010 C   0  0  0  0  0  0  0  0  0  0  0  0
    8.3117   -4.3698   27.4436 C   0  0  0  0  0  0  0  0  0  0  0  0
    1.1339   -5.0515   26.3541 C   0  0  0  0  0  0  0  0  0  0  0  0
    4.8080   -8.0362   16.7101 C   0  0  0  0  0  0  0  0  0  0  0  0
   -1.2173   -3.9294   26.9717 O   0  0  0  0  0  0  0  0  0  0  0  0
   -1.0025   -5.0942   27.4586 C   0  0  0  0  0  0  0  0  0  0  0  0
    2.2474   -8.9123   16.6273 C   0  0  0  0  0  0  0  0  0  0  0  0
    4.4957   -9.2636   17.3041 C   0  0  0  0  0  0  0  0  0  0  0  0
   -1.8070   -5.6086   28.1920 O   0  0  0  0  0  0  0  0  0  0  0  0
   10.4296   -5.1799   28.3140 C   0  0  0  0  0  0  0  0  0  0  0  0
    6.6017   -5.9004   26.9187 C   0  0  0  0  0  0  0  0  0  0  0  0
    2.4761   -6.9940   26.4111 N   0  0  0  0  0  0  0  0  0  0  0  0
    9.1353   -5.4053   27.8239 C   0  0  0  0  0  0  0  0  0  0  0  0
    0.9922   -9.3232   16.5995 O   0  0  0  0  0  0  0  0  0  0  0  0
    1.5232   -7.6869   27.1182 C   0  0  0  0  0  0  0  0  0  0  0  0
    8.6878   -6.6715   27.7262 N   0  0  0  0  0  0  0  0  0  0  0  0
    6.9911   -8.2423   27.1808 C   0  0  0  0  0  0  0  0  0  0  0  0
    3.8436   -7.2758   16.0578 C   0  0  0  0  0  0  0  0  0  0  0  0
    3.1882   -9.7190   17.2566 C   0  0  0  0  0  0  0  0  0  0  0  0
    5.3488   -6.1737   26.5092 C   0  0  0  0  0  0  0  0  0  0  0  0
    7.4567   -6.9464   27.2858 C   0  0  0  0  0  0  0  0  0  0  0  0
    0.1921   -5.7592   27.1123 C   0  0  0  0  0  0  0  0  0  0  0  0
    3.5517   -7.7407   25.9711 C   0  0  0  0  0  0  0  0  0  0  0  0
  1  4  4  0
  1 22  4  0
  2 20  4  0
  2 27  4  0
  3 12  4  0
  3 23  4  0
  4 25  4  0
  4 28  1  0
  5  8  4  0
  5 17  4  0
  6  7  4  0
  6 16  4  0
  7 18  4  0
  8 27  4  0
  9 13  4  0
  9 23  4  0
 10 11  1  0
 11 14  2  0
 11 27  1  0
 12 19  1  0
 12 24  4  0
 13 24  4  0
 15 18  1  0
 16 25  4  0
 16 26  4  0
 17 20  4  0
 17 28  1  0
 18 21  4  0
 21 26  4  0
 22 26  4  0
M  END
$$$$

 Created by Python create_sdf_string function

 28 30  0  0  0  0  0  0  0  0999 V2000
    5.7174   -8.4529   26.7190 C   0  0  0  0  0  0  0  0  0  0  0  0
    0.3974   -7.0711   27.5149 C   0  0  0  0  0  0  0  0  0  0  0  0
    2.5338   -7.6891   16.0102 C   0  0  0  0  0  0  0  0  0  0  0  0
    4.8690   -7.4380   26.4151 C   0  0  0  0  0  0  0  0  0  0  0  0
    2.3021   -5.6726   26.0378 C   0  0  0  0  0  0  0  0  0  0  0  0
    7.0880   -4.6163   27.0010 C   0  0  0  0  0  0  0  0  0  0  0  0
    8.3117   -4.3698   27.4436 C   0  0  0  0  0  0  0  0  0  0  0  0
    1.1339   -5.0515   26.3541 C   0  0  0  0  0  0  0  0  0  0  0  0
    4.8080   -8.0362   16.7101 C   0  0  0  0  0  0  0  0  0  0  0  0
   -1.2173   -3.9294   26.9717 O   0  0  0  0  0  0  0  0  0  0  0  0
   -1.0025   -5.0942   27.4586 C   0  0  0  0  0  0  0  0  0  0  0  0
    2.2474   -8.9123   16.6273 C   0  0  0  0  0  0  0  0  0  0  0  0
    4.4957   -9.2636   17.3041 C   0  0  0  0  0  0  0  0  0  0  0  0
   -1.8070   -5.6086   28.1920 O   0  0  0  0  0  0  0  0  0  0  0  0
   10.4296   -5.1799   28.3140 C   0  0  0  0  0  0  0  0  0  0  0  0
    6.6017   -5.9004   26.9187 C   0  0  0  0  0  0  0  0  0  0  0  0
    2.4761   -6.9940   26.4111 N   0  0  0  0  0  0  0  0  0  0  0  0
    9.1353   -5.4053   27.8239 C   0  0  0  0  0  0  0  0  0  0  0  0
    0.9922   -9.3232   16.5995 O   0  0  0  0  0  0  0  0  0  0  0  0
    1.5232   -7.6869   27.1182 C   0  0  0  0  0  0  0  0  0  0  0  0
    8.6878   -6.6715   27.7262 N   0  0  0  0  0  0  0  0  0  0  0  0
    6.9911   -8.2423   27.1808 C   0  0  0  0  0  0  0  0  0  0  0  0
    3.8436   -7.2758   16.0578 C   0  0  0  0  0  0  0  0  0  0  0  0
    3.1882   -9.7190   17.2566 C   0  0  0  0  0  0  0  0  0  0  0  0
    5.3488   -6.1737   26.5092 C   0  0  0  0  0  0  0  0  0  0  0  0
    7.4567   -6.9464   27.2858 C   0  0  0  0  0  0  0  0  0  0  0  0
    0.1921   -5.7592   27.1123 C   0  0  0  0  0  0  0  0  0  0  0  0
    3.5517   -7.7407   25.9711 C   0  0  0  0  0  0  0  0  0  0  0  0
  1  4  4  0
  1 22  4  0
  2 20  4  0
  2 27  4  0
  3 12  4  0
  3 23  4  0
  4 25  4  0
  4 28  1  0
  5  8  4  0
  5 17  4  0
  6  7  4  0
  6 16  4  0
  7 18  4  0
  8 27  4  0
  9 13  4  0
  9 23  4  0
 10 11  1  0
 11 14  2  0
 11 27  1  0
 12 19  1  0
 12 24  4  0
 13 24  4  0
 15 18  1  0
 16 25  4  0
 16 26  4  0
 17 20  4  0
 17 28  1  0
 18 21  4  0
 21 26  4  0
 22 26  4  0
M  END
$$$$

 Created by Python create_sdf_string function

 28 30  0  0  0  0  0  0  0  0999 V2000
    5.7174   -8.4529   26.7190 C   0  0  0  0  0  0  0  0  0  0  0  0
    0.3974   -7.0711   27.5149 C   0  0  0  0  0  0  0  0  0  0  0  0
    2.5338   -7.6891   16.0102 C   0  0  0  0  0  0  0  0  0  0  0  0
    4.8690   -7.4380   26.4151 C   0  0  0  0  0  0  0  0  0  0  0  0
    2.3021   -5.6726   26.0378 C   0  0  0  0  0  0  0  0  0  0  0  0
    7.0880   -4.6163   27.0010 C   0  0  0  0  0  0  0  0  0  0  0  0
    8.3117   -4.3698   27.4436 C   0  0  0  0  0  0  0  0  0  0  0  0
    1.1339   -5.0515   26.3541 C   0  0  0  0  0  0  0  0  0  0  0  0
    4.8080   -8.0362   16.7101 C   0  0  0  0  0  0  0  0  0  0  0  0
   -1.2173   -3.9294   26.9717 O   0  0  0  0  0  0  0  0  0  0  0  0
   -1.0025   -5.0942   27.4586 C   0  0  0  0  0  0  0  0  0  0  0  0
    2.2474   -8.9123   16.6273 C   0  0  0  0  0  0  0  0  0  0  0  0
    4.4957   -9.2636   17.3041 C   0  0  0  0  0  0  0  0  0  0  0  0
   -1.8070   -5.6086   28.1920 O   0  0  0  0  0  0  0  0  0  0  0  0
   10.4296   -5.1799   28.3140 C   0  0  0  0  0  0  0  0  0  0  0  0
    6.6017   -5.9004   26.9187 C   0  0  0  0  0  0  0  0  0  0  0  0
    2.4761   -6.9940   26.4111 N   0  0  0  0  0  0  0  0  0  0  0  0
    9.1353   -5.4053   27.8239 C   0  0  0  0  0  0  0  0  0  0  0  0
    0.9922   -9.3232   16.5995 O   0  0  0  0  0  0  0  0  0  0  0  0
    1.5232   -7.6869   27.1182 C   0  0  0  0  0  0  0  0  0  0  0  0
    8.6878   -6.6715   27.7262 N   0  0  0  0  0  0  0  0  0  0  0  0
    6.9911   -8.2423   27.1808 C   0  0  0  0  0  0  0  0  0  0  0  0
    3.8436   -7.2758   16.0578 C   0  0  0  0  0  0  0  0  0  0  0  0
    3.1882   -9.7190   17.2566 C   0  0  0  0  0  0  0  0  0  0  0  0
    5.3488   -6.1737   26.5092 C   0  0  0  0  0  0  0  0  0  0  0  0
    7.4567   -6.9464   27.2858 C   0  0  0  0  0  0  0  0  0  0  0  0
    0.1921   -5.7592   27.1123 C   0  0  0  0  0  0  0  0  0  0  0  0
    3.5517   -7.7407   25.9711 C   0  0  0  0  0  0  0  0  0  0  0  0
  1  4  4  0
  1 22  4  0
  2 20  4  0
  2 27  4  0
  3 12  4  0
  3 23  4  0
  4 25  4  0
  4 28  1  0
  5  8  4  0
  5 17  4  0
  6  7  4  0
  6 16  4  0
  7 18  4  0
  8 27  4  0
  9 13  4  0
  9 23  4  0
 10 11  1  0
 11 14  2  0
 11 27  1  0
 12 19  1  0
 12 24  4  0
 13 24  4  0
 15 18  1  0
 16 25  4  0
 16 26  4  0
 17 20  4  0
 17 28  1  0
 18 21  4  0
 21 26  4  0
 22 26  4  0
M  END
$$$$

 Created by Python create_sdf_string function

 28 30  0  0  0  0  0  0  0  0999 V2000
    5.7174   -8.4529   26.7190 C   0  0  0  0  0  0  0  0  0  0  0  0
    0.3974   -7.0711   27.5149 C   0  0  0  0  0  0  0  0  0  0  0  0
    2.5338   -7.6891   16.0102 C   0  0  0  0  0  0  0  0  0  0  0  0
    4.8690   -7.4380   26.4151 C   0  0  0  0  0  0  0  0  0  0  0  0
    2.3021   -5.6726   26.0378 C   0  0  0  0  0  0  0  0  0  0  0  0
    7.0880   -4.6163   27.0010 C   0  0  0  0  0  0  0  0  0  0  0  0
    8.3117   -4.3698   27.4436 C   0  0  0  0  0  0  0  0  0  0  0  0
    1.1339   -5.0515   26.3541 C   0  0  0  0  0  0  0  0  0  0  0  0
    4.8080   -8.0362   16.7101 C   0  0  0  0  0  0  0  0  0  0  0  0
   -1.2173   -3.9294   26.9717 O   0  0  0  0  0  0  0  0  0  0  0  0
   -1.0025   -5.0942   27.4586 C   0  0  0  0  0  0  0  0  0  0  0  0
    2.2474   -8.9123   16.6273 C   0  0  0  0  0  0  0  0  0  0  0  0
    4.4957   -9.2636   17.3041 C   0  0  0  0  0  0  0  0  0  0  0  0
   -1.8070   -5.6086   28.1920 O   0  0  0  0  0  0  0  0  0  0  0  0
   10.4296   -5.1799   28.3140 C   0  0  0  0  0  0  0  0  0  0  0  0
    6.6017   -5.9004   26.9187 C   0  0  0  0  0  0  0  0  0  0  0  0
    2.4761   -6.9940   26.4111 N   0  0  0  0  0  0  0  0  0  0  0  0
    9.1353   -5.4053   27.8239 C   0  0  0  0  0  0  0  0  0  0  0  0
    0.9922   -9.3232   16.5995 O   0  0  0  0  0  0  0  0  0  0  0  0
    1.5232   -7.6869   27.1182 C   0  0  0  0  0  0  0  0  0  0  0  0
    8.6878   -6.6715   27.7262 N   0  0  0  0  0  0  0  0  0  0  0  0
    6.9911   -8.2423   27.1808 C   0  0  0  0  0  0  0  0  0  0  0  0
    3.8436   -7.2758   16.0578 C   0  0  0  0  0  0  0  0  0  0  0  0
    3.1882   -9.7190   17.2566 C   0  0  0  0  0  0  0  0  0  0  0  0
    5.3488   -6.1737   26.5092 C   0  0  0  0  0  0  0  0  0  0  0  0
    7.4567   -6.9464   27.2858 C   0  0  0  0  0  0  0  0  0  0  0  0
    0.1921   -5.7592   27.1123 C   0  0  0  0  0  0  0  0  0  0  0  0
    3.5517   -7.7407   25.9711 C   0  0  0  0  0  0  0  0  0  0  0  0
  1  4  4  0
  1 22  4  0
  2 20  4  0
  2 27  4  0
  3 12  4  0
  3 23  4  0
  4 25  4  0
  4 28  1  0
  5  8  4  0
  5 17  4  0
  6  7  4  0
  6 16  4  0
  7 18  4  0
  8 27  4  0
  9 13  4  0
  9 23  4  0
 10 11  1  0
 11 14  2  0
 11 27  1  0
 12 19  1  0
 12 24  4  0
 13 24  4  0
 15 18  1  0
 16 25  4  0
 16 26  4  0
 17 20  4  0
 17 28  1  0
 18 21  4  0
 21 26  4  0
 22 26  4  0
M  END
$$$$

 Created by Python create_sdf_string function

 28 30  0  0  0  0  0  0  0  0999 V2000
    5.7174   -8.4529   26.7190 C   0  0  0  0  0  0  0  0  0  0  0  0
    0.3974   -7.0711   27.5149 C   0  0  0  0  0  0  0  0  0  0  0  0
    2.5338   -7.6891   16.0102 C   0  0  0  0  0  0  0  0  0  0  0  0
    4.8690   -7.4380   26.4151 C   0  0  0  0  0  0  0  0  0  0  0  0
    2.3021   -5.6726   26.0378 C   0  0  0  0  0  0  0  0  0  0  0  0
    7.0880   -4.6163   27.0010 C   0  0  0  0  0  0  0  0  0  0  0  0
    8.3117   -4.3698   27.4436 C   0  0  0  0  0  0  0  0  0  0  0  0
    1.1339   -5.0515   26.3541 C   0  0  0  0  0  0  0  0  0  0  0  0
    4.8080   -8.0362   16.7101 C   0  0  0  0  0  0  0  0  0  0  0  0
   -1.2173   -3.9294   26.9717 O   0  0  0  0  0  0  0  0  0  0  0  0
   -1.0025   -5.0942   27.4586 C   0  0  0  0  0  0  0  0  0  0  0  0
    2.2474   -8.9123   16.6273 C   0  0  0  0  0  0  0  0  0  0  0  0
    4.4957   -9.2636   17.3041 C   0  0  0  0  0  0  0  0  0  0  0  0
   -1.8070   -5.6086   28.1920 O   0  0  0  0  0  0  0  0  0  0  0  0
   10.4296   -5.1799   28.3140 C   0  0  0  0  0  0  0  0  0  0  0  0
    6.6017   -5.9004   26.9187 C   0  0  0  0  0  0  0  0  0  0  0  0
    2.4761   -6.9940   26.4111 N   0  0  0  0  0  0  0  0  0  0  0  0
    9.1353   -5.4053   27.8239 C   0  0  0  0  0  0  0  0  0  0  0  0
    0.9922   -9.3232   16.5995 O   0  0  0  0  0  0  0  0  0  0  0  0
    1.5232   -7.6869   27.1182 C   0  0  0  0  0  0  0  0  0  0  0  0
    8.6878   -6.6715   27.7262 N   0  0  0  0  0  0  0  0  0  0  0  0
    6.9911   -8.2423   27.1808 C   0  0  0  0  0  0  0  0  0  0  0  0
    3.8436   -7.2758   16.0578 C   0  0  0  0  0  0  0  0  0  0  0  0
    3.1882   -9.7190   17.2566 C   0  0  0  0  0  0  0  0  0  0  0  0
    5.3488   -6.1737   26.5092 C   0  0  0  0  0  0  0  0  0  0  0  0
    7.4567   -6.9464   27.2858 C   0  0  0  0  0  0  0  0  0  0  0  0
    0.1921   -5.7592   27.1123 C   0  0  0  0  0  0  0  0  0  0  0  0
    3.5517   -7.7407   25.9711 C   0  0  0  0  0  0  0  0  0  0  0  0
  1  4  4  0
  1 22  4  0
  2 20  4  0
  2 27  4  0
  3 12  4  0
  3 23  4  0
  4 25  4  0
  4 28  1  0
  5  8  4  0
  5 17  4  0
  6  7  4  0
  6 16  4  0
  7 18  4  0
  8 27  4  0
  9 13  4  0
  9 23  4  0
 10 11  1  0
 11 14  2  0
 11 27  1  0
 12 19  1  0
 12 24  4  0
 13 24  4  0
 15 18  1  0
 16 25  4  0
 16 26  4  0
 17 20  4  0
 17 28  1  0
 18 21  4  0
 21 26  4  0
 22 26  4  0
M  END
$$$$

 Created by Python create_sdf_string function

 28 30  0  0  0  0  0  0  0  0999 V2000
    5.7174   -8.4529   26.7190 C   0  0  0  0  0  0  0  0  0  0  0  0
    0.3974   -7.0711   27.5149 C   0  0  0  0  0  0  0  0  0  0  0  0
    2.5338   -7.6891   16.0102 C   0  0  0  0  0  0  0  0  0  0  0  0
    4.8690   -7.4380   26.4151 C   0  0  0  0  0  0  0  0  0  0  0  0
    2.3021   -5.6726   26.0378 C   0  0  0  0  0  0  0  0  0  0  0  0
    7.0880   -4.6163   27.0010 C   0  0  0  0  0  0  0  0  0  0  0  0
    8.3117   -4.3698   27.4436 C   0  0  0  0  0  0  0  0  0  0  0  0
    1.1339   -5.0515   26.3541 C   0  0  0  0  0  0  0  0  0  0  0  0
    4.8080   -8.0362   16.7101 C   0  0  0  0  0  0  0  0  0  0  0  0
   -1.2173   -3.9294   26.9717 O   0  0  0  0  0  0  0  0  0  0  0  0
   -1.0025   -5.0942   27.4586 C   0  0  0  0  0  0  0  0  0  0  0  0
    2.2474   -8.9123   16.6273 C   0  0  0  0  0  0  0  0  0  0  0  0
    4.4957   -9.2636   17.3041 C   0  0  0  0  0  0  0  0  0  0  0  0
   -1.8070   -5.6086   28.1920 O   0  0  0  0  0  0  0  0  0  0  0  0
   10.4296   -5.1799   28.3140 C   0  0  0  0  0  0  0  0  0  0  0  0
    6.6017   -5.9004   26.9187 C   0  0  0  0  0  0  0  0  0  0  0  0
    2.4761   -6.9940   26.4111 N   0  0  0  0  0  0  0  0  0  0  0  0
    9.1353   -5.4053   27.8239 C   0  0  0  0  0  0  0  0  0  0  0  0
    0.9922   -9.3232   16.5995 O   0  0  0  0  0  0  0  0  0  0  0  0
    1.5232   -7.6869   27.1182 C   0  0  0  0  0  0  0  0  0  0  0  0
    8.6878   -6.6715   27.7262 N   0  0  0  0  0  0  0  0  0  0  0  0
    6.9911   -8.2423   27.1808 C   0  0  0  0  0  0  0  0  0  0  0  0
    3.8436   -7.2758   16.0578 C   0  0  0  0  0  0  0  0  0  0  0  0
    3.1882   -9.7190   17.2566 C   0  0  0  0  0  0  0  0  0  0  0  0
    5.3488   -6.1737   26.5092 C   0  0  0  0  0  0  0  0  0  0  0  0
    7.4567   -6.9464   27.2858 C   0  0  0  0  0  0  0  0  0  0  0  0
    0.1921   -5.7592   27.1123 C   0  0  0  0  0  0  0  0  0  0  0  0
    3.5517   -7.7407   25.9711 C   0  0  0  0  0  0  0  0  0  0  0  0
  1  4  4  0
  1 22  4  0
  2 20  4  0
  2 27  4  0
  3 12  4  0
  3 23  4  0
  4 25  4  0
  4 28  1  0
  5  8  4  0
  5 17  4  0
  6  7  4  0
  6 16  4  0
  7 18  4  0
  8 27  4  0
  9 13  4  0
  9 23  4  0
 10 11  1  0
 11 14  2  0
 11 27  1  0
 12 19  1  0
 12 24  4  0
 13 24  4  0
 15 18  1  0
 16 25  4  0
 16 26  4  0
 17 20  4  0
 17 28  1  0
 18 21  4  0
 21 26  4  0
 22 26  4  0
M  END
$$$$

 Created by Python create_sdf_string function

 28 30  0  0  0  0  0  0  0  0999 V2000
    5.7174   -8.4529   26.7190 C   0  0  0  0  0  0  0  0  0  0  0  0
    0.3974   -7.0711   27.5149 C   0  0  0  0  0  0  0  0  0  0  0  0
    2.5338   -7.6891   16.0102 C   0  0  0  0  0  0  0  0  0  0  0  0
    4.8690   -7.4380   26.4151 C   0  0  0  0  0  0  0  0  0  0  0  0
    2.3021   -5.6726   26.0378 C   0  0  0  0  0  0  0  0  0  0  0  0
    7.0880   -4.6163   27.0010 C   0  0  0  0  0  0  0  0  0  0  0  0
    8.3117   -4.3698   27.4436 C   0  0  0  0  0  0  0  0  0  0  0  0
    1.1339   -5.0515   26.3541 C   0  0  0  0  0  0  0  0  0  0  0  0
    4.8080   -8.0362   16.7101 C   0  0  0  0  0  0  0  0  0  0  0  0
   -1.2173   -3.9294   26.9717 O   0  0  0  0  0  0  0  0  0  0  0  0
   -1.0025   -5.0942   27.4586 C   0  0  0  0  0  0  0  0  0  0  0  0
    2.2474   -8.9123   16.6273 C   0  0  0  0  0  0  0  0  0  0  0  0
    4.4957   -9.2636   17.3041 C   0  0  0  0  0  0  0  0  0  0  0  0
   -1.8070   -5.6086   28.1920 O   0  0  0  0  0  0  0  0  0  0  0  0
   10.4296   -5.1799   28.3140 C   0  0  0  0  0  0  0  0  0  0  0  0
    6.6017   -5.9004   26.9187 C   0  0  0  0  0  0  0  0  0  0  0  0
    2.4761   -6.9940   26.4111 N   0  0  0  0  0  0  0  0  0  0  0  0
    9.1353   -5.4053   27.8239 C   0  0  0  0  0  0  0  0  0  0  0  0
    0.9922   -9.3232   16.5995 O   0  0  0  0  0  0  0  0  0  0  0  0
    1.5232   -7.6869   27.1182 C   0  0  0  0  0  0  0  0  0  0  0  0
    8.6878   -6.6715   27.7262 N   0  0  0  0  0  0  0  0  0  0  0  0
    6.9911   -8.2423   27.1808 C   0  0  0  0  0  0  0  0  0  0  0  0
    3.8436   -7.2758   16.0578 C   0  0  0  0  0  0  0  0  0  0  0  0
    3.1882   -9.7190   17.2566 C   0  0  0  0  0  0  0  0  0  0  0  0
    5.3488   -6.1737   26.5092 C   0  0  0  0  0  0  0  0  0  0  0  0
    7.4567   -6.9464   27.2858 C   0  0  0  0  0  0  0  0  0  0  0  0
    0.1921   -5.7592   27.1123 C   0  0  0  0  0  0  0  0  0  0  0  0
    3.5517   -7.7407   25.9711 C   0  0  0  0  0  0  0  0  0  0  0  0
  1  4  4  0
  1 22  4  0
  2 20  4  0
  2 27  4  0
  3 12  4  0
  3 23  4  0
  4 25  4  0
  4 28  1  0
  5  8  4  0
  5 17  4  0
  6  7  4  0
  6 16  4  0
  7 18  4  0
  8 27  4  0
  9 13  4  0
  9 23  4  0
 10 11  1  0
 11 14  2  0
 11 27  1  0
 12 19  1  0
 12 24  4  0
 13 24  4  0
 15 18  1  0
 16 25  4  0
 16 26  4  0
 17 20  4  0
 17 28  1  0
 18 21  4  0
 21 26  4  0
 22 26  4  0
M  END
$$$$

 Created by Python create_sdf_string function

 28 30  0  0  0  0  0  0  0  0999 V2000
    5.7174   -8.4529   26.7190 C   0  0  0  0  0  0  0  0  0  0  0  0
    0.3974   -7.0711   27.5149 C   0  0  0  0  0  0  0  0  0  0  0  0
    2.5338   -7.6891   16.0102 C   0  0  0  0  0  0  0  0  0  0  0  0
    4.8690   -7.4380   26.4151 C   0  0  0  0  0  0  0  0  0  0  0  0
    2.3021   -5.6726   26.0378 C   0  0  0  0  0  0  0  0  0  0  0  0
    7.0880   -4.6163   27.0010 C   0  0  0  0  0  0  0  0  0  0  0  0
    8.3117   -4.3698   27.4436 C   0  0  0  0  0  0  0  0  0  0  0  0
    1.1339   -5.0515   26.3541 C   0  0  0  0  0  0  0  0  0  0  0  0
    4.8080   -8.0362   16.7101 C   0  0  0  0  0  0  0  0  0  0  0  0
   -1.2173   -3.9294   26.9717 O   0  0  0  0  0  0  0  0  0  0  0  0
   -1.0025   -5.0942   27.4586 C   0  0  0  0  0  0  0  0  0  0  0  0
    2.2474   -8.9123   16.6273 C   0  0  0  0  0  0  0  0  0  0  0  0
    4.4957   -9.2636   17.3041 C   0  0  0  0  0  0  0  0  0  0  0  0
   -1.8070   -5.6086   28.1920 O   0  0  0  0  0  0  0  0  0  0  0  0
   10.4296   -5.1799   28.3140 C   0  0  0  0  0  0  0  0  0  0  0  0
    6.6017   -5.9004   26.9187 C   0  0  0  0  0  0  0  0  0  0  0  0
    2.4761   -6.9940   26.4111 N   0  0  0  0  0  0  0  0  0  0  0  0
    9.1353   -5.4053   27.8239 C   0  0  0  0  0  0  0  0  0  0  0  0
    0.9922   -9.3232   16.5995 O   0  0  0  0  0  0  0  0  0  0  0  0
    1.5232   -7.6869   27.1182 C   0  0  0  0  0  0  0  0  0  0  0  0
    8.6878   -6.6715   27.7262 N   0  0  0  0  0  0  0  0  0  0  0  0
    6.9911   -8.2423   27.1808 C   0  0  0  0  0  0  0  0  0  0  0  0
    3.8436   -7.2758   16.0578 C   0  0  0  0  0  0  0  0  0  0  0  0
    3.1882   -9.7190   17.2566 C   0  0  0  0  0  0  0  0  0  0  0  0
    5.3488   -6.1737   26.5092 C   0  0  0  0  0  0  0  0  0  0  0  0
    7.4567   -6.9464   27.2858 C   0  0  0  0  0  0  0  0  0  0  0  0
    0.1921   -5.7592   27.1123 C   0  0  0  0  0  0  0  0  0  0  0  0
    3.5517   -7.7407   25.9711 C   0  0  0  0  0  0  0  0  0  0  0  0
  1  4  4  0
  1 22  4  0
  2 20  4  0
  2 27  4  0
  3 12  4  0
  3 23  4  0
  4 25  4  0
  4 28  1  0
  5  8  4  0
  5 17  4  0
  6  7  4  0
  6 16  4  0
  7 18  4  0
  8 27  4  0
  9 13  4  0
  9 23  4  0
 10 11  1  0
 11 14  2  0
 11 27  1  0
 12 19  1  0
 12 24  4  0
 13 24  4  0
 15 18  1  0
 16 25  4  0
 16 26  4  0
 17 20  4  0
 17 28  1  0
 18 21  4  0
 21 26  4  0
 22 26  4  0
M  END
$$$$

 Created by Python create_sdf_string function

 28 30  0  0  0  0  0  0  0  0999 V2000
    5.7174   -8.4529   26.7190 C   0  0  0  0  0  0  0  0  0  0  0  0
    0.3974   -7.0711   27.5149 C   0  0  0  0  0  0  0  0  0  0  0  0
    2.5338   -7.6891   16.0102 C   0  0  0  0  0  0  0  0  0  0  0  0
    4.8690   -7.4380   26.4151 C   0  0  0  0  0  0  0  0  0  0  0  0
    2.3021   -5.6726   26.0378 C   0  0  0  0  0  0  0  0  0  0  0  0
    7.0880   -4.6163   27.0010 C   0  0  0  0  0  0  0  0  0  0  0  0
    8.3117   -4.3698   27.4436 C   0  0  0  0  0  0  0  0  0  0  0  0
    1.1339   -5.0515   26.3541 C   0  0  0  0  0  0  0  0  0  0  0  0
    4.8080   -8.0362   16.7101 C   0  0  0  0  0  0  0  0  0  0  0  0
   -1.2173   -3.9294   26.9717 O   0  0  0  0  0  0  0  0  0  0  0  0
   -1.0025   -5.0942   27.4586 C   0  0  0  0  0  0  0  0  0  0  0  0
    2.2474   -8.9123   16.6273 C   0  0  0  0  0  0  0  0  0  0  0  0
    4.4957   -9.2636   17.3041 C   0  0  0  0  0  0  0  0  0  0  0  0
   -1.8070   -5.6086   28.1920 O   0  0  0  0  0  0  0  0  0  0  0  0
   10.4296   -5.1799   28.3140 C   0  0  0  0  0  0  0  0  0  0  0  0
    6.6017   -5.9004   26.9187 C   0  0  0  0  0  0  0  0  0  0  0  0
    2.4761   -6.9940   26.4111 N   0  0  0  0  0  0  0  0  0  0  0  0
    9.1353   -5.4053   27.8239 C   0  0  0  0  0  0  0  0  0  0  0  0
    0.9922   -9.3232   16.5995 O   0  0  0  0  0  0  0  0  0  0  0  0
    1.5232   -7.6869   27.1182 C   0  0  0  0  0  0  0  0  0  0  0  0
    8.6878   -6.6715   27.7262 N   0  0  0  0  0  0  0  0  0  0  0  0
    6.9911   -8.2423   27.1808 C   0  0  0  0  0  0  0  0  0  0  0  0
    3.8436   -7.2758   16.0578 C   0  0  0  0  0  0  0  0  0  0  0  0
    3.1882   -9.7190   17.2566 C   0  0  0  0  0  0  0  0  0  0  0  0
    5.3488   -6.1737   26.5092 C   0  0  0  0  0  0  0  0  0  0  0  0
    7.4567   -6.9464   27.2858 C   0  0  0  0  0  0  0  0  0  0  0  0
    0.1921   -5.7592   27.1123 C   0  0  0  0  0  0  0  0  0  0  0  0
    3.5517   -7.7407   25.9711 C   0  0  0  0  0  0  0  0  0  0  0  0
  1  4  4  0
  1 22  4  0
  2 20  4  0
  2 27  4  0
  3 12  4  0
  3 23  4  0
  4 25  4  0
  4 28  1  0
  5  8  4  0
  5 17  4  0
  6  7  4  0
  6 16  4  0
  7 18  4  0
  8 27  4  0
  9 13  4  0
  9 23  4  0
 10 11  1  0
 11 14  2  0
 11 27  1  0
 12 19  1  0
 12 24  4  0
 13 24  4  0
 15 18  1  0
 16 25  4  0
 16 26  4  0
 17 20  4  0
 17 28  1  0
 18 21  4  0
 21 26  4  0
 22 26  4  0
M  END
$$$$

 Created by Python create_sdf_string function

 28 30  0  0  0  0  0  0  0  0999 V2000
    5.7174   -8.4529   26.7190 C   0  0  0  0  0  0  0  0  0  0  0  0
    0.3974   -7.0711   27.5149 C   0  0  0  0  0  0  0  0  0  0  0  0
    2.5338   -7.6891   16.0102 C   0  0  0  0  0  0  0  0  0  0  0  0
    4.8690   -7.4380   26.4151 C   0  0  0  0  0  0  0  0  0  0  0  0
    2.3021   -5.6726   26.0378 C   0  0  0  0  0  0  0  0  0  0  0  0
    7.0880   -4.6163   27.0010 C   0  0  0  0  0  0  0  0  0  0  0  0
    8.3117   -4.3698   27.4436 C   0  0  0  0  0  0  0  0  0  0  0  0
    1.1339   -5.0515   26.3541 C   0  0  0  0  0  0  0  0  0  0  0  0
    4.8080   -8.0362   16.7101 C   0  0  0  0  0  0  0  0  0  0  0  0
   -1.2173   -3.9294   26.9717 O   0  0  0  0  0  0  0  0  0  0  0  0
   -1.0025   -5.0942   27.4586 C   0  0  0  0  0  0  0  0  0  0  0  0
    2.2474   -8.9123   16.6273 C   0  0  0  0  0  0  0  0  0  0  0  0
    4.4957   -9.2636   17.3041 C   0  0  0  0  0  0  0  0  0  0  0  0
   -1.8070   -5.6086   28.1920 O   0  0  0  0  0  0  0  0  0  0  0  0
   10.4296   -5.1799   28.3140 C   0  0  0  0  0  0  0  0  0  0  0  0
    6.6017   -5.9004   26.9187 C   0  0  0  0  0  0  0  0  0  0  0  0
    2.4761   -6.9940   26.4111 N   0  0  0  0  0  0  0  0  0  0  0  0
    9.1353   -5.4053   27.8239 C   0  0  0  0  0  0  0  0  0  0  0  0
    0.9922   -9.3232   16.5995 O   0  0  0  0  0  0  0  0  0  0  0  0
    1.5232   -7.6869   27.1182 C   0  0  0  0  0  0  0  0  0  0  0  0
    8.6878   -6.6715   27.7262 N   0  0  0  0  0  0  0  0  0  0  0  0
    6.9911   -8.2423   27.1808 C   0  0  0  0  0  0  0  0  0  0  0  0
    3.8436   -7.2758   16.0578 C   0  0  0  0  0  0  0  0  0  0  0  0
    3.1882   -9.7190   17.2566 C   0  0  0  0  0  0  0  0  0  0  0  0
    5.3488   -6.1737   26.5092 C   0  0  0  0  0  0  0  0  0  0  0  0
    7.4567   -6.9464   27.2858 C   0  0  0  0  0  0  0  0  0  0  0  0
    0.1921   -5.7592   27.1123 C   0  0  0  0  0  0  0  0  0  0  0  0
    3.5517   -7.7407   25.9711 C   0  0  0  0  0  0  0  0  0  0  0  0
  1  4  4  0
  1 22  4  0
  2 20  4  0
  2 27  4  0
  3 12  4  0
  3 23  4  0
  4 25  4  0
  4 28  1  0
  5  8  4  0
  5 17  4  0
  6  7  4  0
  6 16  4  0
  7 18  4  0
  8 27  4  0
  9 13  4  0
  9 23  4  0
 10 11  1  0
 11 14  2  0
 11 27  1  0
 12 19  1  0
 12 24  4  0
 13 24  4  0
 15 18  1  0
 16 25  4  0
 16 26  4  0
 17 20  4  0
 17 28  1  0
 18 21  4  0
 21 26  4  0
 22 26  4  0
M  END
$$$$

 Created by Python create_sdf_string function

 28 30  0  0  0  0  0  0  0  0999 V2000
    5.7174   -8.4529   26.7190 C   0  0  0  0  0  0  0  0  0  0  0  0
    0.3974   -7.0711   27.5149 C   0  0  0  0  0  0  0  0  0  0  0  0
    2.5338   -7.6891   16.0102 C   0  0  0  0  0  0  0  0  0  0  0  0
    4.8690   -7.4380   26.4151 C   0  0  0  0  0  0  0  0  0  0  0  0
    2.3021   -5.6726   26.0378 C   0  0  0  0  0  0  0  0  0  0  0  0
    7.0880   -4.6163   27.0010 C   0  0  0  0  0  0  0  0  0  0  0  0
    8.3117   -4.3698   27.4436 C   0  0  0  0  0  0  0  0  0  0  0  0
    1.1339   -5.0515   26.3541 C   0  0  0  0  0  0  0  0  0  0  0  0
    4.8080   -8.0362   16.7101 C   0  0  0  0  0  0  0  0  0  0  0  0
   -1.2173   -3.9294   26.9717 O   0  0  0  0  0  0  0  0  0  0  0  0
   -1.0025   -5.0942   27.4586 C   0  0  0  0  0  0  0  0  0  0  0  0
    2.2474   -8.9123   16.6273 C   0  0  0  0  0  0  0  0  0  0  0  0
    4.4957   -9.2636   17.3041 C   0  0  0  0  0  0  0  0  0  0  0  0
   -1.8070   -5.6086   28.1920 O   0  0  0  0  0  0  0  0  0  0  0  0
   10.4296   -5.1799   28.3140 C   0  0  0  0  0  0  0  0  0  0  0  0
    6.6017   -5.9004   26.9187 C   0  0  0  0  0  0  0  0  0  0  0  0
    2.4761   -6.9940   26.4111 N   0  0  0  0  0  0  0  0  0  0  0  0
    9.1353   -5.4053   27.8239 C   0  0  0  0  0  0  0  0  0  0  0  0
    0.9922   -9.3232   16.5995 O   0  0  0  0  0  0  0  0  0  0  0  0
    1.5232   -7.6869   27.1182 C   0  0  0  0  0  0  0  0  0  0  0  0
    8.6878   -6.6715   27.7262 N   0  0  0  0  0  0  0  0  0  0  0  0
    6.9911   -8.2423   27.1808 C   0  0  0  0  0  0  0  0  0  0  0  0
    3.8436   -7.2758   16.0578 C   0  0  0  0  0  0  0  0  0  0  0  0
    3.1882   -9.7190   17.2566 C   0  0  0  0  0  0  0  0  0  0  0  0
    5.3488   -6.1737   26.5092 C   0  0  0  0  0  0  0  0  0  0  0  0
    7.4567   -6.9464   27.2858 C   0  0  0  0  0  0  0  0  0  0  0  0
    0.1921   -5.7592   27.1123 C   0  0  0  0  0  0  0  0  0  0  0  0
    3.5517   -7.7407   25.9711 C   0  0  0  0  0  0  0  0  0  0  0  0
  1  4  4  0
  1 22  4  0
  2 20  4  0
  2 27  4  0
  3 12  4  0
  3 23  4  0
  4 25  4  0
  4 28  1  0
  5  8  4  0
  5 17  4  0
  6  7  4  0
  6 16  4  0
  7 18  4  0
  8 27  4  0
  9 13  4  0
  9 23  4  0
 10 11  1  0
 11 14  2  0
 11 27  1  0
 12 19  1  0
 12 24  4  0
 13 24  4  0
 15 18  1  0
 16 25  4  0
 16 26  4  0
 17 20  4  0
 17 28  1  0
 18 21  4  0
 21 26  4  0
 22 26  4  0
M  END
$$$$

 Created by Python create_sdf_string function

 28 30  0  0  0  0  0  0  0  0999 V2000
    5.7174   -8.4529   26.7190 C   0  0  0  0  0  0  0  0  0  0  0  0
    0.3974   -7.0711   27.5149 C   0  0  0  0  0  0  0  0  0  0  0  0
    2.5338   -7.6891   16.0102 C   0  0  0  0  0  0  0  0  0  0  0  0
    4.8690   -7.4380   26.4151 C   0  0  0  0  0  0  0  0  0  0  0  0
    2.3021   -5.6726   26.0378 C   0  0  0  0  0  0  0  0  0  0  0  0
    7.0880   -4.6163   27.0010 C   0  0  0  0  0  0  0  0  0  0  0  0
    8.3117   -4.3698   27.4436 C   0  0  0  0  0  0  0  0  0  0  0  0
    1.1339   -5.0515   26.3541 C   0  0  0  0  0  0  0  0  0  0  0  0
    4.8080   -8.0362   16.7101 C   0  0  0  0  0  0  0  0  0  0  0  0
   -1.2173   -3.9294   26.9717 O   0  0  0  0  0  0  0  0  0  0  0  0
   -1.0025   -5.0942   27.4586 C   0  0  0  0  0  0  0  0  0  0  0  0
    2.2474   -8.9123   16.6273 C   0  0  0  0  0  0  0  0  0  0  0  0
    4.4957   -9.2636   17.3041 C   0  0  0  0  0  0  0  0  0  0  0  0
   -1.8070   -5.6086   28.1920 O   0  0  0  0  0  0  0  0  0  0  0  0
   10.4296   -5.1799   28.3140 C   0  0  0  0  0  0  0  0  0  0  0  0
    6.6017   -5.9004   26.9187 C   0  0  0  0  0  0  0  0  0  0  0  0
    2.4761   -6.9940   26.4111 N   0  0  0  0  0  0  0  0  0  0  0  0
    9.1353   -5.4053   27.8239 C   0  0  0  0  0  0  0  0  0  0  0  0
    0.9922   -9.3232   16.5995 O   0  0  0  0  0  0  0  0  0  0  0  0
    1.5232   -7.6869   27.1182 C   0  0  0  0  0  0  0  0  0  0  0  0
    8.6878   -6.6715   27.7262 N   0  0  0  0  0  0  0  0  0  0  0  0
    6.9911   -8.2423   27.1808 C   0  0  0  0  0  0  0  0  0  0  0  0
    3.8436   -7.2758   16.0578 C   0  0  0  0  0  0  0  0  0  0  0  0
    3.1882   -9.7190   17.2566 C   0  0  0  0  0  0  0  0  0  0  0  0
    5.3488   -6.1737   26.5092 C   0  0  0  0  0  0  0  0  0  0  0  0
    7.4567   -6.9464   27.2858 C   0  0  0  0  0  0  0  0  0  0  0  0
    0.1921   -5.7592   27.1123 C   0  0  0  0  0  0  0  0  0  0  0  0
    3.5517   -7.7407   25.9711 C   0  0  0  0  0  0  0  0  0  0  0  0
  1  4  4  0
  1 22  4  0
  2 20  4  0
  2 27  4  0
  3 12  4  0
  3 23  4  0
  4 25  4  0
  4 28  1  0
  5  8  4  0
  5 17  4  0
  6  7  4  0
  6 16  4  0
  7 18  4  0
  8 27  4  0
  9 13  4  0
  9 23  4  0
 10 11  1  0
 11 14  2  0
 11 27  1  0
 12 19  1  0
 12 24  4  0
 13 24  4  0
 15 18  1  0
 16 25  4  0
 16 26  4  0
 17 20  4  0
 17 28  1  0
 18 21  4  0
 21 26  4  0
 22 26  4  0
M  END
$$$$

 Created by Python create_sdf_string function

 28 30  0  0  0  0  0  0  0  0999 V2000
    5.7174   -8.4529   26.7190 C   0  0  0  0  0  0  0  0  0  0  0  0
    0.3974   -7.0711   27.5149 C   0  0  0  0  0  0  0  0  0  0  0  0
    2.5338   -7.6891   16.0102 C   0  0  0  0  0  0  0  0  0  0  0  0
    4.8690   -7.4380   26.4151 C   0  0  0  0  0  0  0  0  0  0  0  0
    2.3021   -5.6726   26.0378 C   0  0  0  0  0  0  0  0  0  0  0  0
    7.0880   -4.6163   27.0010 C   0  0  0  0  0  0  0  0  0  0  0  0
    8.3117   -4.3698   27.4436 C   0  0  0  0  0  0  0  0  0  0  0  0
    1.1339   -5.0515   26.3541 C   0  0  0  0  0  0  0  0  0  0  0  0
    4.8080   -8.0362   16.7101 C   0  0  0  0  0  0  0  0  0  0  0  0
   -1.2173   -3.9294   26.9717 O   0  0  0  0  0  0  0  0  0  0  0  0
   -1.0025   -5.0942   27.4586 C   0  0  0  0  0  0  0  0  0  0  0  0
    2.2474   -8.9123   16.6273 C   0  0  0  0  0  0  0  0  0  0  0  0
    4.4957   -9.2636   17.3041 C   0  0  0  0  0  0  0  0  0  0  0  0
   -1.8070   -5.6086   28.1920 O   0  0  0  0  0  0  0  0  0  0  0  0
   10.4296   -5.1799   28.3140 C   0  0  0  0  0  0  0  0  0  0  0  0
    6.6017   -5.9004   26.9187 C   0  0  0  0  0  0  0  0  0  0  0  0
    2.4761   -6.9940   26.4111 N   0  0  0  0  0  0  0  0  0  0  0  0
    9.1353   -5.4053   27.8239 C   0  0  0  0  0  0  0  0  0  0  0  0
    0.9922   -9.3232   16.5995 O   0  0  0  0  0  0  0  0  0  0  0  0
    1.5232   -7.6869   27.1182 C   0  0  0  0  0  0  0  0  0  0  0  0
    8.6878   -6.6715   27.7262 N   0  0  0  0  0  0  0  0  0  0  0  0
    6.9911   -8.2423   27.1808 C   0  0  0  0  0  0  0  0  0  0  0  0
    3.8436   -7.2758   16.0578 C   0  0  0  0  0  0  0  0  0  0  0  0
    3.1882   -9.7190   17.2566 C   0  0  0  0  0  0  0  0  0  0  0  0
    5.3488   -6.1737   26.5092 C   0  0  0  0  0  0  0  0  0  0  0  0
    7.4567   -6.9464   27.2858 C   0  0  0  0  0  0  0  0  0  0  0  0
    0.1921   -5.7592   27.1123 C   0  0  0  0  0  0  0  0  0  0  0  0
    3.5517   -7.7407   25.9711 C   0  0  0  0  0  0  0  0  0  0  0  0
  1  4  4  0
  1 22  4  0
  2 20  4  0
  2 27  4  0
  3 12  4  0
  3 23  4  0
  4 25  4  0
  4 28  1  0
  5  8  4  0
  5 17  4  0
  6  7  4  0
  6 16  4  0
  7 18  4  0
  8 27  4  0
  9 13  4  0
  9 23  4  0
 10 11  1  0
 11 14  2  0
 11 27  1  0
 12 19  1  0
 12 24  4  0
 13 24  4  0
 15 18  1  0
 16 25  4  0
 16 26  4  0
 17 20  4  0
 17 28  1  0
 18 21  4  0
 21 26  4  0
 22 26  4  0
M  END
$$$$

 Created by Python create_sdf_string function

 28 30  0  0  0  0  0  0  0  0999 V2000
    5.7174   -8.4529   26.7190 C   0  0  0  0  0  0  0  0  0  0  0  0
    0.3974   -7.0711   27.5149 C   0  0  0  0  0  0  0  0  0  0  0  0
    2.5338   -7.6891   16.0102 C   0  0  0  0  0  0  0  0  0  0  0  0
    4.8690   -7.4380   26.4151 C   0  0  0  0  0  0  0  0  0  0  0  0
    2.3021   -5.6726   26.0378 C   0  0  0  0  0  0  0  0  0  0  0  0
    7.0880   -4.6163   27.0010 C   0  0  0  0  0  0  0  0  0  0  0  0
    8.3117   -4.3698   27.4436 C   0  0  0  0  0  0  0  0  0  0  0  0
    1.1339   -5.0515   26.3541 C   0  0  0  0  0  0  0  0  0  0  0  0
    4.8080   -8.0362   16.7101 C   0  0  0  0  0  0  0  0  0  0  0  0
   -1.2173   -3.9294   26.9717 O   0  0  0  0  0  0  0  0  0  0  0  0
   -1.0025   -5.0942   27.4586 C   0  0  0  0  0  0  0  0  0  0  0  0
    2.2474   -8.9123   16.6273 C   0  0  0  0  0  0  0  0  0  0  0  0
    4.4957   -9.2636   17.3041 C   0  0  0  0  0  0  0  0  0  0  0  0
   -1.8070   -5.6086   28.1920 O   0  0  0  0  0  0  0  0  0  0  0  0
   10.4296   -5.1799   28.3140 C   0  0  0  0  0  0  0  0  0  0  0  0
    6.6017   -5.9004   26.9187 C   0  0  0  0  0  0  0  0  0  0  0  0
    2.4761   -6.9940   26.4111 N   0  0  0  0  0  0  0  0  0  0  0  0
    9.1353   -5.4053   27.8239 C   0  0  0  0  0  0  0  0  0  0  0  0
    0.9922   -9.3232   16.5995 O   0  0  0  0  0  0  0  0  0  0  0  0
    1.5232   -7.6869   27.1182 C   0  0  0  0  0  0  0  0  0  0  0  0
    8.6878   -6.6715   27.7262 N   0  0  0  0  0  0  0  0  0  0  0  0
    6.9911   -8.2423   27.1808 C   0  0  0  0  0  0  0  0  0  0  0  0
    3.8436   -7.2758   16.0578 C   0  0  0  0  0  0  0  0  0  0  0  0
    3.1882   -9.7190   17.2566 C   0  0  0  0  0  0  0  0  0  0  0  0
    5.3488   -6.1737   26.5092 C   0  0  0  0  0  0  0  0  0  0  0  0
    7.4567   -6.9464   27.2858 C   0  0  0  0  0  0  0  0  0  0  0  0
    0.1921   -5.7592   27.1123 C   0  0  0  0  0  0  0  0  0  0  0  0
    3.5517   -7.7407   25.9711 C   0  0  0  0  0  0  0  0  0  0  0  0
  1  4  4  0
  1 22  4  0
  2 20  4  0
  2 27  4  0
  3 12  4  0
  3 23  4  0
  4 25  4  0
  4 28  1  0
  5  8  4  0
  5 17  4  0
  6  7  4  0
  6 16  4  0
  7 18  4  0
  8 27  4  0
  9 13  4  0
  9 23  4  0
 10 11  1  0
 11 14  2  0
 11 27  1  0
 12 19  1  0
 12 24  4  0
 13 24  4  0
 15 18  1  0
 16 25  4  0
 16 26  4  0
 17 20  4  0
 17 28  1  0
 18 21  4  0
 21 26  4  0
 22 26  4  0
M  END
$$$$

 Created by Python create_sdf_string function

 28 30  0  0  0  0  0  0  0  0999 V2000
    5.7174   -8.4529   26.7190 C   0  0  0  0  0  0  0  0  0  0  0  0
    0.3974   -7.0711   27.5149 C   0  0  0  0  0  0  0  0  0  0  0  0
    2.5338   -7.6891   16.0102 C   0  0  0  0  0  0  0  0  0  0  0  0
    4.8690   -7.4380   26.4151 C   0  0  0  0  0  0  0  0  0  0  0  0
    2.3021   -5.6726   26.0378 C   0  0  0  0  0  0  0  0  0  0  0  0
    7.0880   -4.6163   27.0010 C   0  0  0  0  0  0  0  0  0  0  0  0
    8.3117   -4.3698   27.4436 C   0  0  0  0  0  0  0  0  0  0  0  0
    1.1339   -5.0515   26.3541 C   0  0  0  0  0  0  0  0  0  0  0  0
    4.8080   -8.0362   16.7101 C   0  0  0  0  0  0  0  0  0  0  0  0
   -1.2173   -3.9294   26.9717 O   0  0  0  0  0  0  0  0  0  0  0  0
   -1.0025   -5.0942   27.4586 C   0  0  0  0  0  0  0  0  0  0  0  0
    2.2474   -8.9123   16.6273 C   0  0  0  0  0  0  0  0  0  0  0  0
    4.4957   -9.2636   17.3041 C   0  0  0  0  0  0  0  0  0  0  0  0
   -1.8070   -5.6086   28.1920 O   0  0  0  0  0  0  0  0  0  0  0  0
   10.4296   -5.1799   28.3140 C   0  0  0  0  0  0  0  0  0  0  0  0
    6.6017   -5.9004   26.9187 C   0  0  0  0  0  0  0  0  0  0  0  0
    2.4761   -6.9940   26.4111 N   0  0  0  0  0  0  0  0  0  0  0  0
    9.1353   -5.4053   27.8239 C   0  0  0  0  0  0  0  0  0  0  0  0
    0.9922   -9.3232   16.5995 O   0  0  0  0  0  0  0  0  0  0  0  0
    1.5232   -7.6869   27.1182 C   0  0  0  0  0  0  0  0  0  0  0  0
    8.6878   -6.6715   27.7262 N   0  0  0  0  0  0  0  0  0  0  0  0
    6.9911   -8.2423   27.1808 C   0  0  0  0  0  0  0  0  0  0  0  0
    3.8436   -7.2758   16.0578 C   0  0  0  0  0  0  0  0  0  0  0  0
    3.1882   -9.7190   17.2566 C   0  0  0  0  0  0  0  0  0  0  0  0
    5.3488   -6.1737   26.5092 C   0  0  0  0  0  0  0  0  0  0  0  0
    7.4567   -6.9464   27.2858 C   0  0  0  0  0  0  0  0  0  0  0  0
    0.1921   -5.7592   27.1123 C   0  0  0  0  0  0  0  0  0  0  0  0
    3.5517   -7.7407   25.9711 C   0  0  0  0  0  0  0  0  0  0  0  0
  1  4  4  0
  1 22  4  0
  2 20  4  0
  2 27  4  0
  3 12  4  0
  3 23  4  0
  4 25  4  0
  4 28  1  0
  5  8  4  0
  5 17  4  0
  6  7  4  0
  6 16  4  0
  7 18  4  0
  8 27  4  0
  9 13  4  0
  9 23  4  0
 10 11  1  0
 11 14  2  0
 11 27  1  0
 12 19  1  0
 12 24  4  0
 13 24  4  0
 15 18  1  0
 16 25  4  0
 16 26  4  0
 17 20  4  0
 17 28  1  0
 18 21  4  0
 21 26  4  0
 22 26  4  0
M  END
$$$$

 Created by Python create_sdf_string function

 28 30  0  0  0  0  0  0  0  0999 V2000
    5.7174   -8.4529   26.7190 C   0  0  0  0  0  0  0  0  0  0  0  0
    0.3974   -7.0711   27.5149 C   0  0  0  0  0  0  0  0  0  0  0  0
    2.5338   -7.6891   16.0102 C   0  0  0  0  0  0  0  0  0  0  0  0
    4.8690   -7.4380   26.4151 C   0  0  0  0  0  0  0  0  0  0  0  0
    2.3021   -5.6726   26.0378 C   0  0  0  0  0  0  0  0  0  0  0  0
    7.0880   -4.6163   27.0010 C   0  0  0  0  0  0  0  0  0  0  0  0
    8.3117   -4.3698   27.4436 C   0  0  0  0  0  0  0  0  0  0  0  0
    1.1339   -5.0515   26.3541 C   0  0  0  0  0  0  0  0  0  0  0  0
    4.8080   -8.0362   16.7101 C   0  0  0  0  0  0  0  0  0  0  0  0
   -1.2173   -3.9294   26.9717 O   0  0  0  0  0  0  0  0  0  0  0  0
   -1.0025   -5.0942   27.4586 C   0  0  0  0  0  0  0  0  0  0  0  0
    2.2474   -8.9123   16.6273 C   0  0  0  0  0  0  0  0  0  0  0  0
    4.4957   -9.2636   17.3041 C   0  0  0  0  0  0  0  0  0  0  0  0
   -1.8070   -5.6086   28.1920 O   0  0  0  0  0  0  0  0  0  0  0  0
   10.4296   -5.1799   28.3140 C   0  0  0  0  0  0  0  0  0  0  0  0
    6.6017   -5.9004   26.9187 C   0  0  0  0  0  0  0  0  0  0  0  0
    2.4761   -6.9940   26.4111 N   0  0  0  0  0  0  0  0  0  0  0  0
    9.1353   -5.4053   27.8239 C   0  0  0  0  0  0  0  0  0  0  0  0
    0.9922   -9.3232   16.5995 O   0  0  0  0  0  0  0  0  0  0  0  0
    1.5232   -7.6869   27.1182 C   0  0  0  0  0  0  0  0  0  0  0  0
    8.6878   -6.6715   27.7262 N   0  0  0  0  0  0  0  0  0  0  0  0
    6.9911   -8.2423   27.1808 C   0  0  0  0  0  0  0  0  0  0  0  0
    3.8436   -7.2758   16.0578 C   0  0  0  0  0  0  0  0  0  0  0  0
    3.1882   -9.7190   17.2566 C   0  0  0  0  0  0  0  0  0  0  0  0
    5.3488   -6.1737   26.5092 C   0  0  0  0  0  0  0  0  0  0  0  0
    7.4567   -6.9464   27.2858 C   0  0  0  0  0  0  0  0  0  0  0  0
    0.1921   -5.7592   27.1123 C   0  0  0  0  0  0  0  0  0  0  0  0
    3.5517   -7.7407   25.9711 C   0  0  0  0  0  0  0  0  0  0  0  0
  1  4  4  0
  1 22  4  0
  2 20  4  0
  2 27  4  0
  3 12  4  0
  3 23  4  0
  4 25  4  0
  4 28  1  0
  5  8  4  0
  5 17  4  0
  6  7  4  0
  6 16  4  0
  7 18  4  0
  8 27  4  0
  9 13  4  0
  9 23  4  0
 10 11  1  0
 11 14  2  0
 11 27  1  0
 12 19  1  0
 12 24  4  0
 13 24  4  0
 15 18  1  0
 16 25  4  0
 16 26  4  0
 17 20  4  0
 17 28  1  0
 18 21  4  0
 21 26  4  0
 22 26  4  0
M  END
$$$$

 Created by Python create_sdf_string function

 28 30  0  0  0  0  0  0  0  0999 V2000
    5.7174   -8.4529   26.7190 C   0  0  0  0  0  0  0  0  0  0  0  0
    0.3974   -7.0711   27.5149 C   0  0  0  0  0  0  0  0  0  0  0  0
    2.5338   -7.6891   16.0102 C   0  0  0  0  0  0  0  0  0  0  0  0
    4.8690   -7.4380   26.4151 C   0  0  0  0  0  0  0  0  0  0  0  0
    2.3021   -5.6726   26.0378 C   0  0  0  0  0  0  0  0  0  0  0  0
    7.0880   -4.6163   27.0010 C   0  0  0  0  0  0  0  0  0  0  0  0
    8.3117   -4.3698   27.4436 C   0  0  0  0  0  0  0  0  0  0  0  0
    1.1339   -5.0515   26.3541 C   0  0  0  0  0  0  0  0  0  0  0  0
    4.8080   -8.0362   16.7101 C   0  0  0  0  0  0  0  0  0  0  0  0
   -1.2173   -3.9294   26.9717 O   0  0  0  0  0  0  0  0  0  0  0  0
   -1.0025   -5.0942   27.4586 C   0  0  0  0  0  0  0  0  0  0  0  0
    2.2474   -8.9123   16.6273 C   0  0  0  0  0  0  0  0  0  0  0  0
    4.4957   -9.2636   17.3041 C   0  0  0  0  0  0  0  0  0  0  0  0
   -1.8070   -5.6086   28.1920 O   0  0  0  0  0  0  0  0  0  0  0  0
   10.4296   -5.1799   28.3140 C   0  0  0  0  0  0  0  0  0  0  0  0
    6.6017   -5.9004   26.9187 C   0  0  0  0  0  0  0  0  0  0  0  0
    2.4761   -6.9940   26.4111 N   0  0  0  0  0  0  0  0  0  0  0  0
    9.1353   -5.4053   27.8239 C   0  0  0  0  0  0  0  0  0  0  0  0
    0.9922   -9.3232   16.5995 O   0  0  0  0  0  0  0  0  0  0  0  0
    1.5232   -7.6869   27.1182 C   0  0  0  0  0  0  0  0  0  0  0  0
    8.6878   -6.6715   27.7262 N   0  0  0  0  0  0  0  0  0  0  0  0
    6.9911   -8.2423   27.1808 C   0  0  0  0  0  0  0  0  0  0  0  0
    3.8436   -7.2758   16.0578 C   0  0  0  0  0  0  0  0  0  0  0  0
    3.1882   -9.7190   17.2566 C   0  0  0  0  0  0  0  0  0  0  0  0
    5.3488   -6.1737   26.5092 C   0  0  0  0  0  0  0  0  0  0  0  0
    7.4567   -6.9464   27.2858 C   0  0  0  0  0  0  0  0  0  0  0  0
    0.1921   -5.7592   27.1123 C   0  0  0  0  0  0  0  0  0  0  0  0
    3.5517   -7.7407   25.9711 C   0  0  0  0  0  0  0  0  0  0  0  0
  1  4  4  0
  1 22  4  0
  2 20  4  0
  2 27  4  0
  3 12  4  0
  3 23  4  0
  4 25  4  0
  4 28  1  0
  5  8  4  0
  5 17  4  0
  6  7  4  0
  6 16  4  0
  7 18  4  0
  8 27  4  0
  9 13  4  0
  9 23  4  0
 10 11  1  0
 11 14  2  0
 11 27  1  0
 12 19  1  0
 12 24  4  0
 13 24  4  0
 15 18  1  0
 16 25  4  0
 16 26  4  0
 17 20  4  0
 17 28  1  0
 18 21  4  0
 21 26  4  0
 22 26  4  0
M  END
$$$$

 Created by Python create_sdf_string function

 28 30  0  0  0  0  0  0  0  0999 V2000
    5.7174   -8.4529   26.7190 C   0  0  0  0  0  0  0  0  0  0  0  0
    0.3974   -7.0711   27.5149 C   0  0  0  0  0  0  0  0  0  0  0  0
    2.5338   -7.6891   16.0102 C   0  0  0  0  0  0  0  0  0  0  0  0
    4.8690   -7.4380   26.4151 C   0  0  0  0  0  0  0  0  0  0  0  0
    2.3021   -5.6726   26.0378 C   0  0  0  0  0  0  0  0  0  0  0  0
    7.0880   -4.6163   27.0010 C   0  0  0  0  0  0  0  0  0  0  0  0
    8.3117   -4.3698   27.4436 C   0  0  0  0  0  0  0  0  0  0  0  0
    1.1339   -5.0515   26.3541 C   0  0  0  0  0  0  0  0  0  0  0  0
    4.8080   -8.0362   16.7101 C   0  0  0  0  0  0  0  0  0  0  0  0
   -1.2173   -3.9294   26.9717 O   0  0  0  0  0  0  0  0  0  0  0  0
   -1.0025   -5.0942   27.4586 C   0  0  0  0  0  0  0  0  0  0  0  0
    2.2474   -8.9123   16.6273 C   0  0  0  0  0  0  0  0  0  0  0  0
    4.4957   -9.2636   17.3041 C   0  0  0  0  0  0  0  0  0  0  0  0
   -1.8070   -5.6086   28.1920 O   0  0  0  0  0  0  0  0  0  0  0  0
   10.4296   -5.1799   28.3140 C   0  0  0  0  0  0  0  0  0  0  0  0
    6.6017   -5.9004   26.9187 C   0  0  0  0  0  0  0  0  0  0  0  0
    2.4761   -6.9940   26.4111 N   0  0  0  0  0  0  0  0  0  0  0  0
    9.1353   -5.4053   27.8239 C   0  0  0  0  0  0  0  0  0  0  0  0
    0.9922   -9.3232   16.5995 O   0  0  0  0  0  0  0  0  0  0  0  0
    1.5232   -7.6869   27.1182 C   0  0  0  0  0  0  0  0  0  0  0  0
    8.6878   -6.6715   27.7262 N   0  0  0  0  0  0  0  0  0  0  0  0
    6.9911   -8.2423   27.1808 C   0  0  0  0  0  0  0  0  0  0  0  0
    3.8436   -7.2758   16.0578 C   0  0  0  0  0  0  0  0  0  0  0  0
    3.1882   -9.7190   17.2566 C   0  0  0  0  0  0  0  0  0  0  0  0
    5.3488   -6.1737   26.5092 C   0  0  0  0  0  0  0  0  0  0  0  0
    7.4567   -6.9464   27.2858 C   0  0  0  0  0  0  0  0  0  0  0  0
    0.1921   -5.7592   27.1123 C   0  0  0  0  0  0  0  0  0  0  0  0
    3.5517   -7.7407   25.9711 C   0  0  0  0  0  0  0  0  0  0  0  0
  1  4  4  0
  1 22  4  0
  2 20  4  0
  2 27  4  0
  3 12  4  0
  3 23  4  0
  4 25  4  0
  4 28  1  0
  5  8  4  0
  5 17  4  0
  6  7  4  0
  6 16  4  0
  7 18  4  0
  8 27  4  0
  9 13  4  0
  9 23  4  0
 10 11  1  0
 11 14  2  0
 11 27  1  0
 12 19  1  0
 12 24  4  0
 13 24  4  0
 15 18  1  0
 16 25  4  0
 16 26  4  0
 17 20  4  0
 17 28  1  0
 18 21  4  0
 21 26  4  0
 22 26  4  0
M  END
$$$$

 Created by Python create_sdf_string function

 28 30  0  0  0  0  0  0  0  0999 V2000
    5.7174   -8.4529   26.7190 C   0  0  0  0  0  0  0  0  0  0  0  0
    0.3974   -7.0711   27.5149 C   0  0  0  0  0  0  0  0  0  0  0  0
    2.5338   -7.6891   16.0102 C   0  0  0  0  0  0  0  0  0  0  0  0
    4.8690   -7.4380   26.4151 C   0  0  0  0  0  0  0  0  0  0  0  0
    2.3021   -5.6726   26.0378 C   0  0  0  0  0  0  0  0  0  0  0  0
    7.0880   -4.6163   27.0010 C   0  0  0  0  0  0  0  0  0  0  0  0
    8.3117   -4.3698   27.4436 C   0  0  0  0  0  0  0  0  0  0  0  0
    1.1339   -5.0515   26.3541 C   0  0  0  0  0  0  0  0  0  0  0  0
    4.8080   -8.0362   16.7101 C   0  0  0  0  0  0  0  0  0  0  0  0
   -1.2173   -3.9294   26.9717 O   0  0  0  0  0  0  0  0  0  0  0  0
   -1.0025   -5.0942   27.4586 C   0  0  0  0  0  0  0  0  0  0  0  0
    2.2474   -8.9123   16.6273 C   0  0  0  0  0  0  0  0  0  0  0  0
    4.4957   -9.2636   17.3041 C   0  0  0  0  0  0  0  0  0  0  0  0
   -1.8070   -5.6086   28.1920 O   0  0  0  0  0  0  0  0  0  0  0  0
   10.4296   -5.1799   28.3140 C   0  0  0  0  0  0  0  0  0  0  0  0
    6.6017   -5.9004   26.9187 C   0  0  0  0  0  0  0  0  0  0  0  0
    2.4761   -6.9940   26.4111 N   0  0  0  0  0  0  0  0  0  0  0  0
    9.1353   -5.4053   27.8239 C   0  0  0  0  0  0  0  0  0  0  0  0
    0.9922   -9.3232   16.5995 O   0  0  0  0  0  0  0  0  0  0  0  0
    1.5232   -7.6869   27.1182 C   0  0  0  0  0  0  0  0  0  0  0  0
    8.6878   -6.6715   27.7262 N   0  0  0  0  0  0  0  0  0  0  0  0
    6.9911   -8.2423   27.1808 C   0  0  0  0  0  0  0  0  0  0  0  0
    3.8436   -7.2758   16.0578 C   0  0  0  0  0  0  0  0  0  0  0  0
    3.1882   -9.7190   17.2566 C   0  0  0  0  0  0  0  0  0  0  0  0
    5.3488   -6.1737   26.5092 C   0  0  0  0  0  0  0  0  0  0  0  0
    7.4567   -6.9464   27.2858 C   0  0  0  0  0  0  0  0  0  0  0  0
    0.1921   -5.7592   27.1123 C   0  0  0  0  0  0  0  0  0  0  0  0
    3.5517   -7.7407   25.9711 C   0  0  0  0  0  0  0  0  0  0  0  0
  1  4  4  0
  1 22  4  0
  2 20  4  0
  2 27  4  0
  3 12  4  0
  3 23  4  0
  4 25  4  0
  4 28  1  0
  5  8  4  0
  5 17  4  0
  6  7  4  0
  6 16  4  0
  7 18  4  0
  8 27  4  0
  9 13  4  0
  9 23  4  0
 10 11  1  0
 11 14  2  0
 11 27  1  0
 12 19  1  0
 12 24  4  0
 13 24  4  0
 15 18  1  0
 16 25  4  0
 16 26  4  0
 17 20  4  0
 17 28  1  0
 18 21  4  0
 21 26  4  0
 22 26  4  0
M  END
$$$$

 Created by Python create_sdf_string function

 28 30  0  0  0  0  0  0  0  0999 V2000
    5.7174   -8.4529   26.7190 C   0  0  0  0  0  0  0  0  0  0  0  0
    0.3974   -7.0711   27.5149 C   0  0  0  0  0  0  0  0  0  0  0  0
    2.5338   -7.6891   16.0102 C   0  0  0  0  0  0  0  0  0  0  0  0
    4.8690   -7.4380   26.4151 C   0  0  0  0  0  0  0  0  0  0  0  0
    2.3021   -5.6726   26.0378 C   0  0  0  0  0  0  0  0  0  0  0  0
    7.0880   -4.6163   27.0010 C   0  0  0  0  0  0  0  0  0  0  0  0
    8.3117   -4.3698   27.4436 C   0  0  0  0  0  0  0  0  0  0  0  0
    1.1339   -5.0515   26.3541 C   0  0  0  0  0  0  0  0  0  0  0  0
    4.8080   -8.0362   16.7101 C   0  0  0  0  0  0  0  0  0  0  0  0
   -1.2173   -3.9294   26.9717 O   0  0  0  0  0  0  0  0  0  0  0  0
   -1.0025   -5.0942   27.4586 C   0  0  0  0  0  0  0  0  0  0  0  0
    2.2474   -8.9123   16.6273 C   0  0  0  0  0  0  0  0  0  0  0  0
    4.4957   -9.2636   17.3041 C   0  0  0  0  0  0  0  0  0  0  0  0
   -1.8070   -5.6086   28.1920 O   0  0  0  0  0  0  0  0  0  0  0  0
   10.4296   -5.1799   28.3140 C   0  0  0  0  0  0  0  0  0  0  0  0
    6.6017   -5.9004   26.9187 C   0  0  0  0  0  0  0  0  0  0  0  0
    2.4761   -6.9940   26.4111 N   0  0  0  0  0  0  0  0  0  0  0  0
    9.1353   -5.4053   27.8239 C   0  0  0  0  0  0  0  0  0  0  0  0
    0.9922   -9.3232   16.5995 O   0  0  0  0  0  0  0  0  0  0  0  0
    1.5232   -7.6869   27.1182 C   0  0  0  0  0  0  0  0  0  0  0  0
    8.6878   -6.6715   27.7262 N   0  0  0  0  0  0  0  0  0  0  0  0
    6.9911   -8.2423   27.1808 C   0  0  0  0  0  0  0  0  0  0  0  0
    3.8436   -7.2758   16.0578 C   0  0  0  0  0  0  0  0  0  0  0  0
    3.1882   -9.7190   17.2566 C   0  0  0  0  0  0  0  0  0  0  0  0
    5.3488   -6.1737   26.5092 C   0  0  0  0  0  0  0  0  0  0  0  0
    7.4567   -6.9464   27.2858 C   0  0  0  0  0  0  0  0  0  0  0  0
    0.1921   -5.7592   27.1123 C   0  0  0  0  0  0  0  0  0  0  0  0
    3.5517   -7.7407   25.9711 C   0  0  0  0  0  0  0  0  0  0  0  0
  1  4  4  0
  1 22  4  0
  2 20  4  0
  2 27  4  0
  3 12  4  0
  3 23  4  0
  4 25  4  0
  4 28  1  0
  5  8  4  0
  5 17  4  0
  6  7  4  0
  6 16  4  0
  7 18  4  0
  8 27  4  0
  9 13  4  0
  9 23  4  0
 10 11  1  0
 11 14  2  0
 11 27  1  0
 12 19  1  0
 12 24  4  0
 13 24  4  0
 15 18  1  0
 16 25  4  0
 16 26  4  0
 17 20  4  0
 17 28  1  0
 18 21  4  0
 21 26  4  0
 22 26  4  0
M  END
$$$$

 Created by Python create_sdf_string function

 28 30  0  0  0  0  0  0  0  0999 V2000
    5.7174   -8.4529   26.7190 C   0  0  0  0  0  0  0  0  0  0  0  0
    0.3974   -7.0711   27.5149 C   0  0  0  0  0  0  0  0  0  0  0  0
    2.5338   -7.6891   16.0102 C   0  0  0  0  0  0  0  0  0  0  0  0
    4.8690   -7.4380   26.4151 C   0  0  0  0  0  0  0  0  0  0  0  0
    2.3021   -5.6726   26.0378 C   0  0  0  0  0  0  0  0  0  0  0  0
    7.0880   -4.6163   27.0010 C   0  0  0  0  0  0  0  0  0  0  0  0
    8.3117   -4.3698   27.4436 C   0  0  0  0  0  0  0  0  0  0  0  0
    1.1339   -5.0515   26.3541 C   0  0  0  0  0  0  0  0  0  0  0  0
    4.8080   -8.0362   16.7101 C   0  0  0  0  0  0  0  0  0  0  0  0
   -1.2173   -3.9294   26.9717 O   0  0  0  0  0  0  0  0  0  0  0  0
   -1.0025   -5.0942   27.4586 C   0  0  0  0  0  0  0  0  0  0  0  0
    2.2474   -8.9123   16.6273 C   0  0  0  0  0  0  0  0  0  0  0  0
    4.4957   -9.2636   17.3041 C   0  0  0  0  0  0  0  0  0  0  0  0
   -1.8070   -5.6086   28.1920 O   0  0  0  0  0  0  0  0  0  0  0  0
   10.4296   -5.1799   28.3140 C   0  0  0  0  0  0  0  0  0  0  0  0
    6.6017   -5.9004   26.9187 C   0  0  0  0  0  0  0  0  0  0  0  0
    2.4761   -6.9940   26.4111 N   0  0  0  0  0  0  0  0  0  0  0  0
    9.1353   -5.4053   27.8239 C   0  0  0  0  0  0  0  0  0  0  0  0
    0.9922   -9.3232   16.5995 O   0  0  0  0  0  0  0  0  0  0  0  0
    1.5232   -7.6869   27.1182 C   0  0  0  0  0  0  0  0  0  0  0  0
    8.6878   -6.6715   27.7262 N   0  0  0  0  0  0  0  0  0  0  0  0
    6.9911   -8.2423   27.1808 C   0  0  0  0  0  0  0  0  0  0  0  0
    3.8436   -7.2758   16.0578 C   0  0  0  0  0  0  0  0  0  0  0  0
    3.1882   -9.7190   17.2566 C   0  0  0  0  0  0  0  0  0  0  0  0
    5.3488   -6.1737   26.5092 C   0  0  0  0  0  0  0  0  0  0  0  0
    7.4567   -6.9464   27.2858 C   0  0  0  0  0  0  0  0  0  0  0  0
    0.1921   -5.7592   27.1123 C   0  0  0  0  0  0  0  0  0  0  0  0
    3.5517   -7.7407   25.9711 C   0  0  0  0  0  0  0  0  0  0  0  0
  1  4  4  0
  1 22  4  0
  2 20  4  0
  2 27  4  0
  3 12  4  0
  3 23  4  0
  4 25  4  0
  4 28  1  0
  5  8  4  0
  5 17  4  0
  6  7  4  0
  6 16  4  0
  7 18  4  0
  8 27  4  0
  9 13  4  0
  9 23  4  0
 10 11  1  0
 11 14  2  0
 11 27  1  0
 12 19  1  0
 12 24  4  0
 13 24  4  0
 15 18  1  0
 16 25  4  0
 16 26  4  0
 17 20  4  0
 17 28  1  0
 18 21  4  0
 21 26  4  0
 22 26  4  0
M  END
$$$$

 Created by Python create_sdf_string function

 28 30  0  0  0  0  0  0  0  0999 V2000
    5.7174   -8.4529   26.7190 C   0  0  0  0  0  0  0  0  0  0  0  0
    0.3974   -7.0711   27.5149 C   0  0  0  0  0  0  0  0  0  0  0  0
    2.5338   -7.6891   16.0102 C   0  0  0  0  0  0  0  0  0  0  0  0
    4.8690   -7.4380   26.4151 C   0  0  0  0  0  0  0  0  0  0  0  0
    2.3021   -5.6726   26.0378 C   0  0  0  0  0  0  0  0  0  0  0  0
    7.0880   -4.6163   27.0010 C   0  0  0  0  0  0  0  0  0  0  0  0
    8.3117   -4.3698   27.4436 C   0  0  0  0  0  0  0  0  0  0  0  0
    1.1339   -5.0515   26.3541 C   0  0  0  0  0  0  0  0  0  0  0  0
    4.8080   -8.0362   16.7101 C   0  0  0  0  0  0  0  0  0  0  0  0
   -1.2173   -3.9294   26.9717 O   0  0  0  0  0  0  0  0  0  0  0  0
   -1.0025   -5.0942   27.4586 C   0  0  0  0  0  0  0  0  0  0  0  0
    2.2474   -8.9123   16.6273 C   0  0  0  0  0  0  0  0  0  0  0  0
    4.4957   -9.2636   17.3041 C   0  0  0  0  0  0  0  0  0  0  0  0
   -1.8070   -5.6086   28.1920 O   0  0  0  0  0  0  0  0  0  0  0  0
   10.4296   -5.1799   28.3140 C   0  0  0  0  0  0  0  0  0  0  0  0
    6.6017   -5.9004   26.9187 C   0  0  0  0  0  0  0  0  0  0  0  0
    2.4761   -6.9940   26.4111 N   0  0  0  0  0  0  0  0  0  0  0  0
    9.1353   -5.4053   27.8239 C   0  0  0  0  0  0  0  0  0  0  0  0
    0.9922   -9.3232   16.5995 O   0  0  0  0  0  0  0  0  0  0  0  0
    1.5232   -7.6869   27.1182 C   0  0  0  0  0  0  0  0  0  0  0  0
    8.6878   -6.6715   27.7262 N   0  0  0  0  0  0  0  0  0  0  0  0
    6.9911   -8.2423   27.1808 C   0  0  0  0  0  0  0  0  0  0  0  0
    3.8436   -7.2758   16.0578 C   0  0  0  0  0  0  0  0  0  0  0  0
    3.1882   -9.7190   17.2566 C   0  0  0  0  0  0  0  0  0  0  0  0
    5.3488   -6.1737   26.5092 C   0  0  0  0  0  0  0  0  0  0  0  0
    7.4567   -6.9464   27.2858 C   0  0  0  0  0  0  0  0  0  0  0  0
    0.1921   -5.7592   27.1123 C   0  0  0  0  0  0  0  0  0  0  0  0
    3.5517   -7.7407   25.9711 C   0  0  0  0  0  0  0  0  0  0  0  0
  1  4  4  0
  1 22  4  0
  2 20  4  0
  2 27  4  0
  3 12  4  0
  3 23  4  0
  4 25  4  0
  4 28  1  0
  5  8  4  0
  5 17  4  0
  6  7  4  0
  6 16  4  0
  7 18  4  0
  8 27  4  0
  9 13  4  0
  9 23  4  0
 10 11  1  0
 11 14  2  0
 11 27  1  0
 12 19  1  0
 12 24  4  0
 13 24  4  0
 15 18  1  0
 16 25  4  0
 16 26  4  0
 17 20  4  0
 17 28  1  0
 18 21  4  0
 21 26  4  0
 22 26  4  0
M  END
$$$$

 Created by Python create_sdf_string function

 28 30  0  0  0  0  0  0  0  0999 V2000
    5.7174   -8.4529   26.7190 C   0  0  0  0  0  0  0  0  0  0  0  0
    0.3974   -7.0711   27.5149 C   0  0  0  0  0  0  0  0  0  0  0  0
    2.5338   -7.6891   16.0102 C   0  0  0  0  0  0  0  0  0  0  0  0
    4.8690   -7.4380   26.4151 C   0  0  0  0  0  0  0  0  0  0  0  0
    2.3021   -5.6726   26.0378 C   0  0  0  0  0  0  0  0  0  0  0  0
    7.0880   -4.6163   27.0010 C   0  0  0  0  0  0  0  0  0  0  0  0
    8.3117   -4.3698   27.4436 C   0  0  0  0  0  0  0  0  0  0  0  0
    1.1339   -5.0515   26.3541 C   0  0  0  0  0  0  0  0  0  0  0  0
    4.8080   -8.0362   16.7101 C   0  0  0  0  0  0  0  0  0  0  0  0
   -1.2173   -3.9294   26.9717 O   0  0  0  0  0  0  0  0  0  0  0  0
   -1.0025   -5.0942   27.4586 C   0  0  0  0  0  0  0  0  0  0  0  0
    2.2474   -8.9123   16.6273 C   0  0  0  0  0  0  0  0  0  0  0  0
    4.4957   -9.2636   17.3041 C   0  0  0  0  0  0  0  0  0  0  0  0
   -1.8070   -5.6086   28.1920 O   0  0  0  0  0  0  0  0  0  0  0  0
   10.4296   -5.1799   28.3140 C   0  0  0  0  0  0  0  0  0  0  0  0
    6.6017   -5.9004   26.9187 C   0  0  0  0  0  0  0  0  0  0  0  0
    2.4761   -6.9940   26.4111 N   0  0  0  0  0  0  0  0  0  0  0  0
    9.1353   -5.4053   27.8239 C   0  0  0  0  0  0  0  0  0  0  0  0
    0.9922   -9.3232   16.5995 O   0  0  0  0  0  0  0  0  0  0  0  0
    1.5232   -7.6869   27.1182 C   0  0  0  0  0  0  0  0  0  0  0  0
    8.6878   -6.6715   27.7262 N   0  0  0  0  0  0  0  0  0  0  0  0
    6.9911   -8.2423   27.1808 C   0  0  0  0  0  0  0  0  0  0  0  0
    3.8436   -7.2758   16.0578 C   0  0  0  0  0  0  0  0  0  0  0  0
    3.1882   -9.7190   17.2566 C   0  0  0  0  0  0  0  0  0  0  0  0
    5.3488   -6.1737   26.5092 C   0  0  0  0  0  0  0  0  0  0  0  0
    7.4567   -6.9464   27.2858 C   0  0  0  0  0  0  0  0  0  0  0  0
    0.1921   -5.7592   27.1123 C   0  0  0  0  0  0  0  0  0  0  0  0
    3.5517   -7.7407   25.9711 C   0  0  0  0  0  0  0  0  0  0  0  0
  1  4  4  0
  1 22  4  0
  2 20  4  0
  2 27  4  0
  3 12  4  0
  3 23  4  0
  4 25  4  0
  4 28  1  0
  5  8  4  0
  5 17  4  0
  6  7  4  0
  6 16  4  0
  7 18  4  0
  8 27  4  0
  9 13  4  0
  9 23  4  0
 10 11  1  0
 11 14  2  0
 11 27  1  0
 12 19  1  0
 12 24  4  0
 13 24  4  0
 15 18  1  0
 16 25  4  0
 16 26  4  0
 17 20  4  0
 17 28  1  0
 18 21  4  0
 21 26  4  0
 22 26  4  0
M  END
$$$$

 Created by Python create_sdf_string function

 28 30  0  0  0  0  0  0  0  0999 V2000
    5.7174   -8.4529   26.7190 C   0  0  0  0  0  0  0  0  0  0  0  0
    0.3974   -7.0711   27.5149 C   0  0  0  0  0  0  0  0  0  0  0  0
    2.5338   -7.6891   16.0102 C   0  0  0  0  0  0  0  0  0  0  0  0
    4.8690   -7.4380   26.4151 C   0  0  0  0  0  0  0  0  0  0  0  0
    2.3021   -5.6726   26.0378 C   0  0  0  0  0  0  0  0  0  0  0  0
    7.0880   -4.6163   27.0010 C   0  0  0  0  0  0  0  0  0  0  0  0
    8.3117   -4.3698   27.4436 C   0  0  0  0  0  0  0  0  0  0  0  0
    1.1339   -5.0515   26.3541 C   0  0  0  0  0  0  0  0  0  0  0  0
    4.8080   -8.0362   16.7101 C   0  0  0  0  0  0  0  0  0  0  0  0
   -1.2173   -3.9294   26.9717 O   0  0  0  0  0  0  0  0  0  0  0  0
   -1.0025   -5.0942   27.4586 C   0  0  0  0  0  0  0  0  0  0  0  0
    2.2474   -8.9123   16.6273 C   0  0  0  0  0  0  0  0  0  0  0  0
    4.4957   -9.2636   17.3041 C   0  0  0  0  0  0  0  0  0  0  0  0
   -1.8070   -5.6086   28.1920 O   0  0  0  0  0  0  0  0  0  0  0  0
   10.4296   -5.1799   28.3140 C   0  0  0  0  0  0  0  0  0  0  0  0
    6.6017   -5.9004   26.9187 C   0  0  0  0  0  0  0  0  0  0  0  0
    2.4761   -6.9940   26.4111 N   0  0  0  0  0  0  0  0  0  0  0  0
    9.1353   -5.4053   27.8239 C   0  0  0  0  0  0  0  0  0  0  0  0
    0.9922   -9.3232   16.5995 O   0  0  0  0  0  0  0  0  0  0  0  0
    1.5232   -7.6869   27.1182 C   0  0  0  0  0  0  0  0  0  0  0  0
    8.6878   -6.6715   27.7262 N   0  0  0  0  0  0  0  0  0  0  0  0
    6.9911   -8.2423   27.1808 C   0  0  0  0  0  0  0  0  0  0  0  0
    3.8436   -7.2758   16.0578 C   0  0  0  0  0  0  0  0  0  0  0  0
    3.1882   -9.7190   17.2566 C   0  0  0  0  0  0  0  0  0  0  0  0
    5.3488   -6.1737   26.5092 C   0  0  0  0  0  0  0  0  0  0  0  0
    7.4567   -6.9464   27.2858 C   0  0  0  0  0  0  0  0  0  0  0  0
    0.1921   -5.7592   27.1123 C   0  0  0  0  0  0  0  0  0  0  0  0
    3.5517   -7.7407   25.9711 C   0  0  0  0  0  0  0  0  0  0  0  0
  1  4  4  0
  1 22  4  0
  2 20  4  0
  2 27  4  0
  3 12  4  0
  3 23  4  0
  4 25  4  0
  4 28  1  0
  5  8  4  0
  5 17  4  0
  6  7  4  0
  6 16  4  0
  7 18  4  0
  8 27  4  0
  9 13  4  0
  9 23  4  0
 10 11  1  0
 11 14  2  0
 11 27  1  0
 12 19  1  0
 12 24  4  0
 13 24  4  0
 15 18  1  0
 16 25  4  0
 16 26  4  0
 17 20  4  0
 17 28  1  0
 18 21  4  0
 21 26  4  0
 22 26  4  0
M  END
$$$$

 Created by Python create_sdf_string function

 28 30  0  0  0  0  0  0  0  0999 V2000
    5.7174   -8.4529   26.7190 C   0  0  0  0  0  0  0  0  0  0  0  0
    0.3974   -7.0711   27.5149 C   0  0  0  0  0  0  0  0  0  0  0  0
    2.5338   -7.6891   16.0102 C   0  0  0  0  0  0  0  0  0  0  0  0
    4.8690   -7.4380   26.4151 C   0  0  0  0  0  0  0  0  0  0  0  0
    2.3021   -5.6726   26.0378 C   0  0  0  0  0  0  0  0  0  0  0  0
    7.0880   -4.6163   27.0010 C   0  0  0  0  0  0  0  0  0  0  0  0
    8.3117   -4.3698   27.4436 C   0  0  0  0  0  0  0  0  0  0  0  0
    1.1339   -5.0515   26.3541 C   0  0  0  0  0  0  0  0  0  0  0  0
    4.8080   -8.0362   16.7101 C   0  0  0  0  0  0  0  0  0  0  0  0
   -1.2173   -3.9294   26.9717 O   0  0  0  0  0  0  0  0  0  0  0  0
   -1.0025   -5.0942   27.4586 C   0  0  0  0  0  0  0  0  0  0  0  0
    2.2474   -8.9123   16.6273 C   0  0  0  0  0  0  0  0  0  0  0  0
    4.4957   -9.2636   17.3041 C   0  0  0  0  0  0  0  0  0  0  0  0
   -1.8070   -5.6086   28.1920 O   0  0  0  0  0  0  0  0  0  0  0  0
   10.4296   -5.1799   28.3140 C   0  0  0  0  0  0  0  0  0  0  0  0
    6.6017   -5.9004   26.9187 C   0  0  0  0  0  0  0  0  0  0  0  0
    2.4761   -6.9940   26.4111 N   0  0  0  0  0  0  0  0  0  0  0  0
    9.1353   -5.4053   27.8239 C   0  0  0  0  0  0  0  0  0  0  0  0
    0.9922   -9.3232   16.5995 O   0  0  0  0  0  0  0  0  0  0  0  0
    1.5232   -7.6869   27.1182 C   0  0  0  0  0  0  0  0  0  0  0  0
    8.6878   -6.6715   27.7262 N   0  0  0  0  0  0  0  0  0  0  0  0
    6.9911   -8.2423   27.1808 C   0  0  0  0  0  0  0  0  0  0  0  0
    3.8436   -7.2758   16.0578 C   0  0  0  0  0  0  0  0  0  0  0  0
    3.1882   -9.7190   17.2566 C   0  0  0  0  0  0  0  0  0  0  0  0
    5.3488   -6.1737   26.5092 C   0  0  0  0  0  0  0  0  0  0  0  0
    7.4567   -6.9464   27.2858 C   0  0  0  0  0  0  0  0  0  0  0  0
    0.1921   -5.7592   27.1123 C   0  0  0  0  0  0  0  0  0  0  0  0
    3.5517   -7.7407   25.9711 C   0  0  0  0  0  0  0  0  0  0  0  0
  1  4  4  0
  1 22  4  0
  2 20  4  0
  2 27  4  0
  3 12  4  0
  3 23  4  0
  4 25  4  0
  4 28  1  0
  5  8  4  0
  5 17  4  0
  6  7  4  0
  6 16  4  0
  7 18  4  0
  8 27  4  0
  9 13  4  0
  9 23  4  0
 10 11  1  0
 11 14  2  0
 11 27  1  0
 12 19  1  0
 12 24  4  0
 13 24  4  0
 15 18  1  0
 16 25  4  0
 16 26  4  0
 17 20  4  0
 17 28  1  0
 18 21  4  0
 21 26  4  0
 22 26  4  0
M  END
$$$$

 Created by Python create_sdf_string function

 28 30  0  0  0  0  0  0  0  0999 V2000
    5.7174   -8.4529   26.7190 C   0  0  0  0  0  0  0  0  0  0  0  0
    0.3974   -7.0711   27.5149 C   0  0  0  0  0  0  0  0  0  0  0  0
    2.5338   -7.6891   16.0102 C   0  0  0  0  0  0  0  0  0  0  0  0
    4.8690   -7.4380   26.4151 C   0  0  0  0  0  0  0  0  0  0  0  0
    2.3021   -5.6726   26.0378 C   0  0  0  0  0  0  0  0  0  0  0  0
    7.0880   -4.6163   27.0010 C   0  0  0  0  0  0  0  0  0  0  0  0
    8.3117   -4.3698   27.4436 C   0  0  0  0  0  0  0  0  0  0  0  0
    1.1339   -5.0515   26.3541 C   0  0  0  0  0  0  0  0  0  0  0  0
    4.8080   -8.0362   16.7101 C   0  0  0  0  0  0  0  0  0  0  0  0
   -1.2173   -3.9294   26.9717 O   0  0  0  0  0  0  0  0  0  0  0  0
   -1.0025   -5.0942   27.4586 C   0  0  0  0  0  0  0  0  0  0  0  0
    2.2474   -8.9123   16.6273 C   0  0  0  0  0  0  0  0  0  0  0  0
    4.4957   -9.2636   17.3041 C   0  0  0  0  0  0  0  0  0  0  0  0
   -1.8070   -5.6086   28.1920 O   0  0  0  0  0  0  0  0  0  0  0  0
   10.4296   -5.1799   28.3140 C   0  0  0  0  0  0  0  0  0  0  0  0
    6.6017   -5.9004   26.9187 C   0  0  0  0  0  0  0  0  0  0  0  0
    2.4761   -6.9940   26.4111 N   0  0  0  0  0  0  0  0  0  0  0  0
    9.1353   -5.4053   27.8239 C   0  0  0  0  0  0  0  0  0  0  0  0
    0.9922   -9.3232   16.5995 O   0  0  0  0  0  0  0  0  0  0  0  0
    1.5232   -7.6869   27.1182 C   0  0  0  0  0  0  0  0  0  0  0  0
    8.6878   -6.6715   27.7262 N   0  0  0  0  0  0  0  0  0  0  0  0
    6.9911   -8.2423   27.1808 C   0  0  0  0  0  0  0  0  0  0  0  0
    3.8436   -7.2758   16.0578 C   0  0  0  0  0  0  0  0  0  0  0  0
    3.1882   -9.7190   17.2566 C   0  0  0  0  0  0  0  0  0  0  0  0
    5.3488   -6.1737   26.5092 C   0  0  0  0  0  0  0  0  0  0  0  0
    7.4567   -6.9464   27.2858 C   0  0  0  0  0  0  0  0  0  0  0  0
    0.1921   -5.7592   27.1123 C   0  0  0  0  0  0  0  0  0  0  0  0
    3.5517   -7.7407   25.9711 C   0  0  0  0  0  0  0  0  0  0  0  0
  1  4  4  0
  1 22  4  0
  2 20  4  0
  2 27  4  0
  3 12  4  0
  3 23  4  0
  4 25  4  0
  4 28  1  0
  5  8  4  0
  5 17  4  0
  6  7  4  0
  6 16  4  0
  7 18  4  0
  8 27  4  0
  9 13  4  0
  9 23  4  0
 10 11  1  0
 11 14  2  0
 11 27  1  0
 12 19  1  0
 12 24  4  0
 13 24  4  0
 15 18  1  0
 16 25  4  0
 16 26  4  0
 17 20  4  0
 17 28  1  0
 18 21  4  0
 21 26  4  0
 22 26  4  0
M  END
$$$$

 Created by Python create_sdf_string function

 28 30  0  0  0  0  0  0  0  0999 V2000
    5.7174   -8.4529   26.7190 C   0  0  0  0  0  0  0  0  0  0  0  0
    0.3974   -7.0711   27.5149 C   0  0  0  0  0  0  0  0  0  0  0  0
    2.5338   -7.6891   16.0102 C   0  0  0  0  0  0  0  0  0  0  0  0
    4.8690   -7.4380   26.4151 C   0  0  0  0  0  0  0  0  0  0  0  0
    2.3021   -5.6726   26.0378 C   0  0  0  0  0  0  0  0  0  0  0  0
    7.0880   -4.6163   27.0010 C   0  0  0  0  0  0  0  0  0  0  0  0
    8.3117   -4.3698   27.4436 C   0  0  0  0  0  0  0  0  0  0  0  0
    1.1339   -5.0515   26.3541 C   0  0  0  0  0  0  0  0  0  0  0  0
    4.8080   -8.0362   16.7101 C   0  0  0  0  0  0  0  0  0  0  0  0
   -1.2173   -3.9294   26.9717 O   0  0  0  0  0  0  0  0  0  0  0  0
   -1.0025   -5.0942   27.4586 C   0  0  0  0  0  0  0  0  0  0  0  0
    2.2474   -8.9123   16.6273 C   0  0  0  0  0  0  0  0  0  0  0  0
    4.4957   -9.2636   17.3041 C   0  0  0  0  0  0  0  0  0  0  0  0
   -1.8070   -5.6086   28.1920 O   0  0  0  0  0  0  0  0  0  0  0  0
   10.4296   -5.1799   28.3140 C   0  0  0  0  0  0  0  0  0  0  0  0
    6.6017   -5.9004   26.9187 C   0  0  0  0  0  0  0  0  0  0  0  0
    2.4761   -6.9940   26.4111 N   0  0  0  0  0  0  0  0  0  0  0  0
    9.1353   -5.4053   27.8239 C   0  0  0  0  0  0  0  0  0  0  0  0
    0.9922   -9.3232   16.5995 O   0  0  0  0  0  0  0  0  0  0  0  0
    1.5232   -7.6869   27.1182 C   0  0  0  0  0  0  0  0  0  0  0  0
    8.6878   -6.6715   27.7262 N   0  0  0  0  0  0  0  0  0  0  0  0
    6.9911   -8.2423   27.1808 C   0  0  0  0  0  0  0  0  0  0  0  0
    3.8436   -7.2758   16.0578 C   0  0  0  0  0  0  0  0  0  0  0  0
    3.1882   -9.7190   17.2566 C   0  0  0  0  0  0  0  0  0  0  0  0
    5.3488   -6.1737   26.5092 C   0  0  0  0  0  0  0  0  0  0  0  0
    7.4567   -6.9464   27.2858 C   0  0  0  0  0  0  0  0  0  0  0  0
    0.1921   -5.7592   27.1123 C   0  0  0  0  0  0  0  0  0  0  0  0
    3.5517   -7.7407   25.9711 C   0  0  0  0  0  0  0  0  0  0  0  0
  1  4  4  0
  1 22  4  0
  2 20  4  0
  2 27  4  0
  3 12  4  0
  3 23  4  0
  4 25  4  0
  4 28  1  0
  5  8  4  0
  5 17  4  0
  6  7  4  0
  6 16  4  0
  7 18  4  0
  8 27  4  0
  9 13  4  0
  9 23  4  0
 10 11  1  0
 11 14  2  0
 11 27  1  0
 12 19  1  0
 12 24  4  0
 13 24  4  0
 15 18  1  0
 16 25  4  0
 16 26  4  0
 17 20  4  0
 17 28  1  0
 18 21  4  0
 21 26  4  0
 22 26  4  0
M  END
$$$$

 Created by Python create_sdf_string function

 28 30  0  0  0  0  0  0  0  0999 V2000
    5.7174   -8.4529   26.7190 C   0  0  0  0  0  0  0  0  0  0  0  0
    0.3974   -7.0711   27.5149 C   0  0  0  0  0  0  0  0  0  0  0  0
    2.5338   -7.6891   16.0102 C   0  0  0  0  0  0  0  0  0  0  0  0
    4.8690   -7.4380   26.4151 C   0  0  0  0  0  0  0  0  0  0  0  0
    2.3021   -5.6726   26.0378 C   0  0  0  0  0  0  0  0  0  0  0  0
    7.0880   -4.6163   27.0010 C   0  0  0  0  0  0  0  0  0  0  0  0
    8.3117   -4.3698   27.4436 C   0  0  0  0  0  0  0  0  0  0  0  0
    1.1339   -5.0515   26.3541 C   0  0  0  0  0  0  0  0  0  0  0  0
    4.8080   -8.0362   16.7101 C   0  0  0  0  0  0  0  0  0  0  0  0
   -1.2173   -3.9294   26.9717 O   0  0  0  0  0  0  0  0  0  0  0  0
   -1.0025   -5.0942   27.4586 C   0  0  0  0  0  0  0  0  0  0  0  0
    2.2474   -8.9123   16.6273 C   0  0  0  0  0  0  0  0  0  0  0  0
    4.4957   -9.2636   17.3041 C   0  0  0  0  0  0  0  0  0  0  0  0
   -1.8070   -5.6086   28.1920 O   0  0  0  0  0  0  0  0  0  0  0  0
   10.4296   -5.1799   28.3140 C   0  0  0  0  0  0  0  0  0  0  0  0
    6.6017   -5.9004   26.9187 C   0  0  0  0  0  0  0  0  0  0  0  0
    2.4761   -6.9940   26.4111 N   0  0  0  0  0  0  0  0  0  0  0  0
    9.1353   -5.4053   27.8239 C   0  0  0  0  0  0  0  0  0  0  0  0
    0.9922   -9.3232   16.5995 O   0  0  0  0  0  0  0  0  0  0  0  0
    1.5232   -7.6869   27.1182 C   0  0  0  0  0  0  0  0  0  0  0  0
    8.6878   -6.6715   27.7262 N   0  0  0  0  0  0  0  0  0  0  0  0
    6.9911   -8.2423   27.1808 C   0  0  0  0  0  0  0  0  0  0  0  0
    3.8436   -7.2758   16.0578 C   0  0  0  0  0  0  0  0  0  0  0  0
    3.1882   -9.7190   17.2566 C   0  0  0  0  0  0  0  0  0  0  0  0
    5.3488   -6.1737   26.5092 C   0  0  0  0  0  0  0  0  0  0  0  0
    7.4567   -6.9464   27.2858 C   0  0  0  0  0  0  0  0  0  0  0  0
    0.1921   -5.7592   27.1123 C   0  0  0  0  0  0  0  0  0  0  0  0
    3.5517   -7.7407   25.9711 C   0  0  0  0  0  0  0  0  0  0  0  0
  1  4  4  0
  1 22  4  0
  2 20  4  0
  2 27  4  0
  3 12  4  0
  3 23  4  0
  4 25  4  0
  4 28  1  0
  5  8  4  0
  5 17  4  0
  6  7  4  0
  6 16  4  0
  7 18  4  0
  8 27  4  0
  9 13  4  0
  9 23  4  0
 10 11  1  0
 11 14  2  0
 11 27  1  0
 12 19  1  0
 12 24  4  0
 13 24  4  0
 15 18  1  0
 16 25  4  0
 16 26  4  0
 17 20  4  0
 17 28  1  0
 18 21  4  0
 21 26  4  0
 22 26  4  0
M  END
$$$$

 Created by Python create_sdf_string function

 28 30  0  0  0  0  0  0  0  0999 V2000
    5.7174   -8.4529   26.7190 C   0  0  0  0  0  0  0  0  0  0  0  0
    0.3974   -7.0711   27.5149 C   0  0  0  0  0  0  0  0  0  0  0  0
    2.5338   -7.6891   16.0102 C   0  0  0  0  0  0  0  0  0  0  0  0
    4.8690   -7.4380   26.4151 C   0  0  0  0  0  0  0  0  0  0  0  0
    2.3021   -5.6726   26.0378 C   0  0  0  0  0  0  0  0  0  0  0  0
    7.0880   -4.6163   27.0010 C   0  0  0  0  0  0  0  0  0  0  0  0
    8.3117   -4.3698   27.4436 C   0  0  0  0  0  0  0  0  0  0  0  0
    1.1339   -5.0515   26.3541 C   0  0  0  0  0  0  0  0  0  0  0  0
    4.8080   -8.0362   16.7101 C   0  0  0  0  0  0  0  0  0  0  0  0
   -1.2173   -3.9294   26.9717 O   0  0  0  0  0  0  0  0  0  0  0  0
   -1.0025   -5.0942   27.4586 C   0  0  0  0  0  0  0  0  0  0  0  0
    2.2474   -8.9123   16.6273 C   0  0  0  0  0  0  0  0  0  0  0  0
    4.4957   -9.2636   17.3041 C   0  0  0  0  0  0  0  0  0  0  0  0
   -1.8070   -5.6086   28.1920 O   0  0  0  0  0  0  0  0  0  0  0  0
   10.4296   -5.1799   28.3140 C   0  0  0  0  0  0  0  0  0  0  0  0
    6.6017   -5.9004   26.9187 C   0  0  0  0  0  0  0  0  0  0  0  0
    2.4761   -6.9940   26.4111 N   0  0  0  0  0  0  0  0  0  0  0  0
    9.1353   -5.4053   27.8239 C   0  0  0  0  0  0  0  0  0  0  0  0
    0.9922   -9.3232   16.5995 O   0  0  0  0  0  0  0  0  0  0  0  0
    1.5232   -7.6869   27.1182 C   0  0  0  0  0  0  0  0  0  0  0  0
    8.6878   -6.6715   27.7262 N   0  0  0  0  0  0  0  0  0  0  0  0
    6.9911   -8.2423   27.1808 C   0  0  0  0  0  0  0  0  0  0  0  0
    3.8436   -7.2758   16.0578 C   0  0  0  0  0  0  0  0  0  0  0  0
    3.1882   -9.7190   17.2566 C   0  0  0  0  0  0  0  0  0  0  0  0
    5.3488   -6.1737   26.5092 C   0  0  0  0  0  0  0  0  0  0  0  0
    7.4567   -6.9464   27.2858 C   0  0  0  0  0  0  0  0  0  0  0  0
    0.1921   -5.7592   27.1123 C   0  0  0  0  0  0  0  0  0  0  0  0
    3.5517   -7.7407   25.9711 C   0  0  0  0  0  0  0  0  0  0  0  0
  1  4  4  0
  1 22  4  0
  2 20  4  0
  2 27  4  0
  3 12  4  0
  3 23  4  0
  4 25  4  0
  4 28  1  0
  5  8  4  0
  5 17  4  0
  6  7  4  0
  6 16  4  0
  7 18  4  0
  8 27  4  0
  9 13  4  0
  9 23  4  0
 10 11  1  0
 11 14  2  0
 11 27  1  0
 12 19  1  0
 12 24  4  0
 13 24  4  0
 15 18  1  0
 16 25  4  0
 16 26  4  0
 17 20  4  0
 17 28  1  0
 18 21  4  0
 21 26  4  0
 22 26  4  0
M  END
$$$$

 Created by Python create_sdf_string function

 28 30  0  0  0  0  0  0  0  0999 V2000
    5.7174   -8.4529   26.7190 C   0  0  0  0  0  0  0  0  0  0  0  0
    0.3974   -7.0711   27.5149 C   0  0  0  0  0  0  0  0  0  0  0  0
    2.5338   -7.6891   16.0102 C   0  0  0  0  0  0  0  0  0  0  0  0
    4.8690   -7.4380   26.4151 C   0  0  0  0  0  0  0  0  0  0  0  0
    2.3021   -5.6726   26.0378 C   0  0  0  0  0  0  0  0  0  0  0  0
    7.0880   -4.6163   27.0010 C   0  0  0  0  0  0  0  0  0  0  0  0
    8.3117   -4.3698   27.4436 C   0  0  0  0  0  0  0  0  0  0  0  0
    1.1339   -5.0515   26.3541 C   0  0  0  0  0  0  0  0  0  0  0  0
    4.8080   -8.0362   16.7101 C   0  0  0  0  0  0  0  0  0  0  0  0
   -1.2173   -3.9294   26.9717 O   0  0  0  0  0  0  0  0  0  0  0  0
   -1.0025   -5.0942   27.4586 C   0  0  0  0  0  0  0  0  0  0  0  0
    2.2474   -8.9123   16.6273 C   0  0  0  0  0  0  0  0  0  0  0  0
    4.4957   -9.2636   17.3041 C   0  0  0  0  0  0  0  0  0  0  0  0
   -1.8070   -5.6086   28.1920 O   0  0  0  0  0  0  0  0  0  0  0  0
   10.4296   -5.1799   28.3140 C   0  0  0  0  0  0  0  0  0  0  0  0
    6.6017   -5.9004   26.9187 C   0  0  0  0  0  0  0  0  0  0  0  0
    2.4761   -6.9940   26.4111 N   0  0  0  0  0  0  0  0  0  0  0  0
    9.1353   -5.4053   27.8239 C   0  0  0  0  0  0  0  0  0  0  0  0
    0.9922   -9.3232   16.5995 O   0  0  0  0  0  0  0  0  0  0  0  0
    1.5232   -7.6869   27.1182 C   0  0  0  0  0  0  0  0  0  0  0  0
    8.6878   -6.6715   27.7262 N   0  0  0  0  0  0  0  0  0  0  0  0
    6.9911   -8.2423   27.1808 C   0  0  0  0  0  0  0  0  0  0  0  0
    3.8436   -7.2758   16.0578 C   0  0  0  0  0  0  0  0  0  0  0  0
    3.1882   -9.7190   17.2566 C   0  0  0  0  0  0  0  0  0  0  0  0
    5.3488   -6.1737   26.5092 C   0  0  0  0  0  0  0  0  0  0  0  0
    7.4567   -6.9464   27.2858 C   0  0  0  0  0  0  0  0  0  0  0  0
    0.1921   -5.7592   27.1123 C   0  0  0  0  0  0  0  0  0  0  0  0
    3.5517   -7.7407   25.9711 C   0  0  0  0  0  0  0  0  0  0  0  0
  1  4  4  0
  1 22  4  0
  2 20  4  0
  2 27  4  0
  3 12  4  0
  3 23  4  0
  4 25  4  0
  4 28  1  0
  5  8  4  0
  5 17  4  0
  6  7  4  0
  6 16  4  0
  7 18  4  0
  8 27  4  0
  9 13  4  0
  9 23  4  0
 10 11  1  0
 11 14  2  0
 11 27  1  0
 12 19  1  0
 12 24  4  0
 13 24  4  0
 15 18  1  0
 16 25  4  0
 16 26  4  0
 17 20  4  0
 17 28  1  0
 18 21  4  0
 21 26  4  0
 22 26  4  0
M  END
$$$$

 Created by Python create_sdf_string function

 28 30  0  0  0  0  0  0  0  0999 V2000
    5.7174   -8.4529   26.7190 C   0  0  0  0  0  0  0  0  0  0  0  0
    0.3974   -7.0711   27.5149 C   0  0  0  0  0  0  0  0  0  0  0  0
    2.5338   -7.6891   16.0102 C   0  0  0  0  0  0  0  0  0  0  0  0
    4.8690   -7.4380   26.4151 C   0  0  0  0  0  0  0  0  0  0  0  0
    2.3021   -5.6726   26.0378 C   0  0  0  0  0  0  0  0  0  0  0  0
    7.0880   -4.6163   27.0010 C   0  0  0  0  0  0  0  0  0  0  0  0
    8.3117   -4.3698   27.4436 C   0  0  0  0  0  0  0  0  0  0  0  0
    1.1339   -5.0515   26.3541 C   0  0  0  0  0  0  0  0  0  0  0  0
    4.8080   -8.0362   16.7101 C   0  0  0  0  0  0  0  0  0  0  0  0
   -1.2173   -3.9294   26.9717 O   0  0  0  0  0  0  0  0  0  0  0  0
   -1.0025   -5.0942   27.4586 C   0  0  0  0  0  0  0  0  0  0  0  0
    2.2474   -8.9123   16.6273 C   0  0  0  0  0  0  0  0  0  0  0  0
    4.4957   -9.2636   17.3041 C   0  0  0  0  0  0  0  0  0  0  0  0
   -1.8070   -5.6086   28.1920 O   0  0  0  0  0  0  0  0  0  0  0  0
   10.4296   -5.1799   28.3140 C   0  0  0  0  0  0  0  0  0  0  0  0
    6.6017   -5.9004   26.9187 C   0  0  0  0  0  0  0  0  0  0  0  0
    2.4761   -6.9940   26.4111 N   0  0  0  0  0  0  0  0  0  0  0  0
    9.1353   -5.4053   27.8239 C   0  0  0  0  0  0  0  0  0  0  0  0
    0.9922   -9.3232   16.5995 O   0  0  0  0  0  0  0  0  0  0  0  0
    1.5232   -7.6869   27.1182 C   0  0  0  0  0  0  0  0  0  0  0  0
    8.6878   -6.6715   27.7262 N   0  0  0  0  0  0  0  0  0  0  0  0
    6.9911   -8.2423   27.1808 C   0  0  0  0  0  0  0  0  0  0  0  0
    3.8436   -7.2758   16.0578 C   0  0  0  0  0  0  0  0  0  0  0  0
    3.1882   -9.7190   17.2566 C   0  0  0  0  0  0  0  0  0  0  0  0
    5.3488   -6.1737   26.5092 C   0  0  0  0  0  0  0  0  0  0  0  0
    7.4567   -6.9464   27.2858 C   0  0  0  0  0  0  0  0  0  0  0  0
    0.1921   -5.7592   27.1123 C   0  0  0  0  0  0  0  0  0  0  0  0
    3.5517   -7.7407   25.9711 C   0  0  0  0  0  0  0  0  0  0  0  0
  1  4  4  0
  1 22  4  0
  2 20  4  0
  2 27  4  0
  3 12  4  0
  3 23  4  0
  4 25  4  0
  4 28  1  0
  5  8  4  0
  5 17  4  0
  6  7  4  0
  6 16  4  0
  7 18  4  0
  8 27  4  0
  9 13  4  0
  9 23  4  0
 10 11  1  0
 11 14  2  0
 11 27  1  0
 12 19  1  0
 12 24  4  0
 13 24  4  0
 15 18  1  0
 16 25  4  0
 16 26  4  0
 17 20  4  0
 17 28  1  0
 18 21  4  0
 21 26  4  0
 22 26  4  0
M  END
$$$$

 Created by Python create_sdf_string function

 28 30  0  0  0  0  0  0  0  0999 V2000
    5.7174   -8.4529   26.7190 C   0  0  0  0  0  0  0  0  0  0  0  0
    0.3974   -7.0711   27.5149 C   0  0  0  0  0  0  0  0  0  0  0  0
    2.5338   -7.6891   16.0102 C   0  0  0  0  0  0  0  0  0  0  0  0
    4.8690   -7.4380   26.4151 C   0  0  0  0  0  0  0  0  0  0  0  0
    2.3021   -5.6726   26.0378 C   0  0  0  0  0  0  0  0  0  0  0  0
    7.0880   -4.6163   27.0010 C   0  0  0  0  0  0  0  0  0  0  0  0
    8.3117   -4.3698   27.4436 C   0  0  0  0  0  0  0  0  0  0  0  0
    1.1339   -5.0515   26.3541 C   0  0  0  0  0  0  0  0  0  0  0  0
    4.8080   -8.0362   16.7101 C   0  0  0  0  0  0  0  0  0  0  0  0
   -1.2173   -3.9294   26.9717 O   0  0  0  0  0  0  0  0  0  0  0  0
   -1.0025   -5.0942   27.4586 C   0  0  0  0  0  0  0  0  0  0  0  0
    2.2474   -8.9123   16.6273 C   0  0  0  0  0  0  0  0  0  0  0  0
    4.4957   -9.2636   17.3041 C   0  0  0  0  0  0  0  0  0  0  0  0
   -1.8070   -5.6086   28.1920 O   0  0  0  0  0  0  0  0  0  0  0  0
   10.4296   -5.1799   28.3140 C   0  0  0  0  0  0  0  0  0  0  0  0
    6.6017   -5.9004   26.9187 C   0  0  0  0  0  0  0  0  0  0  0  0
    2.4761   -6.9940   26.4111 N   0  0  0  0  0  0  0  0  0  0  0  0
    9.1353   -5.4053   27.8239 C   0  0  0  0  0  0  0  0  0  0  0  0
    0.9922   -9.3232   16.5995 O   0  0  0  0  0  0  0  0  0  0  0  0
    1.5232   -7.6869   27.1182 C   0  0  0  0  0  0  0  0  0  0  0  0
    8.6878   -6.6715   27.7262 N   0  0  0  0  0  0  0  0  0  0  0  0
    6.9911   -8.2423   27.1808 C   0  0  0  0  0  0  0  0  0  0  0  0
    3.8436   -7.2758   16.0578 C   0  0  0  0  0  0  0  0  0  0  0  0
    3.1882   -9.7190   17.2566 C   0  0  0  0  0  0  0  0  0  0  0  0
    5.3488   -6.1737   26.5092 C   0  0  0  0  0  0  0  0  0  0  0  0
    7.4567   -6.9464   27.2858 C   0  0  0  0  0  0  0  0  0  0  0  0
    0.1921   -5.7592   27.1123 C   0  0  0  0  0  0  0  0  0  0  0  0
    3.5517   -7.7407   25.9711 C   0  0  0  0  0  0  0  0  0  0  0  0
  1  4  4  0
  1 22  4  0
  2 20  4  0
  2 27  4  0
  3 12  4  0
  3 23  4  0
  4 25  4  0
  4 28  1  0
  5  8  4  0
  5 17  4  0
  6  7  4  0
  6 16  4  0
  7 18  4  0
  8 27  4  0
  9 13  4  0
  9 23  4  0
 10 11  1  0
 11 14  2  0
 11 27  1  0
 12 19  1  0
 12 24  4  0
 13 24  4  0
 15 18  1  0
 16 25  4  0
 16 26  4  0
 17 20  4  0
 17 28  1  0
 18 21  4  0
 21 26  4  0
 22 26  4  0
M  END
$$$$

 Created by Python create_sdf_string function

 28 30  0  0  0  0  0  0  0  0999 V2000
    5.7174   -8.4529   26.7190 C   0  0  0  0  0  0  0  0  0  0  0  0
    0.3974   -7.0711   27.5149 C   0  0  0  0  0  0  0  0  0  0  0  0
    2.5338   -7.6891   16.0102 C   0  0  0  0  0  0  0  0  0  0  0  0
    4.8690   -7.4380   26.4151 C   0  0  0  0  0  0  0  0  0  0  0  0
    2.3021   -5.6726   26.0378 C   0  0  0  0  0  0  0  0  0  0  0  0
    7.0880   -4.6163   27.0010 C   0  0  0  0  0  0  0  0  0  0  0  0
    8.3117   -4.3698   27.4436 C   0  0  0  0  0  0  0  0  0  0  0  0
    1.1339   -5.0515   26.3541 C   0  0  0  0  0  0  0  0  0  0  0  0
    4.8080   -8.0362   16.7101 C   0  0  0  0  0  0  0  0  0  0  0  0
   -1.2173   -3.9294   26.9717 O   0  0  0  0  0  0  0  0  0  0  0  0
   -1.0025   -5.0942   27.4586 C   0  0  0  0  0  0  0  0  0  0  0  0
    2.2474   -8.9123   16.6273 C   0  0  0  0  0  0  0  0  0  0  0  0
    4.4957   -9.2636   17.3041 C   0  0  0  0  0  0  0  0  0  0  0  0
   -1.8070   -5.6086   28.1920 O   0  0  0  0  0  0  0  0  0  0  0  0
   10.4296   -5.1799   28.3140 C   0  0  0  0  0  0  0  0  0  0  0  0
    6.6017   -5.9004   26.9187 C   0  0  0  0  0  0  0  0  0  0  0  0
    2.4761   -6.9940   26.4111 N   0  0  0  0  0  0  0  0  0  0  0  0
    9.1353   -5.4053   27.8239 C   0  0  0  0  0  0  0  0  0  0  0  0
    0.9922   -9.3232   16.5995 O   0  0  0  0  0  0  0  0  0  0  0  0
    1.5232   -7.6869   27.1182 C   0  0  0  0  0  0  0  0  0  0  0  0
    8.6878   -6.6715   27.7262 N   0  0  0  0  0  0  0  0  0  0  0  0
    6.9911   -8.2423   27.1808 C   0  0  0  0  0  0  0  0  0  0  0  0
    3.8436   -7.2758   16.0578 C   0  0  0  0  0  0  0  0  0  0  0  0
    3.1882   -9.7190   17.2566 C   0  0  0  0  0  0  0  0  0  0  0  0
    5.3488   -6.1737   26.5092 C   0  0  0  0  0  0  0  0  0  0  0  0
    7.4567   -6.9464   27.2858 C   0  0  0  0  0  0  0  0  0  0  0  0
    0.1921   -5.7592   27.1123 C   0  0  0  0  0  0  0  0  0  0  0  0
    3.5517   -7.7407   25.9711 C   0  0  0  0  0  0  0  0  0  0  0  0
  1  4  4  0
  1 22  4  0
  2 20  4  0
  2 27  4  0
  3 12  4  0
  3 23  4  0
  4 25  4  0
  4 28  1  0
  5  8  4  0
  5 17  4  0
  6  7  4  0
  6 16  4  0
  7 18  4  0
  8 27  4  0
  9 13  4  0
  9 23  4  0
 10 11  1  0
 11 14  2  0
 11 27  1  0
 12 19  1  0
 12 24  4  0
 13 24  4  0
 15 18  1  0
 16 25  4  0
 16 26  4  0
 17 20  4  0
 17 28  1  0
 18 21  4  0
 21 26  4  0
 22 26  4  0
M  END
$$$$

 Created by Python create_sdf_string function

 28 30  0  0  0  0  0  0  0  0999 V2000
    5.7174   -8.4529   26.7190 C   0  0  0  0  0  0  0  0  0  0  0  0
    0.3974   -7.0711   27.5149 C   0  0  0  0  0  0  0  0  0  0  0  0
    2.5338   -7.6891   16.0102 C   0  0  0  0  0  0  0  0  0  0  0  0
    4.8690   -7.4380   26.4151 C   0  0  0  0  0  0  0  0  0  0  0  0
    2.3021   -5.6726   26.0378 C   0  0  0  0  0  0  0  0  0  0  0  0
    7.0880   -4.6163   27.0010 C   0  0  0  0  0  0  0  0  0  0  0  0
    8.3117   -4.3698   27.4436 C   0  0  0  0  0  0  0  0  0  0  0  0
    1.1339   -5.0515   26.3541 C   0  0  0  0  0  0  0  0  0  0  0  0
    4.8080   -8.0362   16.7101 C   0  0  0  0  0  0  0  0  0  0  0  0
   -1.2173   -3.9294   26.9717 O   0  0  0  0  0  0  0  0  0  0  0  0
   -1.0025   -5.0942   27.4586 C   0  0  0  0  0  0  0  0  0  0  0  0
    2.2474   -8.9123   16.6273 C   0  0  0  0  0  0  0  0  0  0  0  0
    4.4957   -9.2636   17.3041 C   0  0  0  0  0  0  0  0  0  0  0  0
   -1.8070   -5.6086   28.1920 O   0  0  0  0  0  0  0  0  0  0  0  0
   10.4296   -5.1799   28.3140 C   0  0  0  0  0  0  0  0  0  0  0  0
    6.6017   -5.9004   26.9187 C   0  0  0  0  0  0  0  0  0  0  0  0
    2.4761   -6.9940   26.4111 N   0  0  0  0  0  0  0  0  0  0  0  0
    9.1353   -5.4053   27.8239 C   0  0  0  0  0  0  0  0  0  0  0  0
    0.9922   -9.3232   16.5995 O   0  0  0  0  0  0  0  0  0  0  0  0
    1.5232   -7.6869   27.1182 C   0  0  0  0  0  0  0  0  0  0  0  0
    8.6878   -6.6715   27.7262 N   0  0  0  0  0  0  0  0  0  0  0  0
    6.9911   -8.2423   27.1808 C   0  0  0  0  0  0  0  0  0  0  0  0
    3.8436   -7.2758   16.0578 C   0  0  0  0  0  0  0  0  0  0  0  0
    3.1882   -9.7190   17.2566 C   0  0  0  0  0  0  0  0  0  0  0  0
    5.3488   -6.1737   26.5092 C   0  0  0  0  0  0  0  0  0  0  0  0
    7.4567   -6.9464   27.2858 C   0  0  0  0  0  0  0  0  0  0  0  0
    0.1921   -5.7592   27.1123 C   0  0  0  0  0  0  0  0  0  0  0  0
    3.5517   -7.7407   25.9711 C   0  0  0  0  0  0  0  0  0  0  0  0
  1  4  4  0
  1 22  4  0
  2 20  4  0
  2 27  4  0
  3 12  4  0
  3 23  4  0
  4 25  4  0
  4 28  1  0
  5  8  4  0
  5 17  4  0
  6  7  4  0
  6 16  4  0
  7 18  4  0
  8 27  4  0
  9 13  4  0
  9 23  4  0
 10 11  1  0
 11 14  2  0
 11 27  1  0
 12 19  1  0
 12 24  4  0
 13 24  4  0
 15 18  1  0
 16 25  4  0
 16 26  4  0
 17 20  4  0
 17 28  1  0
 18 21  4  0
 21 26  4  0
 22 26  4  0
M  END
$$$$

 Created by Python create_sdf_string function

 28 30  0  0  0  0  0  0  0  0999 V2000
    5.7174   -8.4529   26.7190 C   0  0  0  0  0  0  0  0  0  0  0  0
    0.3974   -7.0711   27.5149 C   0  0  0  0  0  0  0  0  0  0  0  0
    2.5338   -7.6891   16.0102 C   0  0  0  0  0  0  0  0  0  0  0  0
    4.8690   -7.4380   26.4151 C   0  0  0  0  0  0  0  0  0  0  0  0
    2.3021   -5.6726   26.0378 C   0  0  0  0  0  0  0  0  0  0  0  0
    7.0880   -4.6163   27.0010 C   0  0  0  0  0  0  0  0  0  0  0  0
    8.3117   -4.3698   27.4436 C   0  0  0  0  0  0  0  0  0  0  0  0
    1.1339   -5.0515   26.3541 C   0  0  0  0  0  0  0  0  0  0  0  0
    4.8080   -8.0362   16.7101 C   0  0  0  0  0  0  0  0  0  0  0  0
   -1.2173   -3.9294   26.9717 O   0  0  0  0  0  0  0  0  0  0  0  0
   -1.0025   -5.0942   27.4586 C   0  0  0  0  0  0  0  0  0  0  0  0
    2.2474   -8.9123   16.6273 C   0  0  0  0  0  0  0  0  0  0  0  0
    4.4957   -9.2636   17.3041 C   0  0  0  0  0  0  0  0  0  0  0  0
   -1.8070   -5.6086   28.1920 O   0  0  0  0  0  0  0  0  0  0  0  0
   10.4296   -5.1799   28.3140 C   0  0  0  0  0  0  0  0  0  0  0  0
    6.6017   -5.9004   26.9187 C   0  0  0  0  0  0  0  0  0  0  0  0
    2.4761   -6.9940   26.4111 N   0  0  0  0  0  0  0  0  0  0  0  0
    9.1353   -5.4053   27.8239 C   0  0  0  0  0  0  0  0  0  0  0  0
    0.9922   -9.3232   16.5995 O   0  0  0  0  0  0  0  0  0  0  0  0
    1.5232   -7.6869   27.1182 C   0  0  0  0  0  0  0  0  0  0  0  0
    8.6878   -6.6715   27.7262 N   0  0  0  0  0  0  0  0  0  0  0  0
    6.9911   -8.2423   27.1808 C   0  0  0  0  0  0  0  0  0  0  0  0
    3.8436   -7.2758   16.0578 C   0  0  0  0  0  0  0  0  0  0  0  0
    3.1882   -9.7190   17.2566 C   0  0  0  0  0  0  0  0  0  0  0  0
    5.3488   -6.1737   26.5092 C   0  0  0  0  0  0  0  0  0  0  0  0
    7.4567   -6.9464   27.2858 C   0  0  0  0  0  0  0  0  0  0  0  0
    0.1921   -5.7592   27.1123 C   0  0  0  0  0  0  0  0  0  0  0  0
    3.5517   -7.7407   25.9711 C   0  0  0  0  0  0  0  0  0  0  0  0
  1  4  4  0
  1 22  4  0
  2 20  4  0
  2 27  4  0
  3 12  4  0
  3 23  4  0
  4 25  4  0
  4 28  1  0
  5  8  4  0
  5 17  4  0
  6  7  4  0
  6 16  4  0
  7 18  4  0
  8 27  4  0
  9 13  4  0
  9 23  4  0
 10 11  1  0
 11 14  2  0
 11 27  1  0
 12 19  1  0
 12 24  4  0
 13 24  4  0
 15 18  1  0
 16 25  4  0
 16 26  4  0
 17 20  4  0
 17 28  1  0
 18 21  4  0
 21 26  4  0
 22 26  4  0
M  END
$$$$

 Created by Python create_sdf_string function

 28 30  0  0  0  0  0  0  0  0999 V2000
    5.7174   -8.4529   26.7190 C   0  0  0  0  0  0  0  0  0  0  0  0
    0.3974   -7.0711   27.5149 C   0  0  0  0  0  0  0  0  0  0  0  0
    2.5338   -7.6891   16.0102 C   0  0  0  0  0  0  0  0  0  0  0  0
    4.8690   -7.4380   26.4151 C   0  0  0  0  0  0  0  0  0  0  0  0
    2.3021   -5.6726   26.0378 C   0  0  0  0  0  0  0  0  0  0  0  0
    7.0880   -4.6163   27.0010 C   0  0  0  0  0  0  0  0  0  0  0  0
    8.3117   -4.3698   27.4436 C   0  0  0  0  0  0  0  0  0  0  0  0
    1.1339   -5.0515   26.3541 C   0  0  0  0  0  0  0  0  0  0  0  0
    4.8080   -8.0362   16.7101 C   0  0  0  0  0  0  0  0  0  0  0  0
   -1.2173   -3.9294   26.9717 O   0  0  0  0  0  0  0  0  0  0  0  0
   -1.0025   -5.0942   27.4586 C   0  0  0  0  0  0  0  0  0  0  0  0
    2.2474   -8.9123   16.6273 C   0  0  0  0  0  0  0  0  0  0  0  0
    4.4957   -9.2636   17.3041 C   0  0  0  0  0  0  0  0  0  0  0  0
   -1.8070   -5.6086   28.1920 O   0  0  0  0  0  0  0  0  0  0  0  0
   10.4296   -5.1799   28.3140 C   0  0  0  0  0  0  0  0  0  0  0  0
    6.6017   -5.9004   26.9187 C   0  0  0  0  0  0  0  0  0  0  0  0
    2.4761   -6.9940   26.4111 N   0  0  0  0  0  0  0  0  0  0  0  0
    9.1353   -5.4053   27.8239 C   0  0  0  0  0  0  0  0  0  0  0  0
    0.9922   -9.3232   16.5995 O   0  0  0  0  0  0  0  0  0  0  0  0
    1.5232   -7.6869   27.1182 C   0  0  0  0  0  0  0  0  0  0  0  0
    8.6878   -6.6715   27.7262 N   0  0  0  0  0  0  0  0  0  0  0  0
    6.9911   -8.2423   27.1808 C   0  0  0  0  0  0  0  0  0  0  0  0
    3.8436   -7.2758   16.0578 C   0  0  0  0  0  0  0  0  0  0  0  0
    3.1882   -9.7190   17.2566 C   0  0  0  0  0  0  0  0  0  0  0  0
    5.3488   -6.1737   26.5092 C   0  0  0  0  0  0  0  0  0  0  0  0
    7.4567   -6.9464   27.2858 C   0  0  0  0  0  0  0  0  0  0  0  0
    0.1921   -5.7592   27.1123 C   0  0  0  0  0  0  0  0  0  0  0  0
    3.5517   -7.7407   25.9711 C   0  0  0  0  0  0  0  0  0  0  0  0
  1  4  4  0
  1 22  4  0
  2 20  4  0
  2 27  4  0
  3 12  4  0
  3 23  4  0
  4 25  4  0
  4 28  1  0
  5  8  4  0
  5 17  4  0
  6  7  4  0
  6 16  4  0
  7 18  4  0
  8 27  4  0
  9 13  4  0
  9 23  4  0
 10 11  1  0
 11 14  2  0
 11 27  1  0
 12 19  1  0
 12 24  4  0
 13 24  4  0
 15 18  1  0
 16 25  4  0
 16 26  4  0
 17 20  4  0
 17 28  1  0
 18 21  4  0
 21 26  4  0
 22 26  4  0
M  END
$$$$

 Created by Python create_sdf_string function

 28 30  0  0  0  0  0  0  0  0999 V2000
    5.7174   -8.4529   26.7190 C   0  0  0  0  0  0  0  0  0  0  0  0
    0.3974   -7.0711   27.5149 C   0  0  0  0  0  0  0  0  0  0  0  0
    2.5338   -7.6891   16.0102 C   0  0  0  0  0  0  0  0  0  0  0  0
    4.8690   -7.4380   26.4151 C   0  0  0  0  0  0  0  0  0  0  0  0
    2.3021   -5.6726   26.0378 C   0  0  0  0  0  0  0  0  0  0  0  0
    7.0880   -4.6163   27.0010 C   0  0  0  0  0  0  0  0  0  0  0  0
    8.3117   -4.3698   27.4436 C   0  0  0  0  0  0  0  0  0  0  0  0
    1.1339   -5.0515   26.3541 C   0  0  0  0  0  0  0  0  0  0  0  0
    4.8080   -8.0362   16.7101 C   0  0  0  0  0  0  0  0  0  0  0  0
   -1.2173   -3.9294   26.9717 O   0  0  0  0  0  0  0  0  0  0  0  0
   -1.0025   -5.0942   27.4586 C   0  0  0  0  0  0  0  0  0  0  0  0
    2.2474   -8.9123   16.6273 C   0  0  0  0  0  0  0  0  0  0  0  0
    4.4957   -9.2636   17.3041 C   0  0  0  0  0  0  0  0  0  0  0  0
   -1.8070   -5.6086   28.1920 O   0  0  0  0  0  0  0  0  0  0  0  0
   10.4296   -5.1799   28.3140 C   0  0  0  0  0  0  0  0  0  0  0  0
    6.6017   -5.9004   26.9187 C   0  0  0  0  0  0  0  0  0  0  0  0
    2.4761   -6.9940   26.4111 N   0  0  0  0  0  0  0  0  0  0  0  0
    9.1353   -5.4053   27.8239 C   0  0  0  0  0  0  0  0  0  0  0  0
    0.9922   -9.3232   16.5995 O   0  0  0  0  0  0  0  0  0  0  0  0
    1.5232   -7.6869   27.1182 C   0  0  0  0  0  0  0  0  0  0  0  0
    8.6878   -6.6715   27.7262 N   0  0  0  0  0  0  0  0  0  0  0  0
    6.9911   -8.2423   27.1808 C   0  0  0  0  0  0  0  0  0  0  0  0
    3.8436   -7.2758   16.0578 C   0  0  0  0  0  0  0  0  0  0  0  0
    3.1882   -9.7190   17.2566 C   0  0  0  0  0  0  0  0  0  0  0  0
    5.3488   -6.1737   26.5092 C   0  0  0  0  0  0  0  0  0  0  0  0
    7.4567   -6.9464   27.2858 C   0  0  0  0  0  0  0  0  0  0  0  0
    0.1921   -5.7592   27.1123 C   0  0  0  0  0  0  0  0  0  0  0  0
    3.5517   -7.7407   25.9711 C   0  0  0  0  0  0  0  0  0  0  0  0
  1  4  4  0
  1 22  4  0
  2 20  4  0
  2 27  4  0
  3 12  4  0
  3 23  4  0
  4 25  4  0
  4 28  1  0
  5  8  4  0
  5 17  4  0
  6  7  4  0
  6 16  4  0
  7 18  4  0
  8 27  4  0
  9 13  4  0
  9 23  4  0
 10 11  1  0
 11 14  2  0
 11 27  1  0
 12 19  1  0
 12 24  4  0
 13 24  4  0
 15 18  1  0
 16 25  4  0
 16 26  4  0
 17 20  4  0
 17 28  1  0
 18 21  4  0
 21 26  4  0
 22 26  4  0
M  END
$$$$

 Created by Python create_sdf_string function

 28 30  0  0  0  0  0  0  0  0999 V2000
    5.7174   -8.4529   26.7190 C   0  0  0  0  0  0  0  0  0  0  0  0
    0.3974   -7.0711   27.5149 C   0  0  0  0  0  0  0  0  0  0  0  0
    2.5338   -7.6891   16.0102 C   0  0  0  0  0  0  0  0  0  0  0  0
    4.8690   -7.4380   26.4151 C   0  0  0  0  0  0  0  0  0  0  0  0
    2.3021   -5.6726   26.0378 C   0  0  0  0  0  0  0  0  0  0  0  0
    7.0880   -4.6163   27.0010 C   0  0  0  0  0  0  0  0  0  0  0  0
    8.3117   -4.3698   27.4436 C   0  0  0  0  0  0  0  0  0  0  0  0
    1.1339   -5.0515   26.3541 C   0  0  0  0  0  0  0  0  0  0  0  0
    4.8080   -8.0362   16.7101 C   0  0  0  0  0  0  0  0  0  0  0  0
   -1.2173   -3.9294   26.9717 O   0  0  0  0  0  0  0  0  0  0  0  0
   -1.0025   -5.0942   27.4586 C   0  0  0  0  0  0  0  0  0  0  0  0
    2.2474   -8.9123   16.6273 C   0  0  0  0  0  0  0  0  0  0  0  0
    4.4957   -9.2636   17.3041 C   0  0  0  0  0  0  0  0  0  0  0  0
   -1.8070   -5.6086   28.1920 O   0  0  0  0  0  0  0  0  0  0  0  0
   10.4296   -5.1799   28.3140 C   0  0  0  0  0  0  0  0  0  0  0  0
    6.6017   -5.9004   26.9187 C   0  0  0  0  0  0  0  0  0  0  0  0
    2.4761   -6.9940   26.4111 N   0  0  0  0  0  0  0  0  0  0  0  0
    9.1353   -5.4053   27.8239 C   0  0  0  0  0  0  0  0  0  0  0  0
    0.9922   -9.3232   16.5995 O   0  0  0  0  0  0  0  0  0  0  0  0
    1.5232   -7.6869   27.1182 C   0  0  0  0  0  0  0  0  0  0  0  0
    8.6878   -6.6715   27.7262 N   0  0  0  0  0  0  0  0  0  0  0  0
    6.9911   -8.2423   27.1808 C   0  0  0  0  0  0  0  0  0  0  0  0
    3.8436   -7.2758   16.0578 C   0  0  0  0  0  0  0  0  0  0  0  0
    3.1882   -9.7190   17.2566 C   0  0  0  0  0  0  0  0  0  0  0  0
    5.3488   -6.1737   26.5092 C   0  0  0  0  0  0  0  0  0  0  0  0
    7.4567   -6.9464   27.2858 C   0  0  0  0  0  0  0  0  0  0  0  0
    0.1921   -5.7592   27.1123 C   0  0  0  0  0  0  0  0  0  0  0  0
    3.5517   -7.7407   25.9711 C   0  0  0  0  0  0  0  0  0  0  0  0
  1  4  4  0
  1 22  4  0
  2 20  4  0
  2 27  4  0
  3 12  4  0
  3 23  4  0
  4 25  4  0
  4 28  1  0
  5  8  4  0
  5 17  4  0
  6  7  4  0
  6 16  4  0
  7 18  4  0
  8 27  4  0
  9 13  4  0
  9 23  4  0
 10 11  1  0
 11 14  2  0
 11 27  1  0
 12 19  1  0
 12 24  4  0
 13 24  4  0
 15 18  1  0
 16 25  4  0
 16 26  4  0
 17 20  4  0
 17 28  1  0
 18 21  4  0
 21 26  4  0
 22 26  4  0
M  END
$$$$

 Created by Python create_sdf_string function

 28 30  0  0  0  0  0  0  0  0999 V2000
    5.7174   -8.4529   26.7190 C   0  0  0  0  0  0  0  0  0  0  0  0
    0.3974   -7.0711   27.5149 C   0  0  0  0  0  0  0  0  0  0  0  0
    2.5338   -7.6891   16.0102 C   0  0  0  0  0  0  0  0  0  0  0  0
    4.8690   -7.4380   26.4151 C   0  0  0  0  0  0  0  0  0  0  0  0
    2.3021   -5.6726   26.0378 C   0  0  0  0  0  0  0  0  0  0  0  0
    7.0880   -4.6163   27.0010 C   0  0  0  0  0  0  0  0  0  0  0  0
    8.3117   -4.3698   27.4436 C   0  0  0  0  0  0  0  0  0  0  0  0
    1.1339   -5.0515   26.3541 C   0  0  0  0  0  0  0  0  0  0  0  0
    4.8080   -8.0362   16.7101 C   0  0  0  0  0  0  0  0  0  0  0  0
   -1.2173   -3.9294   26.9717 O   0  0  0  0  0  0  0  0  0  0  0  0
   -1.0025   -5.0942   27.4586 C   0  0  0  0  0  0  0  0  0  0  0  0
    2.2474   -8.9123   16.6273 C   0  0  0  0  0  0  0  0  0  0  0  0
    4.4957   -9.2636   17.3041 C   0  0  0  0  0  0  0  0  0  0  0  0
   -1.8070   -5.6086   28.1920 O   0  0  0  0  0  0  0  0  0  0  0  0
   10.4296   -5.1799   28.3140 C   0  0  0  0  0  0  0  0  0  0  0  0
    6.6017   -5.9004   26.9187 C   0  0  0  0  0  0  0  0  0  0  0  0
    2.4761   -6.9940   26.4111 N   0  0  0  0  0  0  0  0  0  0  0  0
    9.1353   -5.4053   27.8239 C   0  0  0  0  0  0  0  0  0  0  0  0
    0.9922   -9.3232   16.5995 O   0  0  0  0  0  0  0  0  0  0  0  0
    1.5232   -7.6869   27.1182 C   0  0  0  0  0  0  0  0  0  0  0  0
    8.6878   -6.6715   27.7262 N   0  0  0  0  0  0  0  0  0  0  0  0
    6.9911   -8.2423   27.1808 C   0  0  0  0  0  0  0  0  0  0  0  0
    3.8436   -7.2758   16.0578 C   0  0  0  0  0  0  0  0  0  0  0  0
    3.1882   -9.7190   17.2566 C   0  0  0  0  0  0  0  0  0  0  0  0
    5.3488   -6.1737   26.5092 C   0  0  0  0  0  0  0  0  0  0  0  0
    7.4567   -6.9464   27.2858 C   0  0  0  0  0  0  0  0  0  0  0  0
    0.1921   -5.7592   27.1123 C   0  0  0  0  0  0  0  0  0  0  0  0
    3.5517   -7.7407   25.9711 C   0  0  0  0  0  0  0  0  0  0  0  0
  1  4  4  0
  1 22  4  0
  2 20  4  0
  2 27  4  0
  3 12  4  0
  3 23  4  0
  4 25  4  0
  4 28  1  0
  5  8  4  0
  5 17  4  0
  6  7  4  0
  6 16  4  0
  7 18  4  0
  8 27  4  0
  9 13  4  0
  9 23  4  0
 10 11  1  0
 11 14  2  0
 11 27  1  0
 12 19  1  0
 12 24  4  0
 13 24  4  0
 15 18  1  0
 16 25  4  0
 16 26  4  0
 17 20  4  0
 17 28  1  0
 18 21  4  0
 21 26  4  0
 22 26  4  0
M  END
$$$$

 Created by Python create_sdf_string function

 28 30  0  0  0  0  0  0  0  0999 V2000
    5.7174   -8.4529   26.7190 C   0  0  0  0  0  0  0  0  0  0  0  0
    0.3974   -7.0711   27.5149 C   0  0  0  0  0  0  0  0  0  0  0  0
    2.5338   -7.6891   16.0102 C   0  0  0  0  0  0  0  0  0  0  0  0
    4.8690   -7.4380   26.4151 C   0  0  0  0  0  0  0  0  0  0  0  0
    2.3021   -5.6726   26.0378 C   0  0  0  0  0  0  0  0  0  0  0  0
    7.0880   -4.6163   27.0010 C   0  0  0  0  0  0  0  0  0  0  0  0
    8.3117   -4.3698   27.4436 C   0  0  0  0  0  0  0  0  0  0  0  0
    1.1339   -5.0515   26.3541 C   0  0  0  0  0  0  0  0  0  0  0  0
    4.8080   -8.0362   16.7101 C   0  0  0  0  0  0  0  0  0  0  0  0
   -1.2173   -3.9294   26.9717 O   0  0  0  0  0  0  0  0  0  0  0  0
   -1.0025   -5.0942   27.4586 C   0  0  0  0  0  0  0  0  0  0  0  0
    2.2474   -8.9123   16.6273 C   0  0  0  0  0  0  0  0  0  0  0  0
    4.4957   -9.2636   17.3041 C   0  0  0  0  0  0  0  0  0  0  0  0
   -1.8070   -5.6086   28.1920 O   0  0  0  0  0  0  0  0  0  0  0  0
   10.4296   -5.1799   28.3140 C   0  0  0  0  0  0  0  0  0  0  0  0
    6.6017   -5.9004   26.9187 C   0  0  0  0  0  0  0  0  0  0  0  0
    2.4761   -6.9940   26.4111 N   0  0  0  0  0  0  0  0  0  0  0  0
    9.1353   -5.4053   27.8239 C   0  0  0  0  0  0  0  0  0  0  0  0
    0.9922   -9.3232   16.5995 O   0  0  0  0  0  0  0  0  0  0  0  0
    1.5232   -7.6869   27.1182 C   0  0  0  0  0  0  0  0  0  0  0  0
    8.6878   -6.6715   27.7262 N   0  0  0  0  0  0  0  0  0  0  0  0
    6.9911   -8.2423   27.1808 C   0  0  0  0  0  0  0  0  0  0  0  0
    3.8436   -7.2758   16.0578 C   0  0  0  0  0  0  0  0  0  0  0  0
    3.1882   -9.7190   17.2566 C   0  0  0  0  0  0  0  0  0  0  0  0
    5.3488   -6.1737   26.5092 C   0  0  0  0  0  0  0  0  0  0  0  0
    7.4567   -6.9464   27.2858 C   0  0  0  0  0  0  0  0  0  0  0  0
    0.1921   -5.7592   27.1123 C   0  0  0  0  0  0  0  0  0  0  0  0
    3.5517   -7.7407   25.9711 C   0  0  0  0  0  0  0  0  0  0  0  0
  1  4  4  0
  1 22  4  0
  2 20  4  0
  2 27  4  0
  3 12  4  0
  3 23  4  0
  4 25  4  0
  4 28  1  0
  5  8  4  0
  5 17  4  0
  6  7  4  0
  6 16  4  0
  7 18  4  0
  8 27  4  0
  9 13  4  0
  9 23  4  0
 10 11  1  0
 11 14  2  0
 11 27  1  0
 12 19  1  0
 12 24  4  0
 13 24  4  0
 15 18  1  0
 16 25  4  0
 16 26  4  0
 17 20  4  0
 17 28  1  0
 18 21  4  0
 21 26  4  0
 22 26  4  0
M  END
$$$$

 Created by Python create_sdf_string function

 28 30  0  0  0  0  0  0  0  0999 V2000
    5.7174   -8.4529   26.7190 C   0  0  0  0  0  0  0  0  0  0  0  0
    0.3974   -7.0711   27.5149 C   0  0  0  0  0  0  0  0  0  0  0  0
    2.5338   -7.6891   16.0102 C   0  0  0  0  0  0  0  0  0  0  0  0
    4.8690   -7.4380   26.4151 C   0  0  0  0  0  0  0  0  0  0  0  0
    2.3021   -5.6726   26.0378 C   0  0  0  0  0  0  0  0  0  0  0  0
    7.0880   -4.6163   27.0010 C   0  0  0  0  0  0  0  0  0  0  0  0
    8.3117   -4.3698   27.4436 C   0  0  0  0  0  0  0  0  0  0  0  0
    1.1339   -5.0515   26.3541 C   0  0  0  0  0  0  0  0  0  0  0  0
    4.8080   -8.0362   16.7101 C   0  0  0  0  0  0  0  0  0  0  0  0
   -1.2173   -3.9294   26.9717 O   0  0  0  0  0  0  0  0  0  0  0  0
   -1.0025   -5.0942   27.4586 C   0  0  0  0  0  0  0  0  0  0  0  0
    2.2474   -8.9123   16.6273 C   0  0  0  0  0  0  0  0  0  0  0  0
    4.4957   -9.2636   17.3041 C   0  0  0  0  0  0  0  0  0  0  0  0
   -1.8070   -5.6086   28.1920 O   0  0  0  0  0  0  0  0  0  0  0  0
   10.4296   -5.1799   28.3140 C   0  0  0  0  0  0  0  0  0  0  0  0
    6.6017   -5.9004   26.9187 C   0  0  0  0  0  0  0  0  0  0  0  0
    2.4761   -6.9940   26.4111 N   0  0  0  0  0  0  0  0  0  0  0  0
    9.1353   -5.4053   27.8239 C   0  0  0  0  0  0  0  0  0  0  0  0
    0.9922   -9.3232   16.5995 O   0  0  0  0  0  0  0  0  0  0  0  0
    1.5232   -7.6869   27.1182 C   0  0  0  0  0  0  0  0  0  0  0  0
    8.6878   -6.6715   27.7262 N   0  0  0  0  0  0  0  0  0  0  0  0
    6.9911   -8.2423   27.1808 C   0  0  0  0  0  0  0  0  0  0  0  0
    3.8436   -7.2758   16.0578 C   0  0  0  0  0  0  0  0  0  0  0  0
    3.1882   -9.7190   17.2566 C   0  0  0  0  0  0  0  0  0  0  0  0
    5.3488   -6.1737   26.5092 C   0  0  0  0  0  0  0  0  0  0  0  0
    7.4567   -6.9464   27.2858 C   0  0  0  0  0  0  0  0  0  0  0  0
    0.1921   -5.7592   27.1123 C   0  0  0  0  0  0  0  0  0  0  0  0
    3.5517   -7.7407   25.9711 C   0  0  0  0  0  0  0  0  0  0  0  0
  1  4  4  0
  1 22  4  0
  2 20  4  0
  2 27  4  0
  3 12  4  0
  3 23  4  0
  4 25  4  0
  4 28  1  0
  5  8  4  0
  5 17  4  0
  6  7  4  0
  6 16  4  0
  7 18  4  0
  8 27  4  0
  9 13  4  0
  9 23  4  0
 10 11  1  0
 11 14  2  0
 11 27  1  0
 12 19  1  0
 12 24  4  0
 13 24  4  0
 15 18  1  0
 16 25  4  0
 16 26  4  0
 17 20  4  0
 17 28  1  0
 18 21  4  0
 21 26  4  0
 22 26  4  0
M  END
$$$$

 Created by Python create_sdf_string function

 28 30  0  0  0  0  0  0  0  0999 V2000
    5.7174   -8.4529   26.7190 C   0  0  0  0  0  0  0  0  0  0  0  0
    0.3974   -7.0711   27.5149 C   0  0  0  0  0  0  0  0  0  0  0  0
    2.5338   -7.6891   16.0102 C   0  0  0  0  0  0  0  0  0  0  0  0
    4.8690   -7.4380   26.4151 C   0  0  0  0  0  0  0  0  0  0  0  0
    2.3021   -5.6726   26.0378 C   0  0  0  0  0  0  0  0  0  0  0  0
    7.0880   -4.6163   27.0010 C   0  0  0  0  0  0  0  0  0  0  0  0
    8.3117   -4.3698   27.4436 C   0  0  0  0  0  0  0  0  0  0  0  0
    1.1339   -5.0515   26.3541 C   0  0  0  0  0  0  0  0  0  0  0  0
    4.8080   -8.0362   16.7101 C   0  0  0  0  0  0  0  0  0  0  0  0
   -1.2173   -3.9294   26.9717 O   0  0  0  0  0  0  0  0  0  0  0  0
   -1.0025   -5.0942   27.4586 C   0  0  0  0  0  0  0  0  0  0  0  0
    2.2474   -8.9123   16.6273 C   0  0  0  0  0  0  0  0  0  0  0  0
    4.4957   -9.2636   17.3041 C   0  0  0  0  0  0  0  0  0  0  0  0
   -1.8070   -5.6086   28.1920 O   0  0  0  0  0  0  0  0  0  0  0  0
   10.4296   -5.1799   28.3140 C   0  0  0  0  0  0  0  0  0  0  0  0
    6.6017   -5.9004   26.9187 C   0  0  0  0  0  0  0  0  0  0  0  0
    2.4761   -6.9940   26.4111 N   0  0  0  0  0  0  0  0  0  0  0  0
    9.1353   -5.4053   27.8239 C   0  0  0  0  0  0  0  0  0  0  0  0
    0.9922   -9.3232   16.5995 O   0  0  0  0  0  0  0  0  0  0  0  0
    1.5232   -7.6869   27.1182 C   0  0  0  0  0  0  0  0  0  0  0  0
    8.6878   -6.6715   27.7262 N   0  0  0  0  0  0  0  0  0  0  0  0
    6.9911   -8.2423   27.1808 C   0  0  0  0  0  0  0  0  0  0  0  0
    3.8436   -7.2758   16.0578 C   0  0  0  0  0  0  0  0  0  0  0  0
    3.1882   -9.7190   17.2566 C   0  0  0  0  0  0  0  0  0  0  0  0
    5.3488   -6.1737   26.5092 C   0  0  0  0  0  0  0  0  0  0  0  0
    7.4567   -6.9464   27.2858 C   0  0  0  0  0  0  0  0  0  0  0  0
    0.1921   -5.7592   27.1123 C   0  0  0  0  0  0  0  0  0  0  0  0
    3.5517   -7.7407   25.9711 C   0  0  0  0  0  0  0  0  0  0  0  0
  1  4  4  0
  1 22  4  0
  2 20  4  0
  2 27  4  0
  3 12  4  0
  3 23  4  0
  4 25  4  0
  4 28  1  0
  5  8  4  0
  5 17  4  0
  6  7  4  0
  6 16  4  0
  7 18  4  0
  8 27  4  0
  9 13  4  0
  9 23  4  0
 10 11  1  0
 11 14  2  0
 11 27  1  0
 12 19  1  0
 12 24  4  0
 13 24  4  0
 15 18  1  0
 16 25  4  0
 16 26  4  0
 17 20  4  0
 17 28  1  0
 18 21  4  0
 21 26  4  0
 22 26  4  0
M  END
$$$$

 Created by Python create_sdf_string function

 28 30  0  0  0  0  0  0  0  0999 V2000
    5.7174   -8.4529   26.7190 C   0  0  0  0  0  0  0  0  0  0  0  0
    0.3974   -7.0711   27.5149 C   0  0  0  0  0  0  0  0  0  0  0  0
    2.5338   -7.6891   16.0102 C   0  0  0  0  0  0  0  0  0  0  0  0
    4.8690   -7.4380   26.4151 C   0  0  0  0  0  0  0  0  0  0  0  0
    2.3021   -5.6726   26.0378 C   0  0  0  0  0  0  0  0  0  0  0  0
    7.0880   -4.6163   27.0010 C   0  0  0  0  0  0  0  0  0  0  0  0
    8.3117   -4.3698   27.4436 C   0  0  0  0  0  0  0  0  0  0  0  0
    1.1339   -5.0515   26.3541 C   0  0  0  0  0  0  0  0  0  0  0  0
    4.8080   -8.0362   16.7101 C   0  0  0  0  0  0  0  0  0  0  0  0
   -1.2173   -3.9294   26.9717 O   0  0  0  0  0  0  0  0  0  0  0  0
   -1.0025   -5.0942   27.4586 C   0  0  0  0  0  0  0  0  0  0  0  0
    2.2474   -8.9123   16.6273 C   0  0  0  0  0  0  0  0  0  0  0  0
    4.4957   -9.2636   17.3041 C   0  0  0  0  0  0  0  0  0  0  0  0
   -1.8070   -5.6086   28.1920 O   0  0  0  0  0  0  0  0  0  0  0  0
   10.4296   -5.1799   28.3140 C   0  0  0  0  0  0  0  0  0  0  0  0
    6.6017   -5.9004   26.9187 C   0  0  0  0  0  0  0  0  0  0  0  0
    2.4761   -6.9940   26.4111 N   0  0  0  0  0  0  0  0  0  0  0  0
    9.1353   -5.4053   27.8239 C   0  0  0  0  0  0  0  0  0  0  0  0
    0.9922   -9.3232   16.5995 O   0  0  0  0  0  0  0  0  0  0  0  0
    1.5232   -7.6869   27.1182 C   0  0  0  0  0  0  0  0  0  0  0  0
    8.6878   -6.6715   27.7262 N   0  0  0  0  0  0  0  0  0  0  0  0
    6.9911   -8.2423   27.1808 C   0  0  0  0  0  0  0  0  0  0  0  0
    3.8436   -7.2758   16.0578 C   0  0  0  0  0  0  0  0  0  0  0  0
    3.1882   -9.7190   17.2566 C   0  0  0  0  0  0  0  0  0  0  0  0
    5.3488   -6.1737   26.5092 C   0  0  0  0  0  0  0  0  0  0  0  0
    7.4567   -6.9464   27.2858 C   0  0  0  0  0  0  0  0  0  0  0  0
    0.1921   -5.7592   27.1123 C   0  0  0  0  0  0  0  0  0  0  0  0
    3.5517   -7.7407   25.9711 C   0  0  0  0  0  0  0  0  0  0  0  0
  1  4  4  0
  1 22  4  0
  2 20  4  0
  2 27  4  0
  3 12  4  0
  3 23  4  0
  4 25  4  0
  4 28  1  0
  5  8  4  0
  5 17  4  0
  6  7  4  0
  6 16  4  0
  7 18  4  0
  8 27  4  0
  9 13  4  0
  9 23  4  0
 10 11  1  0
 11 14  2  0
 11 27  1  0
 12 19  1  0
 12 24  4  0
 13 24  4  0
 15 18  1  0
 16 25  4  0
 16 26  4  0
 17 20  4  0
 17 28  1  0
 18 21  4  0
 21 26  4  0
 22 26  4  0
M  END
$$$$

 Created by Python create_sdf_string function

 28 30  0  0  0  0  0  0  0  0999 V2000
    5.7174   -8.4529   26.7190 C   0  0  0  0  0  0  0  0  0  0  0  0
    0.3974   -7.0711   27.5149 C   0  0  0  0  0  0  0  0  0  0  0  0
    2.5338   -7.6891   16.0102 C   0  0  0  0  0  0  0  0  0  0  0  0
    4.8690   -7.4380   26.4151 C   0  0  0  0  0  0  0  0  0  0  0  0
    2.3021   -5.6726   26.0378 C   0  0  0  0  0  0  0  0  0  0  0  0
    7.0880   -4.6163   27.0010 C   0  0  0  0  0  0  0  0  0  0  0  0
    8.3117   -4.3698   27.4436 C   0  0  0  0  0  0  0  0  0  0  0  0
    1.1339   -5.0515   26.3541 C   0  0  0  0  0  0  0  0  0  0  0  0
    4.8080   -8.0362   16.7101 C   0  0  0  0  0  0  0  0  0  0  0  0
   -1.2173   -3.9294   26.9717 O   0  0  0  0  0  0  0  0  0  0  0  0
   -1.0025   -5.0942   27.4586 C   0  0  0  0  0  0  0  0  0  0  0  0
    2.2474   -8.9123   16.6273 C   0  0  0  0  0  0  0  0  0  0  0  0
    4.4957   -9.2636   17.3041 C   0  0  0  0  0  0  0  0  0  0  0  0
   -1.8070   -5.6086   28.1920 O   0  0  0  0  0  0  0  0  0  0  0  0
   10.4296   -5.1799   28.3140 C   0  0  0  0  0  0  0  0  0  0  0  0
    6.6017   -5.9004   26.9187 C   0  0  0  0  0  0  0  0  0  0  0  0
    2.4761   -6.9940   26.4111 N   0  0  0  0  0  0  0  0  0  0  0  0
    9.1353   -5.4053   27.8239 C   0  0  0  0  0  0  0  0  0  0  0  0
    0.9922   -9.3232   16.5995 O   0  0  0  0  0  0  0  0  0  0  0  0
    1.5232   -7.6869   27.1182 C   0  0  0  0  0  0  0  0  0  0  0  0
    8.6878   -6.6715   27.7262 N   0  0  0  0  0  0  0  0  0  0  0  0
    6.9911   -8.2423   27.1808 C   0  0  0  0  0  0  0  0  0  0  0  0
    3.8436   -7.2758   16.0578 C   0  0  0  0  0  0  0  0  0  0  0  0
    3.1882   -9.7190   17.2566 C   0  0  0  0  0  0  0  0  0  0  0  0
    5.3488   -6.1737   26.5092 C   0  0  0  0  0  0  0  0  0  0  0  0
    7.4567   -6.9464   27.2858 C   0  0  0  0  0  0  0  0  0  0  0  0
    0.1921   -5.7592   27.1123 C   0  0  0  0  0  0  0  0  0  0  0  0
    3.5517   -7.7407   25.9711 C   0  0  0  0  0  0  0  0  0  0  0  0
  1  4  4  0
  1 22  4  0
  2 20  4  0
  2 27  4  0
  3 12  4  0
  3 23  4  0
  4 25  4  0
  4 28  1  0
  5  8  4  0
  5 17  4  0
  6  7  4  0
  6 16  4  0
  7 18  4  0
  8 27  4  0
  9 13  4  0
  9 23  4  0
 10 11  1  0
 11 14  2  0
 11 27  1  0
 12 19  1  0
 12 24  4  0
 13 24  4  0
 15 18  1  0
 16 25  4  0
 16 26  4  0
 17 20  4  0
 17 28  1  0
 18 21  4  0
 21 26  4  0
 22 26  4  0
M  END
$$$$

 Created by Python create_sdf_string function

 28 30  0  0  0  0  0  0  0  0999 V2000
    5.7174   -8.4529   26.7190 C   0  0  0  0  0  0  0  0  0  0  0  0
    0.3974   -7.0711   27.5149 C   0  0  0  0  0  0  0  0  0  0  0  0
    2.5338   -7.6891   16.0102 C   0  0  0  0  0  0  0  0  0  0  0  0
    4.8690   -7.4380   26.4151 C   0  0  0  0  0  0  0  0  0  0  0  0
    2.3021   -5.6726   26.0378 C   0  0  0  0  0  0  0  0  0  0  0  0
    7.0880   -4.6163   27.0010 C   0  0  0  0  0  0  0  0  0  0  0  0
    8.3117   -4.3698   27.4436 C   0  0  0  0  0  0  0  0  0  0  0  0
    1.1339   -5.0515   26.3541 C   0  0  0  0  0  0  0  0  0  0  0  0
    4.8080   -8.0362   16.7101 C   0  0  0  0  0  0  0  0  0  0  0  0
   -1.2173   -3.9294   26.9717 O   0  0  0  0  0  0  0  0  0  0  0  0
   -1.0025   -5.0942   27.4586 C   0  0  0  0  0  0  0  0  0  0  0  0
    2.2474   -8.9123   16.6273 C   0  0  0  0  0  0  0  0  0  0  0  0
    4.4957   -9.2636   17.3041 C   0  0  0  0  0  0  0  0  0  0  0  0
   -1.8070   -5.6086   28.1920 O   0  0  0  0  0  0  0  0  0  0  0  0
   10.4296   -5.1799   28.3140 C   0  0  0  0  0  0  0  0  0  0  0  0
    6.6017   -5.9004   26.9187 C   0  0  0  0  0  0  0  0  0  0  0  0
    2.4761   -6.9940   26.4111 N   0  0  0  0  0  0  0  0  0  0  0  0
    9.1353   -5.4053   27.8239 C   0  0  0  0  0  0  0  0  0  0  0  0
    0.9922   -9.3232   16.5995 O   0  0  0  0  0  0  0  0  0  0  0  0
    1.5232   -7.6869   27.1182 C   0  0  0  0  0  0  0  0  0  0  0  0
    8.6878   -6.6715   27.7262 N   0  0  0  0  0  0  0  0  0  0  0  0
    6.9911   -8.2423   27.1808 C   0  0  0  0  0  0  0  0  0  0  0  0
    3.8436   -7.2758   16.0578 C   0  0  0  0  0  0  0  0  0  0  0  0
    3.1882   -9.7190   17.2566 C   0  0  0  0  0  0  0  0  0  0  0  0
    5.3488   -6.1737   26.5092 C   0  0  0  0  0  0  0  0  0  0  0  0
    7.4567   -6.9464   27.2858 C   0  0  0  0  0  0  0  0  0  0  0  0
    0.1921   -5.7592   27.1123 C   0  0  0  0  0  0  0  0  0  0  0  0
    3.5517   -7.7407   25.9711 C   0  0  0  0  0  0  0  0  0  0  0  0
  1  4  4  0
  1 22  4  0
  2 20  4  0
  2 27  4  0
  3 12  4  0
  3 23  4  0
  4 25  4  0
  4 28  1  0
  5  8  4  0
  5 17  4  0
  6  7  4  0
  6 16  4  0
  7 18  4  0
  8 27  4  0
  9 13  4  0
  9 23  4  0
 10 11  1  0
 11 14  2  0
 11 27  1  0
 12 19  1  0
 12 24  4  0
 13 24  4  0
 15 18  1  0
 16 25  4  0
 16 26  4  0
 17 20  4  0
 17 28  1  0
 18 21  4  0
 21 26  4  0
 22 26  4  0
M  END
$$$$

 Created by Python create_sdf_string function

 28 30  0  0  0  0  0  0  0  0999 V2000
    5.7174   -8.4529   26.7190 C   0  0  0  0  0  0  0  0  0  0  0  0
    0.3974   -7.0711   27.5149 C   0  0  0  0  0  0  0  0  0  0  0  0
    2.5338   -7.6891   16.0102 C   0  0  0  0  0  0  0  0  0  0  0  0
    4.8690   -7.4380   26.4151 C   0  0  0  0  0  0  0  0  0  0  0  0
    2.3021   -5.6726   26.0378 C   0  0  0  0  0  0  0  0  0  0  0  0
    7.0880   -4.6163   27.0010 C   0  0  0  0  0  0  0  0  0  0  0  0
    8.3117   -4.3698   27.4436 C   0  0  0  0  0  0  0  0  0  0  0  0
    1.1339   -5.0515   26.3541 C   0  0  0  0  0  0  0  0  0  0  0  0
    4.8080   -8.0362   16.7101 C   0  0  0  0  0  0  0  0  0  0  0  0
   -1.2173   -3.9294   26.9717 O   0  0  0  0  0  0  0  0  0  0  0  0
   -1.0025   -5.0942   27.4586 C   0  0  0  0  0  0  0  0  0  0  0  0
    2.2474   -8.9123   16.6273 C   0  0  0  0  0  0  0  0  0  0  0  0
    4.4957   -9.2636   17.3041 C   0  0  0  0  0  0  0  0  0  0  0  0
   -1.8070   -5.6086   28.1920 O   0  0  0  0  0  0  0  0  0  0  0  0
   10.4296   -5.1799   28.3140 C   0  0  0  0  0  0  0  0  0  0  0  0
    6.6017   -5.9004   26.9187 C   0  0  0  0  0  0  0  0  0  0  0  0
    2.4761   -6.9940   26.4111 N   0  0  0  0  0  0  0  0  0  0  0  0
    9.1353   -5.4053   27.8239 C   0  0  0  0  0  0  0  0  0  0  0  0
    0.9922   -9.3232   16.5995 O   0  0  0  0  0  0  0  0  0  0  0  0
    1.5232   -7.6869   27.1182 C   0  0  0  0  0  0  0  0  0  0  0  0
    8.6878   -6.6715   27.7262 N   0  0  0  0  0  0  0  0  0  0  0  0
    6.9911   -8.2423   27.1808 C   0  0  0  0  0  0  0  0  0  0  0  0
    3.8436   -7.2758   16.0578 C   0  0  0  0  0  0  0  0  0  0  0  0
    3.1882   -9.7190   17.2566 C   0  0  0  0  0  0  0  0  0  0  0  0
    5.3488   -6.1737   26.5092 C   0  0  0  0  0  0  0  0  0  0  0  0
    7.4567   -6.9464   27.2858 C   0  0  0  0  0  0  0  0  0  0  0  0
    0.1921   -5.7592   27.1123 C   0  0  0  0  0  0  0  0  0  0  0  0
    3.5517   -7.7407   25.9711 C   0  0  0  0  0  0  0  0  0  0  0  0
  1  4  4  0
  1 22  4  0
  2 20  4  0
  2 27  4  0
  3 12  4  0
  3 23  4  0
  4 25  4  0
  4 28  1  0
  5  8  4  0
  5 17  4  0
  6  7  4  0
  6 16  4  0
  7 18  4  0
  8 27  4  0
  9 13  4  0
  9 23  4  0
 10 11  1  0
 11 14  2  0
 11 27  1  0
 12 19  1  0
 12 24  4  0
 13 24  4  0
 15 18  1  0
 16 25  4  0
 16 26  4  0
 17 20  4  0
 17 28  1  0
 18 21  4  0
 21 26  4  0
 22 26  4  0
M  END
$$$$

 Created by Python create_sdf_string function

 28 30  0  0  0  0  0  0  0  0999 V2000
    5.7174   -8.4529   26.7190 C   0  0  0  0  0  0  0  0  0  0  0  0
    0.3974   -7.0711   27.5149 C   0  0  0  0  0  0  0  0  0  0  0  0
    2.5338   -7.6891   16.0102 C   0  0  0  0  0  0  0  0  0  0  0  0
    4.8690   -7.4380   26.4151 C   0  0  0  0  0  0  0  0  0  0  0  0
    2.3021   -5.6726   26.0378 C   0  0  0  0  0  0  0  0  0  0  0  0
    7.0880   -4.6163   27.0010 C   0  0  0  0  0  0  0  0  0  0  0  0
    8.3117   -4.3698   27.4436 C   0  0  0  0  0  0  0  0  0  0  0  0
    1.1339   -5.0515   26.3541 C   0  0  0  0  0  0  0  0  0  0  0  0
    4.8080   -8.0362   16.7101 C   0  0  0  0  0  0  0  0  0  0  0  0
   -1.2173   -3.9294   26.9717 O   0  0  0  0  0  0  0  0  0  0  0  0
   -1.0025   -5.0942   27.4586 C   0  0  0  0  0  0  0  0  0  0  0  0
    2.2474   -8.9123   16.6273 C   0  0  0  0  0  0  0  0  0  0  0  0
    4.4957   -9.2636   17.3041 C   0  0  0  0  0  0  0  0  0  0  0  0
   -1.8070   -5.6086   28.1920 O   0  0  0  0  0  0  0  0  0  0  0  0
   10.4296   -5.1799   28.3140 C   0  0  0  0  0  0  0  0  0  0  0  0
    6.6017   -5.9004   26.9187 C   0  0  0  0  0  0  0  0  0  0  0  0
    2.4761   -6.9940   26.4111 N   0  0  0  0  0  0  0  0  0  0  0  0
    9.1353   -5.4053   27.8239 C   0  0  0  0  0  0  0  0  0  0  0  0
    0.9922   -9.3232   16.5995 O   0  0  0  0  0  0  0  0  0  0  0  0
    1.5232   -7.6869   27.1182 C   0  0  0  0  0  0  0  0  0  0  0  0
    8.6878   -6.6715   27.7262 N   0  0  0  0  0  0  0  0  0  0  0  0
    6.9911   -8.2423   27.1808 C   0  0  0  0  0  0  0  0  0  0  0  0
    3.8436   -7.2758   16.0578 C   0  0  0  0  0  0  0  0  0  0  0  0
    3.1882   -9.7190   17.2566 C   0  0  0  0  0  0  0  0  0  0  0  0
    5.3488   -6.1737   26.5092 C   0  0  0  0  0  0  0  0  0  0  0  0
    7.4567   -6.9464   27.2858 C   0  0  0  0  0  0  0  0  0  0  0  0
    0.1921   -5.7592   27.1123 C   0  0  0  0  0  0  0  0  0  0  0  0
    3.5517   -7.7407   25.9711 C   0  0  0  0  0  0  0  0  0  0  0  0
  1  4  4  0
  1 22  4  0
  2 20  4  0
  2 27  4  0
  3 12  4  0
  3 23  4  0
  4 25  4  0
  4 28  1  0
  5  8  4  0
  5 17  4  0
  6  7  4  0
  6 16  4  0
  7 18  4  0
  8 27  4  0
  9 13  4  0
  9 23  4  0
 10 11  1  0
 11 14  2  0
 11 27  1  0
 12 19  1  0
 12 24  4  0
 13 24  4  0
 15 18  1  0
 16 25  4  0
 16 26  4  0
 17 20  4  0
 17 28  1  0
 18 21  4  0
 21 26  4  0
 22 26  4  0
M  END
$$$$

 Created by Python create_sdf_string function

 28 30  0  0  0  0  0  0  0  0999 V2000
    5.7174   -8.4529   26.7190 C   0  0  0  0  0  0  0  0  0  0  0  0
    0.3974   -7.0711   27.5149 C   0  0  0  0  0  0  0  0  0  0  0  0
    2.5338   -7.6891   16.0102 C   0  0  0  0  0  0  0  0  0  0  0  0
    4.8690   -7.4380   26.4151 C   0  0  0  0  0  0  0  0  0  0  0  0
    2.3021   -5.6726   26.0378 C   0  0  0  0  0  0  0  0  0  0  0  0
    7.0880   -4.6163   27.0010 C   0  0  0  0  0  0  0  0  0  0  0  0
    8.3117   -4.3698   27.4436 C   0  0  0  0  0  0  0  0  0  0  0  0
    1.1339   -5.0515   26.3541 C   0  0  0  0  0  0  0  0  0  0  0  0
    4.8080   -8.0362   16.7101 C   0  0  0  0  0  0  0  0  0  0  0  0
   -1.2173   -3.9294   26.9717 O   0  0  0  0  0  0  0  0  0  0  0  0
   -1.0025   -5.0942   27.4586 C   0  0  0  0  0  0  0  0  0  0  0  0
    2.2474   -8.9123   16.6273 C   0  0  0  0  0  0  0  0  0  0  0  0
    4.4957   -9.2636   17.3041 C   0  0  0  0  0  0  0  0  0  0  0  0
   -1.8070   -5.6086   28.1920 O   0  0  0  0  0  0  0  0  0  0  0  0
   10.4296   -5.1799   28.3140 C   0  0  0  0  0  0  0  0  0  0  0  0
    6.6017   -5.9004   26.9187 C   0  0  0  0  0  0  0  0  0  0  0  0
    2.4761   -6.9940   26.4111 N   0  0  0  0  0  0  0  0  0  0  0  0
    9.1353   -5.4053   27.8239 C   0  0  0  0  0  0  0  0  0  0  0  0
    0.9922   -9.3232   16.5995 O   0  0  0  0  0  0  0  0  0  0  0  0
    1.5232   -7.6869   27.1182 C   0  0  0  0  0  0  0  0  0  0  0  0
    8.6878   -6.6715   27.7262 N   0  0  0  0  0  0  0  0  0  0  0  0
    6.9911   -8.2423   27.1808 C   0  0  0  0  0  0  0  0  0  0  0  0
    3.8436   -7.2758   16.0578 C   0  0  0  0  0  0  0  0  0  0  0  0
    3.1882   -9.7190   17.2566 C   0  0  0  0  0  0  0  0  0  0  0  0
    5.3488   -6.1737   26.5092 C   0  0  0  0  0  0  0  0  0  0  0  0
    7.4567   -6.9464   27.2858 C   0  0  0  0  0  0  0  0  0  0  0  0
    0.1921   -5.7592   27.1123 C   0  0  0  0  0  0  0  0  0  0  0  0
    3.5517   -7.7407   25.9711 C   0  0  0  0  0  0  0  0  0  0  0  0
  1  4  4  0
  1 22  4  0
  2 20  4  0
  2 27  4  0
  3 12  4  0
  3 23  4  0
  4 25  4  0
  4 28  1  0
  5  8  4  0
  5 17  4  0
  6  7  4  0
  6 16  4  0
  7 18  4  0
  8 27  4  0
  9 13  4  0
  9 23  4  0
 10 11  1  0
 11 14  2  0
 11 27  1  0
 12 19  1  0
 12 24  4  0
 13 24  4  0
 15 18  1  0
 16 25  4  0
 16 26  4  0
 17 20  4  0
 17 28  1  0
 18 21  4  0
 21 26  4  0
 22 26  4  0
M  END
$$$$

 Created by Python create_sdf_string function

 28 30  0  0  0  0  0  0  0  0999 V2000
    5.7174   -8.4529   26.7190 C   0  0  0  0  0  0  0  0  0  0  0  0
    0.3974   -7.0711   27.5149 C   0  0  0  0  0  0  0  0  0  0  0  0
    2.5338   -7.6891   16.0102 C   0  0  0  0  0  0  0  0  0  0  0  0
    4.8690   -7.4380   26.4151 C   0  0  0  0  0  0  0  0  0  0  0  0
    2.3021   -5.6726   26.0378 C   0  0  0  0  0  0  0  0  0  0  0  0
    7.0880   -4.6163   27.0010 C   0  0  0  0  0  0  0  0  0  0  0  0
    8.3117   -4.3698   27.4436 C   0  0  0  0  0  0  0  0  0  0  0  0
    1.1339   -5.0515   26.3541 C   0  0  0  0  0  0  0  0  0  0  0  0
    4.8080   -8.0362   16.7101 C   0  0  0  0  0  0  0  0  0  0  0  0
   -1.2173   -3.9294   26.9717 O   0  0  0  0  0  0  0  0  0  0  0  0
   -1.0025   -5.0942   27.4586 C   0  0  0  0  0  0  0  0  0  0  0  0
    2.2474   -8.9123   16.6273 C   0  0  0  0  0  0  0  0  0  0  0  0
    4.4957   -9.2636   17.3041 C   0  0  0  0  0  0  0  0  0  0  0  0
   -1.8070   -5.6086   28.1920 O   0  0  0  0  0  0  0  0  0  0  0  0
   10.4296   -5.1799   28.3140 C   0  0  0  0  0  0  0  0  0  0  0  0
    6.6017   -5.9004   26.9187 C   0  0  0  0  0  0  0  0  0  0  0  0
    2.4761   -6.9940   26.4111 N   0  0  0  0  0  0  0  0  0  0  0  0
    9.1353   -5.4053   27.8239 C   0  0  0  0  0  0  0  0  0  0  0  0
    0.9922   -9.3232   16.5995 O   0  0  0  0  0  0  0  0  0  0  0  0
    1.5232   -7.6869   27.1182 C   0  0  0  0  0  0  0  0  0  0  0  0
    8.6878   -6.6715   27.7262 N   0  0  0  0  0  0  0  0  0  0  0  0
    6.9911   -8.2423   27.1808 C   0  0  0  0  0  0  0  0  0  0  0  0
    3.8436   -7.2758   16.0578 C   0  0  0  0  0  0  0  0  0  0  0  0
    3.1882   -9.7190   17.2566 C   0  0  0  0  0  0  0  0  0  0  0  0
    5.3488   -6.1737   26.5092 C   0  0  0  0  0  0  0  0  0  0  0  0
    7.4567   -6.9464   27.2858 C   0  0  0  0  0  0  0  0  0  0  0  0
    0.1921   -5.7592   27.1123 C   0  0  0  0  0  0  0  0  0  0  0  0
    3.5517   -7.7407   25.9711 C   0  0  0  0  0  0  0  0  0  0  0  0
  1  4  4  0
  1 22  4  0
  2 20  4  0
  2 27  4  0
  3 12  4  0
  3 23  4  0
  4 25  4  0
  4 28  1  0
  5  8  4  0
  5 17  4  0
  6  7  4  0
  6 16  4  0
  7 18  4  0
  8 27  4  0
  9 13  4  0
  9 23  4  0
 10 11  1  0
 11 14  2  0
 11 27  1  0
 12 19  1  0
 12 24  4  0
 13 24  4  0
 15 18  1  0
 16 25  4  0
 16 26  4  0
 17 20  4  0
 17 28  1  0
 18 21  4  0
 21 26  4  0
 22 26  4  0
M  END
$$$$

 Created by Python create_sdf_string function

 28 30  0  0  0  0  0  0  0  0999 V2000
    5.7174   -8.4529   26.7190 C   0  0  0  0  0  0  0  0  0  0  0  0
    0.3974   -7.0711   27.5149 C   0  0  0  0  0  0  0  0  0  0  0  0
    2.5338   -7.6891   16.0102 C   0  0  0  0  0  0  0  0  0  0  0  0
    4.8690   -7.4380   26.4151 C   0  0  0  0  0  0  0  0  0  0  0  0
    2.3021   -5.6726   26.0378 C   0  0  0  0  0  0  0  0  0  0  0  0
    7.0880   -4.6163   27.0010 C   0  0  0  0  0  0  0  0  0  0  0  0
    8.3117   -4.3698   27.4436 C   0  0  0  0  0  0  0  0  0  0  0  0
    1.1339   -5.0515   26.3541 C   0  0  0  0  0  0  0  0  0  0  0  0
    4.8080   -8.0362   16.7101 C   0  0  0  0  0  0  0  0  0  0  0  0
   -1.2173   -3.9294   26.9717 O   0  0  0  0  0  0  0  0  0  0  0  0
   -1.0025   -5.0942   27.4586 C   0  0  0  0  0  0  0  0  0  0  0  0
    2.2474   -8.9123   16.6273 C   0  0  0  0  0  0  0  0  0  0  0  0
    4.4957   -9.2636   17.3041 C   0  0  0  0  0  0  0  0  0  0  0  0
   -1.8070   -5.6086   28.1920 O   0  0  0  0  0  0  0  0  0  0  0  0
   10.4296   -5.1799   28.3140 C   0  0  0  0  0  0  0  0  0  0  0  0
    6.6017   -5.9004   26.9187 C   0  0  0  0  0  0  0  0  0  0  0  0
    2.4761   -6.9940   26.4111 N   0  0  0  0  0  0  0  0  0  0  0  0
    9.1353   -5.4053   27.8239 C   0  0  0  0  0  0  0  0  0  0  0  0
    0.9922   -9.3232   16.5995 O   0  0  0  0  0  0  0  0  0  0  0  0
    1.5232   -7.6869   27.1182 C   0  0  0  0  0  0  0  0  0  0  0  0
    8.6878   -6.6715   27.7262 N   0  0  0  0  0  0  0  0  0  0  0  0
    6.9911   -8.2423   27.1808 C   0  0  0  0  0  0  0  0  0  0  0  0
    3.8436   -7.2758   16.0578 C   0  0  0  0  0  0  0  0  0  0  0  0
    3.1882   -9.7190   17.2566 C   0  0  0  0  0  0  0  0  0  0  0  0
    5.3488   -6.1737   26.5092 C   0  0  0  0  0  0  0  0  0  0  0  0
    7.4567   -6.9464   27.2858 C   0  0  0  0  0  0  0  0  0  0  0  0
    0.1921   -5.7592   27.1123 C   0  0  0  0  0  0  0  0  0  0  0  0
    3.5517   -7.7407   25.9711 C   0  0  0  0  0  0  0  0  0  0  0  0
  1  4  4  0
  1 22  4  0
  2 20  4  0
  2 27  4  0
  3 12  4  0
  3 23  4  0
  4 25  4  0
  4 28  1  0
  5  8  4  0
  5 17  4  0
  6  7  4  0
  6 16  4  0
  7 18  4  0
  8 27  4  0
  9 13  4  0
  9 23  4  0
 10 11  1  0
 11 14  2  0
 11 27  1  0
 12 19  1  0
 12 24  4  0
 13 24  4  0
 15 18  1  0
 16 25  4  0
 16 26  4  0
 17 20  4  0
 17 28  1  0
 18 21  4  0
 21 26  4  0
 22 26  4  0
M  END
$$$$

 Created by Python create_sdf_string function

 28 30  0  0  0  0  0  0  0  0999 V2000
    5.7174   -8.4529   26.7190 C   0  0  0  0  0  0  0  0  0  0  0  0
    0.3974   -7.0711   27.5149 C   0  0  0  0  0  0  0  0  0  0  0  0
    2.5338   -7.6891   16.0102 C   0  0  0  0  0  0  0  0  0  0  0  0
    4.8690   -7.4380   26.4151 C   0  0  0  0  0  0  0  0  0  0  0  0
    2.3021   -5.6726   26.0378 C   0  0  0  0  0  0  0  0  0  0  0  0
    7.0880   -4.6163   27.0010 C   0  0  0  0  0  0  0  0  0  0  0  0
    8.3117   -4.3698   27.4436 C   0  0  0  0  0  0  0  0  0  0  0  0
    1.1339   -5.0515   26.3541 C   0  0  0  0  0  0  0  0  0  0  0  0
    4.8080   -8.0362   16.7101 C   0  0  0  0  0  0  0  0  0  0  0  0
   -1.2173   -3.9294   26.9717 O   0  0  0  0  0  0  0  0  0  0  0  0
   -1.0025   -5.0942   27.4586 C   0  0  0  0  0  0  0  0  0  0  0  0
    2.2474   -8.9123   16.6273 C   0  0  0  0  0  0  0  0  0  0  0  0
    4.4957   -9.2636   17.3041 C   0  0  0  0  0  0  0  0  0  0  0  0
   -1.8070   -5.6086   28.1920 O   0  0  0  0  0  0  0  0  0  0  0  0
   10.4296   -5.1799   28.3140 C   0  0  0  0  0  0  0  0  0  0  0  0
    6.6017   -5.9004   26.9187 C   0  0  0  0  0  0  0  0  0  0  0  0
    2.4761   -6.9940   26.4111 N   0  0  0  0  0  0  0  0  0  0  0  0
    9.1353   -5.4053   27.8239 C   0  0  0  0  0  0  0  0  0  0  0  0
    0.9922   -9.3232   16.5995 O   0  0  0  0  0  0  0  0  0  0  0  0
    1.5232   -7.6869   27.1182 C   0  0  0  0  0  0  0  0  0  0  0  0
    8.6878   -6.6715   27.7262 N   0  0  0  0  0  0  0  0  0  0  0  0
    6.9911   -8.2423   27.1808 C   0  0  0  0  0  0  0  0  0  0  0  0
    3.8436   -7.2758   16.0578 C   0  0  0  0  0  0  0  0  0  0  0  0
    3.1882   -9.7190   17.2566 C   0  0  0  0  0  0  0  0  0  0  0  0
    5.3488   -6.1737   26.5092 C   0  0  0  0  0  0  0  0  0  0  0  0
    7.4567   -6.9464   27.2858 C   0  0  0  0  0  0  0  0  0  0  0  0
    0.1921   -5.7592   27.1123 C   0  0  0  0  0  0  0  0  0  0  0  0
    3.5517   -7.7407   25.9711 C   0  0  0  0  0  0  0  0  0  0  0  0
  1  4  4  0
  1 22  4  0
  2 20  4  0
  2 27  4  0
  3 12  4  0
  3 23  4  0
  4 25  4  0
  4 28  1  0
  5  8  4  0
  5 17  4  0
  6  7  4  0
  6 16  4  0
  7 18  4  0
  8 27  4  0
  9 13  4  0
  9 23  4  0
 10 11  1  0
 11 14  2  0
 11 27  1  0
 12 19  1  0
 12 24  4  0
 13 24  4  0
 15 18  1  0
 16 25  4  0
 16 26  4  0
 17 20  4  0
 17 28  1  0
 18 21  4  0
 21 26  4  0
 22 26  4  0
M  END
$$$$

 Created by Python create_sdf_string function

 28 30  0  0  0  0  0  0  0  0999 V2000
    5.7174   -8.4529   26.7190 C   0  0  0  0  0  0  0  0  0  0  0  0
    0.3974   -7.0711   27.5149 C   0  0  0  0  0  0  0  0  0  0  0  0
    2.5338   -7.6891   16.0102 C   0  0  0  0  0  0  0  0  0  0  0  0
    4.8690   -7.4380   26.4151 C   0  0  0  0  0  0  0  0  0  0  0  0
    2.3021   -5.6726   26.0378 C   0  0  0  0  0  0  0  0  0  0  0  0
    7.0880   -4.6163   27.0010 C   0  0  0  0  0  0  0  0  0  0  0  0
    8.3117   -4.3698   27.4436 C   0  0  0  0  0  0  0  0  0  0  0  0
    1.1339   -5.0515   26.3541 C   0  0  0  0  0  0  0  0  0  0  0  0
    4.8080   -8.0362   16.7101 C   0  0  0  0  0  0  0  0  0  0  0  0
   -1.2173   -3.9294   26.9717 O   0  0  0  0  0  0  0  0  0  0  0  0
   -1.0025   -5.0942   27.4586 C   0  0  0  0  0  0  0  0  0  0  0  0
    2.2474   -8.9123   16.6273 C   0  0  0  0  0  0  0  0  0  0  0  0
    4.4957   -9.2636   17.3041 C   0  0  0  0  0  0  0  0  0  0  0  0
   -1.8070   -5.6086   28.1920 O   0  0  0  0  0  0  0  0  0  0  0  0
   10.4296   -5.1799   28.3140 C   0  0  0  0  0  0  0  0  0  0  0  0
    6.6017   -5.9004   26.9187 C   0  0  0  0  0  0  0  0  0  0  0  0
    2.4761   -6.9940   26.4111 N   0  0  0  0  0  0  0  0  0  0  0  0
    9.1353   -5.4053   27.8239 C   0  0  0  0  0  0  0  0  0  0  0  0
    0.9922   -9.3232   16.5995 O   0  0  0  0  0  0  0  0  0  0  0  0
    1.5232   -7.6869   27.1182 C   0  0  0  0  0  0  0  0  0  0  0  0
    8.6878   -6.6715   27.7262 N   0  0  0  0  0  0  0  0  0  0  0  0
    6.9911   -8.2423   27.1808 C   0  0  0  0  0  0  0  0  0  0  0  0
    3.8436   -7.2758   16.0578 C   0  0  0  0  0  0  0  0  0  0  0  0
    3.1882   -9.7190   17.2566 C   0  0  0  0  0  0  0  0  0  0  0  0
    5.3488   -6.1737   26.5092 C   0  0  0  0  0  0  0  0  0  0  0  0
    7.4567   -6.9464   27.2858 C   0  0  0  0  0  0  0  0  0  0  0  0
    0.1921   -5.7592   27.1123 C   0  0  0  0  0  0  0  0  0  0  0  0
    3.5517   -7.7407   25.9711 C   0  0  0  0  0  0  0  0  0  0  0  0
  1  4  4  0
  1 22  4  0
  2 20  4  0
  2 27  4  0
  3 12  4  0
  3 23  4  0
  4 25  4  0
  4 28  1  0
  5  8  4  0
  5 17  4  0
  6  7  4  0
  6 16  4  0
  7 18  4  0
  8 27  4  0
  9 13  4  0
  9 23  4  0
 10 11  1  0
 11 14  2  0
 11 27  1  0
 12 19  1  0
 12 24  4  0
 13 24  4  0
 15 18  1  0
 16 25  4  0
 16 26  4  0
 17 20  4  0
 17 28  1  0
 18 21  4  0
 21 26  4  0
 22 26  4  0
M  END
$$$$

 Created by Python create_sdf_string function

 28 30  0  0  0  0  0  0  0  0999 V2000
    5.7174   -8.4529   26.7190 C   0  0  0  0  0  0  0  0  0  0  0  0
    0.3974   -7.0711   27.5149 C   0  0  0  0  0  0  0  0  0  0  0  0
    2.5338   -7.6891   16.0102 C   0  0  0  0  0  0  0  0  0  0  0  0
    4.8690   -7.4380   26.4151 C   0  0  0  0  0  0  0  0  0  0  0  0
    2.3021   -5.6726   26.0378 C   0  0  0  0  0  0  0  0  0  0  0  0
    7.0880   -4.6163   27.0010 C   0  0  0  0  0  0  0  0  0  0  0  0
    8.3117   -4.3698   27.4436 C   0  0  0  0  0  0  0  0  0  0  0  0
    1.1339   -5.0515   26.3541 C   0  0  0  0  0  0  0  0  0  0  0  0
    4.8080   -8.0362   16.7101 C   0  0  0  0  0  0  0  0  0  0  0  0
   -1.2173   -3.9294   26.9717 O   0  0  0  0  0  0  0  0  0  0  0  0
   -1.0025   -5.0942   27.4586 C   0  0  0  0  0  0  0  0  0  0  0  0
    2.2474   -8.9123   16.6273 C   0  0  0  0  0  0  0  0  0  0  0  0
    4.4957   -9.2636   17.3041 C   0  0  0  0  0  0  0  0  0  0  0  0
   -1.8070   -5.6086   28.1920 O   0  0  0  0  0  0  0  0  0  0  0  0
   10.4296   -5.1799   28.3140 C   0  0  0  0  0  0  0  0  0  0  0  0
    6.6017   -5.9004   26.9187 C   0  0  0  0  0  0  0  0  0  0  0  0
    2.4761   -6.9940   26.4111 N   0  0  0  0  0  0  0  0  0  0  0  0
    9.1353   -5.4053   27.8239 C   0  0  0  0  0  0  0  0  0  0  0  0
    0.9922   -9.3232   16.5995 O   0  0  0  0  0  0  0  0  0  0  0  0
    1.5232   -7.6869   27.1182 C   0  0  0  0  0  0  0  0  0  0  0  0
    8.6878   -6.6715   27.7262 N   0  0  0  0  0  0  0  0  0  0  0  0
    6.9911   -8.2423   27.1808 C   0  0  0  0  0  0  0  0  0  0  0  0
    3.8436   -7.2758   16.0578 C   0  0  0  0  0  0  0  0  0  0  0  0
    3.1882   -9.7190   17.2566 C   0  0  0  0  0  0  0  0  0  0  0  0
    5.3488   -6.1737   26.5092 C   0  0  0  0  0  0  0  0  0  0  0  0
    7.4567   -6.9464   27.2858 C   0  0  0  0  0  0  0  0  0  0  0  0
    0.1921   -5.7592   27.1123 C   0  0  0  0  0  0  0  0  0  0  0  0
    3.5517   -7.7407   25.9711 C   0  0  0  0  0  0  0  0  0  0  0  0
  1  4  4  0
  1 22  4  0
  2 20  4  0
  2 27  4  0
  3 12  4  0
  3 23  4  0
  4 25  4  0
  4 28  1  0
  5  8  4  0
  5 17  4  0
  6  7  4  0
  6 16  4  0
  7 18  4  0
  8 27  4  0
  9 13  4  0
  9 23  4  0
 10 11  1  0
 11 14  2  0
 11 27  1  0
 12 19  1  0
 12 24  4  0
 13 24  4  0
 15 18  1  0
 16 25  4  0
 16 26  4  0
 17 20  4  0
 17 28  1  0
 18 21  4  0
 21 26  4  0
 22 26  4  0
M  END
$$$$

 Created by Python create_sdf_string function

 28 30  0  0  0  0  0  0  0  0999 V2000
    5.7174   -8.4529   26.7190 C   0  0  0  0  0  0  0  0  0  0  0  0
    0.3974   -7.0711   27.5149 C   0  0  0  0  0  0  0  0  0  0  0  0
    2.5338   -7.6891   16.0102 C   0  0  0  0  0  0  0  0  0  0  0  0
    4.8690   -7.4380   26.4151 C   0  0  0  0  0  0  0  0  0  0  0  0
    2.3021   -5.6726   26.0378 C   0  0  0  0  0  0  0  0  0  0  0  0
    7.0880   -4.6163   27.0010 C   0  0  0  0  0  0  0  0  0  0  0  0
    8.3117   -4.3698   27.4436 C   0  0  0  0  0  0  0  0  0  0  0  0
    1.1339   -5.0515   26.3541 C   0  0  0  0  0  0  0  0  0  0  0  0
    4.8080   -8.0362   16.7101 C   0  0  0  0  0  0  0  0  0  0  0  0
   -1.2173   -3.9294   26.9717 O   0  0  0  0  0  0  0  0  0  0  0  0
   -1.0025   -5.0942   27.4586 C   0  0  0  0  0  0  0  0  0  0  0  0
    2.2474   -8.9123   16.6273 C   0  0  0  0  0  0  0  0  0  0  0  0
    4.4957   -9.2636   17.3041 C   0  0  0  0  0  0  0  0  0  0  0  0
   -1.8070   -5.6086   28.1920 O   0  0  0  0  0  0  0  0  0  0  0  0
   10.4296   -5.1799   28.3140 C   0  0  0  0  0  0  0  0  0  0  0  0
    6.6017   -5.9004   26.9187 C   0  0  0  0  0  0  0  0  0  0  0  0
    2.4761   -6.9940   26.4111 N   0  0  0  0  0  0  0  0  0  0  0  0
    9.1353   -5.4053   27.8239 C   0  0  0  0  0  0  0  0  0  0  0  0
    0.9922   -9.3232   16.5995 O   0  0  0  0  0  0  0  0  0  0  0  0
    1.5232   -7.6869   27.1182 C   0  0  0  0  0  0  0  0  0  0  0  0
    8.6878   -6.6715   27.7262 N   0  0  0  0  0  0  0  0  0  0  0  0
    6.9911   -8.2423   27.1808 C   0  0  0  0  0  0  0  0  0  0  0  0
    3.8436   -7.2758   16.0578 C   0  0  0  0  0  0  0  0  0  0  0  0
    3.1882   -9.7190   17.2566 C   0  0  0  0  0  0  0  0  0  0  0  0
    5.3488   -6.1737   26.5092 C   0  0  0  0  0  0  0  0  0  0  0  0
    7.4567   -6.9464   27.2858 C   0  0  0  0  0  0  0  0  0  0  0  0
    0.1921   -5.7592   27.1123 C   0  0  0  0  0  0  0  0  0  0  0  0
    3.5517   -7.7407   25.9711 C   0  0  0  0  0  0  0  0  0  0  0  0
  1  4  4  0
  1 22  4  0
  2 20  4  0
  2 27  4  0
  3 12  4  0
  3 23  4  0
  4 25  4  0
  4 28  1  0
  5  8  4  0
  5 17  4  0
  6  7  4  0
  6 16  4  0
  7 18  4  0
  8 27  4  0
  9 13  4  0
  9 23  4  0
 10 11  1  0
 11 14  2  0
 11 27  1  0
 12 19  1  0
 12 24  4  0
 13 24  4  0
 15 18  1  0
 16 25  4  0
 16 26  4  0
 17 20  4  0
 17 28  1  0
 18 21  4  0
 21 26  4  0
 22 26  4  0
M  END
$$$$

 Created by Python create_sdf_string function

 28 30  0  0  0  0  0  0  0  0999 V2000
    5.7174   -8.4529   26.7190 C   0  0  0  0  0  0  0  0  0  0  0  0
    0.3974   -7.0711   27.5149 C   0  0  0  0  0  0  0  0  0  0  0  0
    2.5338   -7.6891   16.0102 C   0  0  0  0  0  0  0  0  0  0  0  0
    4.8690   -7.4380   26.4151 C   0  0  0  0  0  0  0  0  0  0  0  0
    2.3021   -5.6726   26.0378 C   0  0  0  0  0  0  0  0  0  0  0  0
    7.0880   -4.6163   27.0010 C   0  0  0  0  0  0  0  0  0  0  0  0
    8.3117   -4.3698   27.4436 C   0  0  0  0  0  0  0  0  0  0  0  0
    1.1339   -5.0515   26.3541 C   0  0  0  0  0  0  0  0  0  0  0  0
    4.8080   -8.0362   16.7101 C   0  0  0  0  0  0  0  0  0  0  0  0
   -1.2173   -3.9294   26.9717 O   0  0  0  0  0  0  0  0  0  0  0  0
   -1.0025   -5.0942   27.4586 C   0  0  0  0  0  0  0  0  0  0  0  0
    2.2474   -8.9123   16.6273 C   0  0  0  0  0  0  0  0  0  0  0  0
    4.4957   -9.2636   17.3041 C   0  0  0  0  0  0  0  0  0  0  0  0
   -1.8070   -5.6086   28.1920 O   0  0  0  0  0  0  0  0  0  0  0  0
   10.4296   -5.1799   28.3140 C   0  0  0  0  0  0  0  0  0  0  0  0
    6.6017   -5.9004   26.9187 C   0  0  0  0  0  0  0  0  0  0  0  0
    2.4761   -6.9940   26.4111 N   0  0  0  0  0  0  0  0  0  0  0  0
    9.1353   -5.4053   27.8239 C   0  0  0  0  0  0  0  0  0  0  0  0
    0.9922   -9.3232   16.5995 O   0  0  0  0  0  0  0  0  0  0  0  0
    1.5232   -7.6869   27.1182 C   0  0  0  0  0  0  0  0  0  0  0  0
    8.6878   -6.6715   27.7262 N   0  0  0  0  0  0  0  0  0  0  0  0
    6.9911   -8.2423   27.1808 C   0  0  0  0  0  0  0  0  0  0  0  0
    3.8436   -7.2758   16.0578 C   0  0  0  0  0  0  0  0  0  0  0  0
    3.1882   -9.7190   17.2566 C   0  0  0  0  0  0  0  0  0  0  0  0
    5.3488   -6.1737   26.5092 C   0  0  0  0  0  0  0  0  0  0  0  0
    7.4567   -6.9464   27.2858 C   0  0  0  0  0  0  0  0  0  0  0  0
    0.1921   -5.7592   27.1123 C   0  0  0  0  0  0  0  0  0  0  0  0
    3.5517   -7.7407   25.9711 C   0  0  0  0  0  0  0  0  0  0  0  0
  1  4  4  0
  1 22  4  0
  2 20  4  0
  2 27  4  0
  3 12  4  0
  3 23  4  0
  4 25  4  0
  4 28  1  0
  5  8  4  0
  5 17  4  0
  6  7  4  0
  6 16  4  0
  7 18  4  0
  8 27  4  0
  9 13  4  0
  9 23  4  0
 10 11  1  0
 11 14  2  0
 11 27  1  0
 12 19  1  0
 12 24  4  0
 13 24  4  0
 15 18  1  0
 16 25  4  0
 16 26  4  0
 17 20  4  0
 17 28  1  0
 18 21  4  0
 21 26  4  0
 22 26  4  0
M  END
$$$$

 Created by Python create_sdf_string function

 28 30  0  0  0  0  0  0  0  0999 V2000
    5.7174   -8.4529   26.7190 C   0  0  0  0  0  0  0  0  0  0  0  0
    0.3974   -7.0711   27.5149 C   0  0  0  0  0  0  0  0  0  0  0  0
    2.5338   -7.6891   16.0102 C   0  0  0  0  0  0  0  0  0  0  0  0
    4.8690   -7.4380   26.4151 C   0  0  0  0  0  0  0  0  0  0  0  0
    2.3021   -5.6726   26.0378 C   0  0  0  0  0  0  0  0  0  0  0  0
    7.0880   -4.6163   27.0010 C   0  0  0  0  0  0  0  0  0  0  0  0
    8.3117   -4.3698   27.4436 C   0  0  0  0  0  0  0  0  0  0  0  0
    1.1339   -5.0515   26.3541 C   0  0  0  0  0  0  0  0  0  0  0  0
    4.8080   -8.0362   16.7101 C   0  0  0  0  0  0  0  0  0  0  0  0
   -1.2173   -3.9294   26.9717 O   0  0  0  0  0  0  0  0  0  0  0  0
   -1.0025   -5.0942   27.4586 C   0  0  0  0  0  0  0  0  0  0  0  0
    2.2474   -8.9123   16.6273 C   0  0  0  0  0  0  0  0  0  0  0  0
    4.4957   -9.2636   17.3041 C   0  0  0  0  0  0  0  0  0  0  0  0
   -1.8070   -5.6086   28.1920 O   0  0  0  0  0  0  0  0  0  0  0  0
   10.4296   -5.1799   28.3140 C   0  0  0  0  0  0  0  0  0  0  0  0
    6.6017   -5.9004   26.9187 C   0  0  0  0  0  0  0  0  0  0  0  0
    2.4761   -6.9940   26.4111 N   0  0  0  0  0  0  0  0  0  0  0  0
    9.1353   -5.4053   27.8239 C   0  0  0  0  0  0  0  0  0  0  0  0
    0.9922   -9.3232   16.5995 O   0  0  0  0  0  0  0  0  0  0  0  0
    1.5232   -7.6869   27.1182 C   0  0  0  0  0  0  0  0  0  0  0  0
    8.6878   -6.6715   27.7262 N   0  0  0  0  0  0  0  0  0  0  0  0
    6.9911   -8.2423   27.1808 C   0  0  0  0  0  0  0  0  0  0  0  0
    3.8436   -7.2758   16.0578 C   0  0  0  0  0  0  0  0  0  0  0  0
    3.1882   -9.7190   17.2566 C   0  0  0  0  0  0  0  0  0  0  0  0
    5.3488   -6.1737   26.5092 C   0  0  0  0  0  0  0  0  0  0  0  0
    7.4567   -6.9464   27.2858 C   0  0  0  0  0  0  0  0  0  0  0  0
    0.1921   -5.7592   27.1123 C   0  0  0  0  0  0  0  0  0  0  0  0
    3.5517   -7.7407   25.9711 C   0  0  0  0  0  0  0  0  0  0  0  0
  1  4  4  0
  1 22  4  0
  2 20  4  0
  2 27  4  0
  3 12  4  0
  3 23  4  0
  4 25  4  0
  4 28  1  0
  5  8  4  0
  5 17  4  0
  6  7  4  0
  6 16  4  0
  7 18  4  0
  8 27  4  0
  9 13  4  0
  9 23  4  0
 10 11  1  0
 11 14  2  0
 11 27  1  0
 12 19  1  0
 12 24  4  0
 13 24  4  0
 15 18  1  0
 16 25  4  0
 16 26  4  0
 17 20  4  0
 17 28  1  0
 18 21  4  0
 21 26  4  0
 22 26  4  0
M  END
$$$$

 Created by Python create_sdf_string function

 28 30  0  0  0  0  0  0  0  0999 V2000
    5.7174   -8.4529   26.7190 C   0  0  0  0  0  0  0  0  0  0  0  0
    0.3974   -7.0711   27.5149 C   0  0  0  0  0  0  0  0  0  0  0  0
    2.5338   -7.6891   16.0102 C   0  0  0  0  0  0  0  0  0  0  0  0
    4.8690   -7.4380   26.4151 C   0  0  0  0  0  0  0  0  0  0  0  0
    2.3021   -5.6726   26.0378 C   0  0  0  0  0  0  0  0  0  0  0  0
    7.0880   -4.6163   27.0010 C   0  0  0  0  0  0  0  0  0  0  0  0
    8.3117   -4.3698   27.4436 C   0  0  0  0  0  0  0  0  0  0  0  0
    1.1339   -5.0515   26.3541 C   0  0  0  0  0  0  0  0  0  0  0  0
    4.8080   -8.0362   16.7101 C   0  0  0  0  0  0  0  0  0  0  0  0
   -1.2173   -3.9294   26.9717 O   0  0  0  0  0  0  0  0  0  0  0  0
   -1.0025   -5.0942   27.4586 C   0  0  0  0  0  0  0  0  0  0  0  0
    2.2474   -8.9123   16.6273 C   0  0  0  0  0  0  0  0  0  0  0  0
    4.4957   -9.2636   17.3041 C   0  0  0  0  0  0  0  0  0  0  0  0
   -1.8070   -5.6086   28.1920 O   0  0  0  0  0  0  0  0  0  0  0  0
   10.4296   -5.1799   28.3140 C   0  0  0  0  0  0  0  0  0  0  0  0
    6.6017   -5.9004   26.9187 C   0  0  0  0  0  0  0  0  0  0  0  0
    2.4761   -6.9940   26.4111 N   0  0  0  0  0  0  0  0  0  0  0  0
    9.1353   -5.4053   27.8239 C   0  0  0  0  0  0  0  0  0  0  0  0
    0.9922   -9.3232   16.5995 O   0  0  0  0  0  0  0  0  0  0  0  0
    1.5232   -7.6869   27.1182 C   0  0  0  0  0  0  0  0  0  0  0  0
    8.6878   -6.6715   27.7262 N   0  0  0  0  0  0  0  0  0  0  0  0
    6.9911   -8.2423   27.1808 C   0  0  0  0  0  0  0  0  0  0  0  0
    3.8436   -7.2758   16.0578 C   0  0  0  0  0  0  0  0  0  0  0  0
    3.1882   -9.7190   17.2566 C   0  0  0  0  0  0  0  0  0  0  0  0
    5.3488   -6.1737   26.5092 C   0  0  0  0  0  0  0  0  0  0  0  0
    7.4567   -6.9464   27.2858 C   0  0  0  0  0  0  0  0  0  0  0  0
    0.1921   -5.7592   27.1123 C   0  0  0  0  0  0  0  0  0  0  0  0
    3.5517   -7.7407   25.9711 C   0  0  0  0  0  0  0  0  0  0  0  0
  1  4  4  0
  1 22  4  0
  2 20  4  0
  2 27  4  0
  3 12  4  0
  3 23  4  0
  4 25  4  0
  4 28  1  0
  5  8  4  0
  5 17  4  0
  6  7  4  0
  6 16  4  0
  7 18  4  0
  8 27  4  0
  9 13  4  0
  9 23  4  0
 10 11  1  0
 11 14  2  0
 11 27  1  0
 12 19  1  0
 12 24  4  0
 13 24  4  0
 15 18  1  0
 16 25  4  0
 16 26  4  0
 17 20  4  0
 17 28  1  0
 18 21  4  0
 21 26  4  0
 22 26  4  0
M  END
$$$$

 Created by Python create_sdf_string function

 28 30  0  0  0  0  0  0  0  0999 V2000
    5.7174   -8.4529   26.7190 C   0  0  0  0  0  0  0  0  0  0  0  0
    0.3974   -7.0711   27.5149 C   0  0  0  0  0  0  0  0  0  0  0  0
    2.5338   -7.6891   16.0102 C   0  0  0  0  0  0  0  0  0  0  0  0
    4.8690   -7.4380   26.4151 C   0  0  0  0  0  0  0  0  0  0  0  0
    2.3021   -5.6726   26.0378 C   0  0  0  0  0  0  0  0  0  0  0  0
    7.0880   -4.6163   27.0010 C   0  0  0  0  0  0  0  0  0  0  0  0
    8.3117   -4.3698   27.4436 C   0  0  0  0  0  0  0  0  0  0  0  0
    1.1339   -5.0515   26.3541 C   0  0  0  0  0  0  0  0  0  0  0  0
    4.8080   -8.0362   16.7101 C   0  0  0  0  0  0  0  0  0  0  0  0
   -1.2173   -3.9294   26.9717 O   0  0  0  0  0  0  0  0  0  0  0  0
   -1.0025   -5.0942   27.4586 C   0  0  0  0  0  0  0  0  0  0  0  0
    2.2474   -8.9123   16.6273 C   0  0  0  0  0  0  0  0  0  0  0  0
    4.4957   -9.2636   17.3041 C   0  0  0  0  0  0  0  0  0  0  0  0
   -1.8070   -5.6086   28.1920 O   0  0  0  0  0  0  0  0  0  0  0  0
   10.4296   -5.1799   28.3140 C   0  0  0  0  0  0  0  0  0  0  0  0
    6.6017   -5.9004   26.9187 C   0  0  0  0  0  0  0  0  0  0  0  0
    2.4761   -6.9940   26.4111 N   0  0  0  0  0  0  0  0  0  0  0  0
    9.1353   -5.4053   27.8239 C   0  0  0  0  0  0  0  0  0  0  0  0
    0.9922   -9.3232   16.5995 O   0  0  0  0  0  0  0  0  0  0  0  0
    1.5232   -7.6869   27.1182 C   0  0  0  0  0  0  0  0  0  0  0  0
    8.6878   -6.6715   27.7262 N   0  0  0  0  0  0  0  0  0  0  0  0
    6.9911   -8.2423   27.1808 C   0  0  0  0  0  0  0  0  0  0  0  0
    3.8436   -7.2758   16.0578 C   0  0  0  0  0  0  0  0  0  0  0  0
    3.1882   -9.7190   17.2566 C   0  0  0  0  0  0  0  0  0  0  0  0
    5.3488   -6.1737   26.5092 C   0  0  0  0  0  0  0  0  0  0  0  0
    7.4567   -6.9464   27.2858 C   0  0  0  0  0  0  0  0  0  0  0  0
    0.1921   -5.7592   27.1123 C   0  0  0  0  0  0  0  0  0  0  0  0
    3.5517   -7.7407   25.9711 C   0  0  0  0  0  0  0  0  0  0  0  0
  1  4  4  0
  1 22  4  0
  2 20  4  0
  2 27  4  0
  3 12  4  0
  3 23  4  0
  4 25  4  0
  4 28  1  0
  5  8  4  0
  5 17  4  0
  6  7  4  0
  6 16  4  0
  7 18  4  0
  8 27  4  0
  9 13  4  0
  9 23  4  0
 10 11  1  0
 11 14  2  0
 11 27  1  0
 12 19  1  0
 12 24  4  0
 13 24  4  0
 15 18  1  0
 16 25  4  0
 16 26  4  0
 17 20  4  0
 17 28  1  0
 18 21  4  0
 21 26  4  0
 22 26  4  0
M  END
$$$$

 Created by Python create_sdf_string function

 28 30  0  0  0  0  0  0  0  0999 V2000
    5.7174   -8.4529   26.7190 C   0  0  0  0  0  0  0  0  0  0  0  0
    0.3974   -7.0711   27.5149 C   0  0  0  0  0  0  0  0  0  0  0  0
    2.5338   -7.6891   16.0102 C   0  0  0  0  0  0  0  0  0  0  0  0
    4.8690   -7.4380   26.4151 C   0  0  0  0  0  0  0  0  0  0  0  0
    2.3021   -5.6726   26.0378 C   0  0  0  0  0  0  0  0  0  0  0  0
    7.0880   -4.6163   27.0010 C   0  0  0  0  0  0  0  0  0  0  0  0
    8.3117   -4.3698   27.4436 C   0  0  0  0  0  0  0  0  0  0  0  0
    1.1339   -5.0515   26.3541 C   0  0  0  0  0  0  0  0  0  0  0  0
    4.8080   -8.0362   16.7101 C   0  0  0  0  0  0  0  0  0  0  0  0
   -1.2173   -3.9294   26.9717 O   0  0  0  0  0  0  0  0  0  0  0  0
   -1.0025   -5.0942   27.4586 C   0  0  0  0  0  0  0  0  0  0  0  0
    2.2474   -8.9123   16.6273 C   0  0  0  0  0  0  0  0  0  0  0  0
    4.4957   -9.2636   17.3041 C   0  0  0  0  0  0  0  0  0  0  0  0
   -1.8070   -5.6086   28.1920 O   0  0  0  0  0  0  0  0  0  0  0  0
   10.4296   -5.1799   28.3140 C   0  0  0  0  0  0  0  0  0  0  0  0
    6.6017   -5.9004   26.9187 C   0  0  0  0  0  0  0  0  0  0  0  0
    2.4761   -6.9940   26.4111 N   0  0  0  0  0  0  0  0  0  0  0  0
    9.1353   -5.4053   27.8239 C   0  0  0  0  0  0  0  0  0  0  0  0
    0.9922   -9.3232   16.5995 O   0  0  0  0  0  0  0  0  0  0  0  0
    1.5232   -7.6869   27.1182 C   0  0  0  0  0  0  0  0  0  0  0  0
    8.6878   -6.6715   27.7262 N   0  0  0  0  0  0  0  0  0  0  0  0
    6.9911   -8.2423   27.1808 C   0  0  0  0  0  0  0  0  0  0  0  0
    3.8436   -7.2758   16.0578 C   0  0  0  0  0  0  0  0  0  0  0  0
    3.1882   -9.7190   17.2566 C   0  0  0  0  0  0  0  0  0  0  0  0
    5.3488   -6.1737   26.5092 C   0  0  0  0  0  0  0  0  0  0  0  0
    7.4567   -6.9464   27.2858 C   0  0  0  0  0  0  0  0  0  0  0  0
    0.1921   -5.7592   27.1123 C   0  0  0  0  0  0  0  0  0  0  0  0
    3.5517   -7.7407   25.9711 C   0  0  0  0  0  0  0  0  0  0  0  0
  1  4  4  0
  1 22  4  0
  2 20  4  0
  2 27  4  0
  3 12  4  0
  3 23  4  0
  4 25  4  0
  4 28  1  0
  5  8  4  0
  5 17  4  0
  6  7  4  0
  6 16  4  0
  7 18  4  0
  8 27  4  0
  9 13  4  0
  9 23  4  0
 10 11  1  0
 11 14  2  0
 11 27  1  0
 12 19  1  0
 12 24  4  0
 13 24  4  0
 15 18  1  0
 16 25  4  0
 16 26  4  0
 17 20  4  0
 17 28  1  0
 18 21  4  0
 21 26  4  0
 22 26  4  0
M  END
$$$$

 Created by Python create_sdf_string function

 28 30  0  0  0  0  0  0  0  0999 V2000
    5.7174   -8.4529   26.7190 C   0  0  0  0  0  0  0  0  0  0  0  0
    0.3974   -7.0711   27.5149 C   0  0  0  0  0  0  0  0  0  0  0  0
    2.5338   -7.6891   16.0102 C   0  0  0  0  0  0  0  0  0  0  0  0
    4.8690   -7.4380   26.4151 C   0  0  0  0  0  0  0  0  0  0  0  0
    2.3021   -5.6726   26.0378 C   0  0  0  0  0  0  0  0  0  0  0  0
    7.0880   -4.6163   27.0010 C   0  0  0  0  0  0  0  0  0  0  0  0
    8.3117   -4.3698   27.4436 C   0  0  0  0  0  0  0  0  0  0  0  0
    1.1339   -5.0515   26.3541 C   0  0  0  0  0  0  0  0  0  0  0  0
    4.8080   -8.0362   16.7101 C   0  0  0  0  0  0  0  0  0  0  0  0
   -1.2173   -3.9294   26.9717 O   0  0  0  0  0  0  0  0  0  0  0  0
   -1.0025   -5.0942   27.4586 C   0  0  0  0  0  0  0  0  0  0  0  0
    2.2474   -8.9123   16.6273 C   0  0  0  0  0  0  0  0  0  0  0  0
    4.4957   -9.2636   17.3041 C   0  0  0  0  0  0  0  0  0  0  0  0
   -1.8070   -5.6086   28.1920 O   0  0  0  0  0  0  0  0  0  0  0  0
   10.4296   -5.1799   28.3140 C   0  0  0  0  0  0  0  0  0  0  0  0
    6.6017   -5.9004   26.9187 C   0  0  0  0  0  0  0  0  0  0  0  0
    2.4761   -6.9940   26.4111 N   0  0  0  0  0  0  0  0  0  0  0  0
    9.1353   -5.4053   27.8239 C   0  0  0  0  0  0  0  0  0  0  0  0
    0.9922   -9.3232   16.5995 O   0  0  0  0  0  0  0  0  0  0  0  0
    1.5232   -7.6869   27.1182 C   0  0  0  0  0  0  0  0  0  0  0  0
    8.6878   -6.6715   27.7262 N   0  0  0  0  0  0  0  0  0  0  0  0
    6.9911   -8.2423   27.1808 C   0  0  0  0  0  0  0  0  0  0  0  0
    3.8436   -7.2758   16.0578 C   0  0  0  0  0  0  0  0  0  0  0  0
    3.1882   -9.7190   17.2566 C   0  0  0  0  0  0  0  0  0  0  0  0
    5.3488   -6.1737   26.5092 C   0  0  0  0  0  0  0  0  0  0  0  0
    7.4567   -6.9464   27.2858 C   0  0  0  0  0  0  0  0  0  0  0  0
    0.1921   -5.7592   27.1123 C   0  0  0  0  0  0  0  0  0  0  0  0
    3.5517   -7.7407   25.9711 C   0  0  0  0  0  0  0  0  0  0  0  0
  1  4  4  0
  1 22  4  0
  2 20  4  0
  2 27  4  0
  3 12  4  0
  3 23  4  0
  4 25  4  0
  4 28  1  0
  5  8  4  0
  5 17  4  0
  6  7  4  0
  6 16  4  0
  7 18  4  0
  8 27  4  0
  9 13  4  0
  9 23  4  0
 10 11  1  0
 11 14  2  0
 11 27  1  0
 12 19  1  0
 12 24  4  0
 13 24  4  0
 15 18  1  0
 16 25  4  0
 16 26  4  0
 17 20  4  0
 17 28  1  0
 18 21  4  0
 21 26  4  0
 22 26  4  0
M  END
$$$$

 Created by Python create_sdf_string function

 28 30  0  0  0  0  0  0  0  0999 V2000
    5.7174   -8.4529   26.7190 C   0  0  0  0  0  0  0  0  0  0  0  0
    0.3974   -7.0711   27.5149 C   0  0  0  0  0  0  0  0  0  0  0  0
    2.5338   -7.6891   16.0102 C   0  0  0  0  0  0  0  0  0  0  0  0
    4.8690   -7.4380   26.4151 C   0  0  0  0  0  0  0  0  0  0  0  0
    2.3021   -5.6726   26.0378 C   0  0  0  0  0  0  0  0  0  0  0  0
    7.0880   -4.6163   27.0010 C   0  0  0  0  0  0  0  0  0  0  0  0
    8.3117   -4.3698   27.4436 C   0  0  0  0  0  0  0  0  0  0  0  0
    1.1339   -5.0515   26.3541 C   0  0  0  0  0  0  0  0  0  0  0  0
    4.8080   -8.0362   16.7101 C   0  0  0  0  0  0  0  0  0  0  0  0
   -1.2173   -3.9294   26.9717 O   0  0  0  0  0  0  0  0  0  0  0  0
   -1.0025   -5.0942   27.4586 C   0  0  0  0  0  0  0  0  0  0  0  0
    2.2474   -8.9123   16.6273 C   0  0  0  0  0  0  0  0  0  0  0  0
    4.4957   -9.2636   17.3041 C   0  0  0  0  0  0  0  0  0  0  0  0
   -1.8070   -5.6086   28.1920 O   0  0  0  0  0  0  0  0  0  0  0  0
   10.4296   -5.1799   28.3140 C   0  0  0  0  0  0  0  0  0  0  0  0
    6.6017   -5.9004   26.9187 C   0  0  0  0  0  0  0  0  0  0  0  0
    2.4761   -6.9940   26.4111 N   0  0  0  0  0  0  0  0  0  0  0  0
    9.1353   -5.4053   27.8239 C   0  0  0  0  0  0  0  0  0  0  0  0
    0.9922   -9.3232   16.5995 O   0  0  0  0  0  0  0  0  0  0  0  0
    1.5232   -7.6869   27.1182 C   0  0  0  0  0  0  0  0  0  0  0  0
    8.6878   -6.6715   27.7262 N   0  0  0  0  0  0  0  0  0  0  0  0
    6.9911   -8.2423   27.1808 C   0  0  0  0  0  0  0  0  0  0  0  0
    3.8436   -7.2758   16.0578 C   0  0  0  0  0  0  0  0  0  0  0  0
    3.1882   -9.7190   17.2566 C   0  0  0  0  0  0  0  0  0  0  0  0
    5.3488   -6.1737   26.5092 C   0  0  0  0  0  0  0  0  0  0  0  0
    7.4567   -6.9464   27.2858 C   0  0  0  0  0  0  0  0  0  0  0  0
    0.1921   -5.7592   27.1123 C   0  0  0  0  0  0  0  0  0  0  0  0
    3.5517   -7.7407   25.9711 C   0  0  0  0  0  0  0  0  0  0  0  0
  1  4  4  0
  1 22  4  0
  2 20  4  0
  2 27  4  0
  3 12  4  0
  3 23  4  0
  4 25  4  0
  4 28  1  0
  5  8  4  0
  5 17  4  0
  6  7  4  0
  6 16  4  0
  7 18  4  0
  8 27  4  0
  9 13  4  0
  9 23  4  0
 10 11  1  0
 11 14  2  0
 11 27  1  0
 12 19  1  0
 12 24  4  0
 13 24  4  0
 15 18  1  0
 16 25  4  0
 16 26  4  0
 17 20  4  0
 17 28  1  0
 18 21  4  0
 21 26  4  0
 22 26  4  0
M  END
$$$$

 Created by Python create_sdf_string function

 28 30  0  0  0  0  0  0  0  0999 V2000
    5.7174   -8.4529   26.7190 C   0  0  0  0  0  0  0  0  0  0  0  0
    0.3974   -7.0711   27.5149 C   0  0  0  0  0  0  0  0  0  0  0  0
    2.5338   -7.6891   16.0102 C   0  0  0  0  0  0  0  0  0  0  0  0
    4.8690   -7.4380   26.4151 C   0  0  0  0  0  0  0  0  0  0  0  0
    2.3021   -5.6726   26.0378 C   0  0  0  0  0  0  0  0  0  0  0  0
    7.0880   -4.6163   27.0010 C   0  0  0  0  0  0  0  0  0  0  0  0
    8.3117   -4.3698   27.4436 C   0  0  0  0  0  0  0  0  0  0  0  0
    1.1339   -5.0515   26.3541 C   0  0  0  0  0  0  0  0  0  0  0  0
    4.8080   -8.0362   16.7101 C   0  0  0  0  0  0  0  0  0  0  0  0
   -1.2173   -3.9294   26.9717 O   0  0  0  0  0  0  0  0  0  0  0  0
   -1.0025   -5.0942   27.4586 C   0  0  0  0  0  0  0  0  0  0  0  0
    2.2474   -8.9123   16.6273 C   0  0  0  0  0  0  0  0  0  0  0  0
    4.4957   -9.2636   17.3041 C   0  0  0  0  0  0  0  0  0  0  0  0
   -1.8070   -5.6086   28.1920 O   0  0  0  0  0  0  0  0  0  0  0  0
   10.4296   -5.1799   28.3140 C   0  0  0  0  0  0  0  0  0  0  0  0
    6.6017   -5.9004   26.9187 C   0  0  0  0  0  0  0  0  0  0  0  0
    2.4761   -6.9940   26.4111 N   0  0  0  0  0  0  0  0  0  0  0  0
    9.1353   -5.4053   27.8239 C   0  0  0  0  0  0  0  0  0  0  0  0
    0.9922   -9.3232   16.5995 O   0  0  0  0  0  0  0  0  0  0  0  0
    1.5232   -7.6869   27.1182 C   0  0  0  0  0  0  0  0  0  0  0  0
    8.6878   -6.6715   27.7262 N   0  0  0  0  0  0  0  0  0  0  0  0
    6.9911   -8.2423   27.1808 C   0  0  0  0  0  0  0  0  0  0  0  0
    3.8436   -7.2758   16.0578 C   0  0  0  0  0  0  0  0  0  0  0  0
    3.1882   -9.7190   17.2566 C   0  0  0  0  0  0  0  0  0  0  0  0
    5.3488   -6.1737   26.5092 C   0  0  0  0  0  0  0  0  0  0  0  0
    7.4567   -6.9464   27.2858 C   0  0  0  0  0  0  0  0  0  0  0  0
    0.1921   -5.7592   27.1123 C   0  0  0  0  0  0  0  0  0  0  0  0
    3.5517   -7.7407   25.9711 C   0  0  0  0  0  0  0  0  0  0  0  0
  1  4  4  0
  1 22  4  0
  2 20  4  0
  2 27  4  0
  3 12  4  0
  3 23  4  0
  4 25  4  0
  4 28  1  0
  5  8  4  0
  5 17  4  0
  6  7  4  0
  6 16  4  0
  7 18  4  0
  8 27  4  0
  9 13  4  0
  9 23  4  0
 10 11  1  0
 11 14  2  0
 11 27  1  0
 12 19  1  0
 12 24  4  0
 13 24  4  0
 15 18  1  0
 16 25  4  0
 16 26  4  0
 17 20  4  0
 17 28  1  0
 18 21  4  0
 21 26  4  0
 22 26  4  0
M  END
$$$$

 Created by Python create_sdf_string function

 28 30  0  0  0  0  0  0  0  0999 V2000
    5.7174   -8.4529   26.7190 C   0  0  0  0  0  0  0  0  0  0  0  0
    0.3974   -7.0711   27.5149 C   0  0  0  0  0  0  0  0  0  0  0  0
    2.5338   -7.6891   16.0102 C   0  0  0  0  0  0  0  0  0  0  0  0
    4.8690   -7.4380   26.4151 C   0  0  0  0  0  0  0  0  0  0  0  0
    2.3021   -5.6726   26.0378 C   0  0  0  0  0  0  0  0  0  0  0  0
    7.0880   -4.6163   27.0010 C   0  0  0  0  0  0  0  0  0  0  0  0
    8.3117   -4.3698   27.4436 C   0  0  0  0  0  0  0  0  0  0  0  0
    1.1339   -5.0515   26.3541 C   0  0  0  0  0  0  0  0  0  0  0  0
    4.8080   -8.0362   16.7101 C   0  0  0  0  0  0  0  0  0  0  0  0
   -1.2173   -3.9294   26.9717 O   0  0  0  0  0  0  0  0  0  0  0  0
   -1.0025   -5.0942   27.4586 C   0  0  0  0  0  0  0  0  0  0  0  0
    2.2474   -8.9123   16.6273 C   0  0  0  0  0  0  0  0  0  0  0  0
    4.4957   -9.2636   17.3041 C   0  0  0  0  0  0  0  0  0  0  0  0
   -1.8070   -5.6086   28.1920 O   0  0  0  0  0  0  0  0  0  0  0  0
   10.4296   -5.1799   28.3140 C   0  0  0  0  0  0  0  0  0  0  0  0
    6.6017   -5.9004   26.9187 C   0  0  0  0  0  0  0  0  0  0  0  0
    2.4761   -6.9940   26.4111 N   0  0  0  0  0  0  0  0  0  0  0  0
    9.1353   -5.4053   27.8239 C   0  0  0  0  0  0  0  0  0  0  0  0
    0.9922   -9.3232   16.5995 O   0  0  0  0  0  0  0  0  0  0  0  0
    1.5232   -7.6869   27.1182 C   0  0  0  0  0  0  0  0  0  0  0  0
    8.6878   -6.6715   27.7262 N   0  0  0  0  0  0  0  0  0  0  0  0
    6.9911   -8.2423   27.1808 C   0  0  0  0  0  0  0  0  0  0  0  0
    3.8436   -7.2758   16.0578 C   0  0  0  0  0  0  0  0  0  0  0  0
    3.1882   -9.7190   17.2566 C   0  0  0  0  0  0  0  0  0  0  0  0
    5.3488   -6.1737   26.5092 C   0  0  0  0  0  0  0  0  0  0  0  0
    7.4567   -6.9464   27.2858 C   0  0  0  0  0  0  0  0  0  0  0  0
    0.1921   -5.7592   27.1123 C   0  0  0  0  0  0  0  0  0  0  0  0
    3.5517   -7.7407   25.9711 C   0  0  0  0  0  0  0  0  0  0  0  0
  1  4  4  0
  1 22  4  0
  2 20  4  0
  2 27  4  0
  3 12  4  0
  3 23  4  0
  4 25  4  0
  4 28  1  0
  5  8  4  0
  5 17  4  0
  6  7  4  0
  6 16  4  0
  7 18  4  0
  8 27  4  0
  9 13  4  0
  9 23  4  0
 10 11  1  0
 11 14  2  0
 11 27  1  0
 12 19  1  0
 12 24  4  0
 13 24  4  0
 15 18  1  0
 16 25  4  0
 16 26  4  0
 17 20  4  0
 17 28  1  0
 18 21  4  0
 21 26  4  0
 22 26  4  0
M  END
$$$$

 Created by Python create_sdf_string function

 28 30  0  0  0  0  0  0  0  0999 V2000
    5.7174   -8.4529   26.7190 C   0  0  0  0  0  0  0  0  0  0  0  0
    0.3974   -7.0711   27.5149 C   0  0  0  0  0  0  0  0  0  0  0  0
    2.5338   -7.6891   16.0102 C   0  0  0  0  0  0  0  0  0  0  0  0
    4.8690   -7.4380   26.4151 C   0  0  0  0  0  0  0  0  0  0  0  0
    2.3021   -5.6726   26.0378 C   0  0  0  0  0  0  0  0  0  0  0  0
    7.0880   -4.6163   27.0010 C   0  0  0  0  0  0  0  0  0  0  0  0
    8.3117   -4.3698   27.4436 C   0  0  0  0  0  0  0  0  0  0  0  0
    1.1339   -5.0515   26.3541 C   0  0  0  0  0  0  0  0  0  0  0  0
    4.8080   -8.0362   16.7101 C   0  0  0  0  0  0  0  0  0  0  0  0
   -1.2173   -3.9294   26.9717 O   0  0  0  0  0  0  0  0  0  0  0  0
   -1.0025   -5.0942   27.4586 C   0  0  0  0  0  0  0  0  0  0  0  0
    2.2474   -8.9123   16.6273 C   0  0  0  0  0  0  0  0  0  0  0  0
    4.4957   -9.2636   17.3041 C   0  0  0  0  0  0  0  0  0  0  0  0
   -1.8070   -5.6086   28.1920 O   0  0  0  0  0  0  0  0  0  0  0  0
   10.4296   -5.1799   28.3140 C   0  0  0  0  0  0  0  0  0  0  0  0
    6.6017   -5.9004   26.9187 C   0  0  0  0  0  0  0  0  0  0  0  0
    2.4761   -6.9940   26.4111 N   0  0  0  0  0  0  0  0  0  0  0  0
    9.1353   -5.4053   27.8239 C   0  0  0  0  0  0  0  0  0  0  0  0
    0.9922   -9.3232   16.5995 O   0  0  0  0  0  0  0  0  0  0  0  0
    1.5232   -7.6869   27.1182 C   0  0  0  0  0  0  0  0  0  0  0  0
    8.6878   -6.6715   27.7262 N   0  0  0  0  0  0  0  0  0  0  0  0
    6.9911   -8.2423   27.1808 C   0  0  0  0  0  0  0  0  0  0  0  0
    3.8436   -7.2758   16.0578 C   0  0  0  0  0  0  0  0  0  0  0  0
    3.1882   -9.7190   17.2566 C   0  0  0  0  0  0  0  0  0  0  0  0
    5.3488   -6.1737   26.5092 C   0  0  0  0  0  0  0  0  0  0  0  0
    7.4567   -6.9464   27.2858 C   0  0  0  0  0  0  0  0  0  0  0  0
    0.1921   -5.7592   27.1123 C   0  0  0  0  0  0  0  0  0  0  0  0
    3.5517   -7.7407   25.9711 C   0  0  0  0  0  0  0  0  0  0  0  0
  1  4  4  0
  1 22  4  0
  2 20  4  0
  2 27  4  0
  3 12  4  0
  3 23  4  0
  4 25  4  0
  4 28  1  0
  5  8  4  0
  5 17  4  0
  6  7  4  0
  6 16  4  0
  7 18  4  0
  8 27  4  0
  9 13  4  0
  9 23  4  0
 10 11  1  0
 11 14  2  0
 11 27  1  0
 12 19  1  0
 12 24  4  0
 13 24  4  0
 15 18  1  0
 16 25  4  0
 16 26  4  0
 17 20  4  0
 17 28  1  0
 18 21  4  0
 21 26  4  0
 22 26  4  0
M  END
$$$$

 Created by Python create_sdf_string function

 28 30  0  0  0  0  0  0  0  0999 V2000
    5.7174   -8.4529   26.7190 C   0  0  0  0  0  0  0  0  0  0  0  0
    0.3974   -7.0711   27.5149 C   0  0  0  0  0  0  0  0  0  0  0  0
    2.5338   -7.6891   16.0102 C   0  0  0  0  0  0  0  0  0  0  0  0
    4.8690   -7.4380   26.4151 C   0  0  0  0  0  0  0  0  0  0  0  0
    2.3021   -5.6726   26.0378 C   0  0  0  0  0  0  0  0  0  0  0  0
    7.0880   -4.6163   27.0010 C   0  0  0  0  0  0  0  0  0  0  0  0
    8.3117   -4.3698   27.4436 C   0  0  0  0  0  0  0  0  0  0  0  0
    1.1339   -5.0515   26.3541 C   0  0  0  0  0  0  0  0  0  0  0  0
    4.8080   -8.0362   16.7101 C   0  0  0  0  0  0  0  0  0  0  0  0
   -1.2173   -3.9294   26.9717 O   0  0  0  0  0  0  0  0  0  0  0  0
   -1.0025   -5.0942   27.4586 C   0  0  0  0  0  0  0  0  0  0  0  0
    2.2474   -8.9123   16.6273 C   0  0  0  0  0  0  0  0  0  0  0  0
    4.4957   -9.2636   17.3041 C   0  0  0  0  0  0  0  0  0  0  0  0
   -1.8070   -5.6086   28.1920 O   0  0  0  0  0  0  0  0  0  0  0  0
   10.4296   -5.1799   28.3140 C   0  0  0  0  0  0  0  0  0  0  0  0
    6.6017   -5.9004   26.9187 C   0  0  0  0  0  0  0  0  0  0  0  0
    2.4761   -6.9940   26.4111 N   0  0  0  0  0  0  0  0  0  0  0  0
    9.1353   -5.4053   27.8239 C   0  0  0  0  0  0  0  0  0  0  0  0
    0.9922   -9.3232   16.5995 O   0  0  0  0  0  0  0  0  0  0  0  0
    1.5232   -7.6869   27.1182 C   0  0  0  0  0  0  0  0  0  0  0  0
    8.6878   -6.6715   27.7262 N   0  0  0  0  0  0  0  0  0  0  0  0
    6.9911   -8.2423   27.1808 C   0  0  0  0  0  0  0  0  0  0  0  0
    3.8436   -7.2758   16.0578 C   0  0  0  0  0  0  0  0  0  0  0  0
    3.1882   -9.7190   17.2566 C   0  0  0  0  0  0  0  0  0  0  0  0
    5.3488   -6.1737   26.5092 C   0  0  0  0  0  0  0  0  0  0  0  0
    7.4567   -6.9464   27.2858 C   0  0  0  0  0  0  0  0  0  0  0  0
    0.1921   -5.7592   27.1123 C   0  0  0  0  0  0  0  0  0  0  0  0
    3.5517   -7.7407   25.9711 C   0  0  0  0  0  0  0  0  0  0  0  0
  1  4  4  0
  1 22  4  0
  2 20  4  0
  2 27  4  0
  3 12  4  0
  3 23  4  0
  4 25  4  0
  4 28  1  0
  5  8  4  0
  5 17  4  0
  6  7  4  0
  6 16  4  0
  7 18  4  0
  8 27  4  0
  9 13  4  0
  9 23  4  0
 10 11  1  0
 11 14  2  0
 11 27  1  0
 12 19  1  0
 12 24  4  0
 13 24  4  0
 15 18  1  0
 16 25  4  0
 16 26  4  0
 17 20  4  0
 17 28  1  0
 18 21  4  0
 21 26  4  0
 22 26  4  0
M  END
$$$$

 Created by Python create_sdf_string function

 28 30  0  0  0  0  0  0  0  0999 V2000
    5.7174   -8.4529   26.7190 C   0  0  0  0  0  0  0  0  0  0  0  0
    0.3974   -7.0711   27.5149 C   0  0  0  0  0  0  0  0  0  0  0  0
    2.5338   -7.6891   16.0102 C   0  0  0  0  0  0  0  0  0  0  0  0
    4.8690   -7.4380   26.4151 C   0  0  0  0  0  0  0  0  0  0  0  0
    2.3021   -5.6726   26.0378 C   0  0  0  0  0  0  0  0  0  0  0  0
    7.0880   -4.6163   27.0010 C   0  0  0  0  0  0  0  0  0  0  0  0
    8.3117   -4.3698   27.4436 C   0  0  0  0  0  0  0  0  0  0  0  0
    1.1339   -5.0515   26.3541 C   0  0  0  0  0  0  0  0  0  0  0  0
    4.8080   -8.0362   16.7101 C   0  0  0  0  0  0  0  0  0  0  0  0
   -1.2173   -3.9294   26.9717 O   0  0  0  0  0  0  0  0  0  0  0  0
   -1.0025   -5.0942   27.4586 C   0  0  0  0  0  0  0  0  0  0  0  0
    2.2474   -8.9123   16.6273 C   0  0  0  0  0  0  0  0  0  0  0  0
    4.4957   -9.2636   17.3041 C   0  0  0  0  0  0  0  0  0  0  0  0
   -1.8070   -5.6086   28.1920 O   0  0  0  0  0  0  0  0  0  0  0  0
   10.4296   -5.1799   28.3140 C   0  0  0  0  0  0  0  0  0  0  0  0
    6.6017   -5.9004   26.9187 C   0  0  0  0  0  0  0  0  0  0  0  0
    2.4761   -6.9940   26.4111 N   0  0  0  0  0  0  0  0  0  0  0  0
    9.1353   -5.4053   27.8239 C   0  0  0  0  0  0  0  0  0  0  0  0
    0.9922   -9.3232   16.5995 O   0  0  0  0  0  0  0  0  0  0  0  0
    1.5232   -7.6869   27.1182 C   0  0  0  0  0  0  0  0  0  0  0  0
    8.6878   -6.6715   27.7262 N   0  0  0  0  0  0  0  0  0  0  0  0
    6.9911   -8.2423   27.1808 C   0  0  0  0  0  0  0  0  0  0  0  0
    3.8436   -7.2758   16.0578 C   0  0  0  0  0  0  0  0  0  0  0  0
    3.1882   -9.7190   17.2566 C   0  0  0  0  0  0  0  0  0  0  0  0
    5.3488   -6.1737   26.5092 C   0  0  0  0  0  0  0  0  0  0  0  0
    7.4567   -6.9464   27.2858 C   0  0  0  0  0  0  0  0  0  0  0  0
    0.1921   -5.7592   27.1123 C   0  0  0  0  0  0  0  0  0  0  0  0
    3.5517   -7.7407   25.9711 C   0  0  0  0  0  0  0  0  0  0  0  0
  1  4  4  0
  1 22  4  0
  2 20  4  0
  2 27  4  0
  3 12  4  0
  3 23  4  0
  4 25  4  0
  4 28  1  0
  5  8  4  0
  5 17  4  0
  6  7  4  0
  6 16  4  0
  7 18  4  0
  8 27  4  0
  9 13  4  0
  9 23  4  0
 10 11  1  0
 11 14  2  0
 11 27  1  0
 12 19  1  0
 12 24  4  0
 13 24  4  0
 15 18  1  0
 16 25  4  0
 16 26  4  0
 17 20  4  0
 17 28  1  0
 18 21  4  0
 21 26  4  0
 22 26  4  0
M  END
$$$$

 Created by Python create_sdf_string function

 28 30  0  0  0  0  0  0  0  0999 V2000
    5.7174   -8.4529   26.7190 C   0  0  0  0  0  0  0  0  0  0  0  0
    0.3974   -7.0711   27.5149 C   0  0  0  0  0  0  0  0  0  0  0  0
    2.5338   -7.6891   16.0102 C   0  0  0  0  0  0  0  0  0  0  0  0
    4.8690   -7.4380   26.4151 C   0  0  0  0  0  0  0  0  0  0  0  0
    2.3021   -5.6726   26.0378 C   0  0  0  0  0  0  0  0  0  0  0  0
    7.0880   -4.6163   27.0010 C   0  0  0  0  0  0  0  0  0  0  0  0
    8.3117   -4.3698   27.4436 C   0  0  0  0  0  0  0  0  0  0  0  0
    1.1339   -5.0515   26.3541 C   0  0  0  0  0  0  0  0  0  0  0  0
    4.8080   -8.0362   16.7101 C   0  0  0  0  0  0  0  0  0  0  0  0
   -1.2173   -3.9294   26.9717 O   0  0  0  0  0  0  0  0  0  0  0  0
   -1.0025   -5.0942   27.4586 C   0  0  0  0  0  0  0  0  0  0  0  0
    2.2474   -8.9123   16.6273 C   0  0  0  0  0  0  0  0  0  0  0  0
    4.4957   -9.2636   17.3041 C   0  0  0  0  0  0  0  0  0  0  0  0
   -1.8070   -5.6086   28.1920 O   0  0  0  0  0  0  0  0  0  0  0  0
   10.4296   -5.1799   28.3140 C   0  0  0  0  0  0  0  0  0  0  0  0
    6.6017   -5.9004   26.9187 C   0  0  0  0  0  0  0  0  0  0  0  0
    2.4761   -6.9940   26.4111 N   0  0  0  0  0  0  0  0  0  0  0  0
    9.1353   -5.4053   27.8239 C   0  0  0  0  0  0  0  0  0  0  0  0
    0.9922   -9.3232   16.5995 O   0  0  0  0  0  0  0  0  0  0  0  0
    1.5232   -7.6869   27.1182 C   0  0  0  0  0  0  0  0  0  0  0  0
    8.6878   -6.6715   27.7262 N   0  0  0  0  0  0  0  0  0  0  0  0
    6.9911   -8.2423   27.1808 C   0  0  0  0  0  0  0  0  0  0  0  0
    3.8436   -7.2758   16.0578 C   0  0  0  0  0  0  0  0  0  0  0  0
    3.1882   -9.7190   17.2566 C   0  0  0  0  0  0  0  0  0  0  0  0
    5.3488   -6.1737   26.5092 C   0  0  0  0  0  0  0  0  0  0  0  0
    7.4567   -6.9464   27.2858 C   0  0  0  0  0  0  0  0  0  0  0  0
    0.1921   -5.7592   27.1123 C   0  0  0  0  0  0  0  0  0  0  0  0
    3.5517   -7.7407   25.9711 C   0  0  0  0  0  0  0  0  0  0  0  0
  1  4  4  0
  1 22  4  0
  2 20  4  0
  2 27  4  0
  3 12  4  0
  3 23  4  0
  4 25  4  0
  4 28  1  0
  5  8  4  0
  5 17  4  0
  6  7  4  0
  6 16  4  0
  7 18  4  0
  8 27  4  0
  9 13  4  0
  9 23  4  0
 10 11  1  0
 11 14  2  0
 11 27  1  0
 12 19  1  0
 12 24  4  0
 13 24  4  0
 15 18  1  0
 16 25  4  0
 16 26  4  0
 17 20  4  0
 17 28  1  0
 18 21  4  0
 21 26  4  0
 22 26  4  0
M  END
$$$$

 Created by Python create_sdf_string function

 28 30  0  0  0  0  0  0  0  0999 V2000
    5.7174   -8.4529   26.7190 C   0  0  0  0  0  0  0  0  0  0  0  0
    0.3974   -7.0711   27.5149 C   0  0  0  0  0  0  0  0  0  0  0  0
    2.5338   -7.6891   16.0102 C   0  0  0  0  0  0  0  0  0  0  0  0
    4.8690   -7.4380   26.4151 C   0  0  0  0  0  0  0  0  0  0  0  0
    2.3021   -5.6726   26.0378 C   0  0  0  0  0  0  0  0  0  0  0  0
    7.0880   -4.6163   27.0010 C   0  0  0  0  0  0  0  0  0  0  0  0
    8.3117   -4.3698   27.4436 C   0  0  0  0  0  0  0  0  0  0  0  0
    1.1339   -5.0515   26.3541 C   0  0  0  0  0  0  0  0  0  0  0  0
    4.8080   -8.0362   16.7101 C   0  0  0  0  0  0  0  0  0  0  0  0
   -1.2173   -3.9294   26.9717 O   0  0  0  0  0  0  0  0  0  0  0  0
   -1.0025   -5.0942   27.4586 C   0  0  0  0  0  0  0  0  0  0  0  0
    2.2474   -8.9123   16.6273 C   0  0  0  0  0  0  0  0  0  0  0  0
    4.4957   -9.2636   17.3041 C   0  0  0  0  0  0  0  0  0  0  0  0
   -1.8070   -5.6086   28.1920 O   0  0  0  0  0  0  0  0  0  0  0  0
   10.4296   -5.1799   28.3140 C   0  0  0  0  0  0  0  0  0  0  0  0
    6.6017   -5.9004   26.9187 C   0  0  0  0  0  0  0  0  0  0  0  0
    2.4761   -6.9940   26.4111 N   0  0  0  0  0  0  0  0  0  0  0  0
    9.1353   -5.4053   27.8239 C   0  0  0  0  0  0  0  0  0  0  0  0
    0.9922   -9.3232   16.5995 O   0  0  0  0  0  0  0  0  0  0  0  0
    1.5232   -7.6869   27.1182 C   0  0  0  0  0  0  0  0  0  0  0  0
    8.6878   -6.6715   27.7262 N   0  0  0  0  0  0  0  0  0  0  0  0
    6.9911   -8.2423   27.1808 C   0  0  0  0  0  0  0  0  0  0  0  0
    3.8436   -7.2758   16.0578 C   0  0  0  0  0  0  0  0  0  0  0  0
    3.1882   -9.7190   17.2566 C   0  0  0  0  0  0  0  0  0  0  0  0
    5.3488   -6.1737   26.5092 C   0  0  0  0  0  0  0  0  0  0  0  0
    7.4567   -6.9464   27.2858 C   0  0  0  0  0  0  0  0  0  0  0  0
    0.1921   -5.7592   27.1123 C   0  0  0  0  0  0  0  0  0  0  0  0
    3.5517   -7.7407   25.9711 C   0  0  0  0  0  0  0  0  0  0  0  0
  1  4  4  0
  1 22  4  0
  2 20  4  0
  2 27  4  0
  3 12  4  0
  3 23  4  0
  4 25  4  0
  4 28  1  0
  5  8  4  0
  5 17  4  0
  6  7  4  0
  6 16  4  0
  7 18  4  0
  8 27  4  0
  9 13  4  0
  9 23  4  0
 10 11  1  0
 11 14  2  0
 11 27  1  0
 12 19  1  0
 12 24  4  0
 13 24  4  0
 15 18  1  0
 16 25  4  0
 16 26  4  0
 17 20  4  0
 17 28  1  0
 18 21  4  0
 21 26  4  0
 22 26  4  0
M  END
$$$$

 Created by Python create_sdf_string function

 28 30  0  0  0  0  0  0  0  0999 V2000
    5.7174   -8.4529   26.7190 C   0  0  0  0  0  0  0  0  0  0  0  0
    0.3974   -7.0711   27.5149 C   0  0  0  0  0  0  0  0  0  0  0  0
    2.5338   -7.6891   16.0102 C   0  0  0  0  0  0  0  0  0  0  0  0
    4.8690   -7.4380   26.4151 C   0  0  0  0  0  0  0  0  0  0  0  0
    2.3021   -5.6726   26.0378 C   0  0  0  0  0  0  0  0  0  0  0  0
    7.0880   -4.6163   27.0010 C   0  0  0  0  0  0  0  0  0  0  0  0
    8.3117   -4.3698   27.4436 C   0  0  0  0  0  0  0  0  0  0  0  0
    1.1339   -5.0515   26.3541 C   0  0  0  0  0  0  0  0  0  0  0  0
    4.8080   -8.0362   16.7101 C   0  0  0  0  0  0  0  0  0  0  0  0
   -1.2173   -3.9294   26.9717 O   0  0  0  0  0  0  0  0  0  0  0  0
   -1.0025   -5.0942   27.4586 C   0  0  0  0  0  0  0  0  0  0  0  0
    2.2474   -8.9123   16.6273 C   0  0  0  0  0  0  0  0  0  0  0  0
    4.4957   -9.2636   17.3041 C   0  0  0  0  0  0  0  0  0  0  0  0
   -1.8070   -5.6086   28.1920 O   0  0  0  0  0  0  0  0  0  0  0  0
   10.4296   -5.1799   28.3140 C   0  0  0  0  0  0  0  0  0  0  0  0
    6.6017   -5.9004   26.9187 C   0  0  0  0  0  0  0  0  0  0  0  0
    2.4761   -6.9940   26.4111 N   0  0  0  0  0  0  0  0  0  0  0  0
    9.1353   -5.4053   27.8239 C   0  0  0  0  0  0  0  0  0  0  0  0
    0.9922   -9.3232   16.5995 O   0  0  0  0  0  0  0  0  0  0  0  0
    1.5232   -7.6869   27.1182 C   0  0  0  0  0  0  0  0  0  0  0  0
    8.6878   -6.6715   27.7262 N   0  0  0  0  0  0  0  0  0  0  0  0
    6.9911   -8.2423   27.1808 C   0  0  0  0  0  0  0  0  0  0  0  0
    3.8436   -7.2758   16.0578 C   0  0  0  0  0  0  0  0  0  0  0  0
    3.1882   -9.7190   17.2566 C   0  0  0  0  0  0  0  0  0  0  0  0
    5.3488   -6.1737   26.5092 C   0  0  0  0  0  0  0  0  0  0  0  0
    7.4567   -6.9464   27.2858 C   0  0  0  0  0  0  0  0  0  0  0  0
    0.1921   -5.7592   27.1123 C   0  0  0  0  0  0  0  0  0  0  0  0
    3.5517   -7.7407   25.9711 C   0  0  0  0  0  0  0  0  0  0  0  0
  1  4  4  0
  1 22  4  0
  2 20  4  0
  2 27  4  0
  3 12  4  0
  3 23  4  0
  4 25  4  0
  4 28  1  0
  5  8  4  0
  5 17  4  0
  6  7  4  0
  6 16  4  0
  7 18  4  0
  8 27  4  0
  9 13  4  0
  9 23  4  0
 10 11  1  0
 11 14  2  0
 11 27  1  0
 12 19  1  0
 12 24  4  0
 13 24  4  0
 15 18  1  0
 16 25  4  0
 16 26  4  0
 17 20  4  0
 17 28  1  0
 18 21  4  0
 21 26  4  0
 22 26  4  0
M  END
$$$$

 Created by Python create_sdf_string function

 28 30  0  0  0  0  0  0  0  0999 V2000
    5.7174   -8.4529   26.7190 C   0  0  0  0  0  0  0  0  0  0  0  0
    0.3974   -7.0711   27.5149 C   0  0  0  0  0  0  0  0  0  0  0  0
    2.5338   -7.6891   16.0102 C   0  0  0  0  0  0  0  0  0  0  0  0
    4.8690   -7.4380   26.4151 C   0  0  0  0  0  0  0  0  0  0  0  0
    2.3021   -5.6726   26.0378 C   0  0  0  0  0  0  0  0  0  0  0  0
    7.0880   -4.6163   27.0010 C   0  0  0  0  0  0  0  0  0  0  0  0
    8.3117   -4.3698   27.4436 C   0  0  0  0  0  0  0  0  0  0  0  0
    1.1339   -5.0515   26.3541 C   0  0  0  0  0  0  0  0  0  0  0  0
    4.8080   -8.0362   16.7101 C   0  0  0  0  0  0  0  0  0  0  0  0
   -1.2173   -3.9294   26.9717 O   0  0  0  0  0  0  0  0  0  0  0  0
   -1.0025   -5.0942   27.4586 C   0  0  0  0  0  0  0  0  0  0  0  0
    2.2474   -8.9123   16.6273 C   0  0  0  0  0  0  0  0  0  0  0  0
    4.4957   -9.2636   17.3041 C   0  0  0  0  0  0  0  0  0  0  0  0
   -1.8070   -5.6086   28.1920 O   0  0  0  0  0  0  0  0  0  0  0  0
   10.4296   -5.1799   28.3140 C   0  0  0  0  0  0  0  0  0  0  0  0
    6.6017   -5.9004   26.9187 C   0  0  0  0  0  0  0  0  0  0  0  0
    2.4761   -6.9940   26.4111 N   0  0  0  0  0  0  0  0  0  0  0  0
    9.1353   -5.4053   27.8239 C   0  0  0  0  0  0  0  0  0  0  0  0
    0.9922   -9.3232   16.5995 O   0  0  0  0  0  0  0  0  0  0  0  0
    1.5232   -7.6869   27.1182 C   0  0  0  0  0  0  0  0  0  0  0  0
    8.6878   -6.6715   27.7262 N   0  0  0  0  0  0  0  0  0  0  0  0
    6.9911   -8.2423   27.1808 C   0  0  0  0  0  0  0  0  0  0  0  0
    3.8436   -7.2758   16.0578 C   0  0  0  0  0  0  0  0  0  0  0  0
    3.1882   -9.7190   17.2566 C   0  0  0  0  0  0  0  0  0  0  0  0
    5.3488   -6.1737   26.5092 C   0  0  0  0  0  0  0  0  0  0  0  0
    7.4567   -6.9464   27.2858 C   0  0  0  0  0  0  0  0  0  0  0  0
    0.1921   -5.7592   27.1123 C   0  0  0  0  0  0  0  0  0  0  0  0
    3.5517   -7.7407   25.9711 C   0  0  0  0  0  0  0  0  0  0  0  0
  1  4  4  0
  1 22  4  0
  2 20  4  0
  2 27  4  0
  3 12  4  0
  3 23  4  0
  4 25  4  0
  4 28  1  0
  5  8  4  0
  5 17  4  0
  6  7  4  0
  6 16  4  0
  7 18  4  0
  8 27  4  0
  9 13  4  0
  9 23  4  0
 10 11  1  0
 11 14  2  0
 11 27  1  0
 12 19  1  0
 12 24  4  0
 13 24  4  0
 15 18  1  0
 16 25  4  0
 16 26  4  0
 17 20  4  0
 17 28  1  0
 18 21  4  0
 21 26  4  0
 22 26  4  0
M  END
$$$$

 Created by Python create_sdf_string function

 28 30  0  0  0  0  0  0  0  0999 V2000
    5.7174   -8.4529   26.7190 C   0  0  0  0  0  0  0  0  0  0  0  0
    0.3974   -7.0711   27.5149 C   0  0  0  0  0  0  0  0  0  0  0  0
    2.5338   -7.6891   16.0102 C   0  0  0  0  0  0  0  0  0  0  0  0
    4.8690   -7.4380   26.4151 C   0  0  0  0  0  0  0  0  0  0  0  0
    2.3021   -5.6726   26.0378 C   0  0  0  0  0  0  0  0  0  0  0  0
    7.0880   -4.6163   27.0010 C   0  0  0  0  0  0  0  0  0  0  0  0
    8.3117   -4.3698   27.4436 C   0  0  0  0  0  0  0  0  0  0  0  0
    1.1339   -5.0515   26.3541 C   0  0  0  0  0  0  0  0  0  0  0  0
    4.8080   -8.0362   16.7101 C   0  0  0  0  0  0  0  0  0  0  0  0
   -1.2173   -3.9294   26.9717 O   0  0  0  0  0  0  0  0  0  0  0  0
   -1.0025   -5.0942   27.4586 C   0  0  0  0  0  0  0  0  0  0  0  0
    2.2474   -8.9123   16.6273 C   0  0  0  0  0  0  0  0  0  0  0  0
    4.4957   -9.2636   17.3041 C   0  0  0  0  0  0  0  0  0  0  0  0
   -1.8070   -5.6086   28.1920 O   0  0  0  0  0  0  0  0  0  0  0  0
   10.4296   -5.1799   28.3140 C   0  0  0  0  0  0  0  0  0  0  0  0
    6.6017   -5.9004   26.9187 C   0  0  0  0  0  0  0  0  0  0  0  0
    2.4761   -6.9940   26.4111 N   0  0  0  0  0  0  0  0  0  0  0  0
    9.1353   -5.4053   27.8239 C   0  0  0  0  0  0  0  0  0  0  0  0
    0.9922   -9.3232   16.5995 O   0  0  0  0  0  0  0  0  0  0  0  0
    1.5232   -7.6869   27.1182 C   0  0  0  0  0  0  0  0  0  0  0  0
    8.6878   -6.6715   27.7262 N   0  0  0  0  0  0  0  0  0  0  0  0
    6.9911   -8.2423   27.1808 C   0  0  0  0  0  0  0  0  0  0  0  0
    3.8436   -7.2758   16.0578 C   0  0  0  0  0  0  0  0  0  0  0  0
    3.1882   -9.7190   17.2566 C   0  0  0  0  0  0  0  0  0  0  0  0
    5.3488   -6.1737   26.5092 C   0  0  0  0  0  0  0  0  0  0  0  0
    7.4567   -6.9464   27.2858 C   0  0  0  0  0  0  0  0  0  0  0  0
    0.1921   -5.7592   27.1123 C   0  0  0  0  0  0  0  0  0  0  0  0
    3.5517   -7.7407   25.9711 C   0  0  0  0  0  0  0  0  0  0  0  0
  1  4  4  0
  1 22  4  0
  2 20  4  0
  2 27  4  0
  3 12  4  0
  3 23  4  0
  4 25  4  0
  4 28  1  0
  5  8  4  0
  5 17  4  0
  6  7  4  0
  6 16  4  0
  7 18  4  0
  8 27  4  0
  9 13  4  0
  9 23  4  0
 10 11  1  0
 11 14  2  0
 11 27  1  0
 12 19  1  0
 12 24  4  0
 13 24  4  0
 15 18  1  0
 16 25  4  0
 16 26  4  0
 17 20  4  0
 17 28  1  0
 18 21  4  0
 21 26  4  0
 22 26  4  0
M  END
$$$$

 Created by Python create_sdf_string function

 28 30  0  0  0  0  0  0  0  0999 V2000
    5.7174   -8.4529   26.7190 C   0  0  0  0  0  0  0  0  0  0  0  0
    0.3974   -7.0711   27.5149 C   0  0  0  0  0  0  0  0  0  0  0  0
    2.5338   -7.6891   16.0102 C   0  0  0  0  0  0  0  0  0  0  0  0
    4.8690   -7.4380   26.4151 C   0  0  0  0  0  0  0  0  0  0  0  0
    2.3021   -5.6726   26.0378 C   0  0  0  0  0  0  0  0  0  0  0  0
    7.0880   -4.6163   27.0010 C   0  0  0  0  0  0  0  0  0  0  0  0
    8.3117   -4.3698   27.4436 C   0  0  0  0  0  0  0  0  0  0  0  0
    1.1339   -5.0515   26.3541 C   0  0  0  0  0  0  0  0  0  0  0  0
    4.8080   -8.0362   16.7101 C   0  0  0  0  0  0  0  0  0  0  0  0
   -1.2173   -3.9294   26.9717 O   0  0  0  0  0  0  0  0  0  0  0  0
   -1.0025   -5.0942   27.4586 C   0  0  0  0  0  0  0  0  0  0  0  0
    2.2474   -8.9123   16.6273 C   0  0  0  0  0  0  0  0  0  0  0  0
    4.4957   -9.2636   17.3041 C   0  0  0  0  0  0  0  0  0  0  0  0
   -1.8070   -5.6086   28.1920 O   0  0  0  0  0  0  0  0  0  0  0  0
   10.4296   -5.1799   28.3140 C   0  0  0  0  0  0  0  0  0  0  0  0
    6.6017   -5.9004   26.9187 C   0  0  0  0  0  0  0  0  0  0  0  0
    2.4761   -6.9940   26.4111 N   0  0  0  0  0  0  0  0  0  0  0  0
    9.1353   -5.4053   27.8239 C   0  0  0  0  0  0  0  0  0  0  0  0
    0.9922   -9.3232   16.5995 O   0  0  0  0  0  0  0  0  0  0  0  0
    1.5232   -7.6869   27.1182 C   0  0  0  0  0  0  0  0  0  0  0  0
    8.6878   -6.6715   27.7262 N   0  0  0  0  0  0  0  0  0  0  0  0
    6.9911   -8.2423   27.1808 C   0  0  0  0  0  0  0  0  0  0  0  0
    3.8436   -7.2758   16.0578 C   0  0  0  0  0  0  0  0  0  0  0  0
    3.1882   -9.7190   17.2566 C   0  0  0  0  0  0  0  0  0  0  0  0
    5.3488   -6.1737   26.5092 C   0  0  0  0  0  0  0  0  0  0  0  0
    7.4567   -6.9464   27.2858 C   0  0  0  0  0  0  0  0  0  0  0  0
    0.1921   -5.7592   27.1123 C   0  0  0  0  0  0  0  0  0  0  0  0
    3.5517   -7.7407   25.9711 C   0  0  0  0  0  0  0  0  0  0  0  0
  1  4  4  0
  1 22  4  0
  2 20  4  0
  2 27  4  0
  3 12  4  0
  3 23  4  0
  4 25  4  0
  4 28  1  0
  5  8  4  0
  5 17  4  0
  6  7  4  0
  6 16  4  0
  7 18  4  0
  8 27  4  0
  9 13  4  0
  9 23  4  0
 10 11  1  0
 11 14  2  0
 11 27  1  0
 12 19  1  0
 12 24  4  0
 13 24  4  0
 15 18  1  0
 16 25  4  0
 16 26  4  0
 17 20  4  0
 17 28  1  0
 18 21  4  0
 21 26  4  0
 22 26  4  0
M  END
$$$$

 Created by Python create_sdf_string function

 28 30  0  0  0  0  0  0  0  0999 V2000
    5.7174   -8.4529   26.7190 C   0  0  0  0  0  0  0  0  0  0  0  0
    0.3974   -7.0711   27.5149 C   0  0  0  0  0  0  0  0  0  0  0  0
    2.5338   -7.6891   16.0102 C   0  0  0  0  0  0  0  0  0  0  0  0
    4.8690   -7.4380   26.4151 C   0  0  0  0  0  0  0  0  0  0  0  0
    2.3021   -5.6726   26.0378 C   0  0  0  0  0  0  0  0  0  0  0  0
    7.0880   -4.6163   27.0010 C   0  0  0  0  0  0  0  0  0  0  0  0
    8.3117   -4.3698   27.4436 C   0  0  0  0  0  0  0  0  0  0  0  0
    1.1339   -5.0515   26.3541 C   0  0  0  0  0  0  0  0  0  0  0  0
    4.8080   -8.0362   16.7101 C   0  0  0  0  0  0  0  0  0  0  0  0
   -1.2173   -3.9294   26.9717 O   0  0  0  0  0  0  0  0  0  0  0  0
   -1.0025   -5.0942   27.4586 C   0  0  0  0  0  0  0  0  0  0  0  0
    2.2474   -8.9123   16.6273 C   0  0  0  0  0  0  0  0  0  0  0  0
    4.4957   -9.2636   17.3041 C   0  0  0  0  0  0  0  0  0  0  0  0
   -1.8070   -5.6086   28.1920 O   0  0  0  0  0  0  0  0  0  0  0  0
   10.4296   -5.1799   28.3140 C   0  0  0  0  0  0  0  0  0  0  0  0
    6.6017   -5.9004   26.9187 C   0  0  0  0  0  0  0  0  0  0  0  0
    2.4761   -6.9940   26.4111 N   0  0  0  0  0  0  0  0  0  0  0  0
    9.1353   -5.4053   27.8239 C   0  0  0  0  0  0  0  0  0  0  0  0
    0.9922   -9.3232   16.5995 O   0  0  0  0  0  0  0  0  0  0  0  0
    1.5232   -7.6869   27.1182 C   0  0  0  0  0  0  0  0  0  0  0  0
    8.6878   -6.6715   27.7262 N   0  0  0  0  0  0  0  0  0  0  0  0
    6.9911   -8.2423   27.1808 C   0  0  0  0  0  0  0  0  0  0  0  0
    3.8436   -7.2758   16.0578 C   0  0  0  0  0  0  0  0  0  0  0  0
    3.1882   -9.7190   17.2566 C   0  0  0  0  0  0  0  0  0  0  0  0
    5.3488   -6.1737   26.5092 C   0  0  0  0  0  0  0  0  0  0  0  0
    7.4567   -6.9464   27.2858 C   0  0  0  0  0  0  0  0  0  0  0  0
    0.1921   -5.7592   27.1123 C   0  0  0  0  0  0  0  0  0  0  0  0
    3.5517   -7.7407   25.9711 C   0  0  0  0  0  0  0  0  0  0  0  0
  1  4  4  0
  1 22  4  0
  2 20  4  0
  2 27  4  0
  3 12  4  0
  3 23  4  0
  4 25  4  0
  4 28  1  0
  5  8  4  0
  5 17  4  0
  6  7  4  0
  6 16  4  0
  7 18  4  0
  8 27  4  0
  9 13  4  0
  9 23  4  0
 10 11  1  0
 11 14  2  0
 11 27  1  0
 12 19  1  0
 12 24  4  0
 13 24  4  0
 15 18  1  0
 16 25  4  0
 16 26  4  0
 17 20  4  0
 17 28  1  0
 18 21  4  0
 21 26  4  0
 22 26  4  0
M  END
$$$$

 Created by Python create_sdf_string function

 28 30  0  0  0  0  0  0  0  0999 V2000
    5.7174   -8.4529   26.7190 C   0  0  0  0  0  0  0  0  0  0  0  0
    0.3974   -7.0711   27.5149 C   0  0  0  0  0  0  0  0  0  0  0  0
    2.5338   -7.6891   16.0102 C   0  0  0  0  0  0  0  0  0  0  0  0
    4.8690   -7.4380   26.4151 C   0  0  0  0  0  0  0  0  0  0  0  0
    2.3021   -5.6726   26.0378 C   0  0  0  0  0  0  0  0  0  0  0  0
    7.0880   -4.6163   27.0010 C   0  0  0  0  0  0  0  0  0  0  0  0
    8.3117   -4.3698   27.4436 C   0  0  0  0  0  0  0  0  0  0  0  0
    1.1339   -5.0515   26.3541 C   0  0  0  0  0  0  0  0  0  0  0  0
    4.8080   -8.0362   16.7101 C   0  0  0  0  0  0  0  0  0  0  0  0
   -1.2173   -3.9294   26.9717 O   0  0  0  0  0  0  0  0  0  0  0  0
   -1.0025   -5.0942   27.4586 C   0  0  0  0  0  0  0  0  0  0  0  0
    2.2474   -8.9123   16.6273 C   0  0  0  0  0  0  0  0  0  0  0  0
    4.4957   -9.2636   17.3041 C   0  0  0  0  0  0  0  0  0  0  0  0
   -1.8070   -5.6086   28.1920 O   0  0  0  0  0  0  0  0  0  0  0  0
   10.4296   -5.1799   28.3140 C   0  0  0  0  0  0  0  0  0  0  0  0
    6.6017   -5.9004   26.9187 C   0  0  0  0  0  0  0  0  0  0  0  0
    2.4761   -6.9940   26.4111 N   0  0  0  0  0  0  0  0  0  0  0  0
    9.1353   -5.4053   27.8239 C   0  0  0  0  0  0  0  0  0  0  0  0
    0.9922   -9.3232   16.5995 O   0  0  0  0  0  0  0  0  0  0  0  0
    1.5232   -7.6869   27.1182 C   0  0  0  0  0  0  0  0  0  0  0  0
    8.6878   -6.6715   27.7262 N   0  0  0  0  0  0  0  0  0  0  0  0
    6.9911   -8.2423   27.1808 C   0  0  0  0  0  0  0  0  0  0  0  0
    3.8436   -7.2758   16.0578 C   0  0  0  0  0  0  0  0  0  0  0  0
    3.1882   -9.7190   17.2566 C   0  0  0  0  0  0  0  0  0  0  0  0
    5.3488   -6.1737   26.5092 C   0  0  0  0  0  0  0  0  0  0  0  0
    7.4567   -6.9464   27.2858 C   0  0  0  0  0  0  0  0  0  0  0  0
    0.1921   -5.7592   27.1123 C   0  0  0  0  0  0  0  0  0  0  0  0
    3.5517   -7.7407   25.9711 C   0  0  0  0  0  0  0  0  0  0  0  0
  1  4  4  0
  1 22  4  0
  2 20  4  0
  2 27  4  0
  3 12  4  0
  3 23  4  0
  4 25  4  0
  4 28  1  0
  5  8  4  0
  5 17  4  0
  6  7  4  0
  6 16  4  0
  7 18  4  0
  8 27  4  0
  9 13  4  0
  9 23  4  0
 10 11  1  0
 11 14  2  0
 11 27  1  0
 12 19  1  0
 12 24  4  0
 13 24  4  0
 15 18  1  0
 16 25  4  0
 16 26  4  0
 17 20  4  0
 17 28  1  0
 18 21  4  0
 21 26  4  0
 22 26  4  0
M  END
$$$$

 Created by Python create_sdf_string function

 28 30  0  0  0  0  0  0  0  0999 V2000
    5.7174   -8.4529   26.7190 C   0  0  0  0  0  0  0  0  0  0  0  0
    0.3974   -7.0711   27.5149 C   0  0  0  0  0  0  0  0  0  0  0  0
    2.5338   -7.6891   16.0102 C   0  0  0  0  0  0  0  0  0  0  0  0
    4.8690   -7.4380   26.4151 C   0  0  0  0  0  0  0  0  0  0  0  0
    2.3021   -5.6726   26.0378 C   0  0  0  0  0  0  0  0  0  0  0  0
    7.0880   -4.6163   27.0010 C   0  0  0  0  0  0  0  0  0  0  0  0
    8.3117   -4.3698   27.4436 C   0  0  0  0  0  0  0  0  0  0  0  0
    1.1339   -5.0515   26.3541 C   0  0  0  0  0  0  0  0  0  0  0  0
    4.8080   -8.0362   16.7101 C   0  0  0  0  0  0  0  0  0  0  0  0
   -1.2173   -3.9294   26.9717 O   0  0  0  0  0  0  0  0  0  0  0  0
   -1.0025   -5.0942   27.4586 C   0  0  0  0  0  0  0  0  0  0  0  0
    2.2474   -8.9123   16.6273 C   0  0  0  0  0  0  0  0  0  0  0  0
    4.4957   -9.2636   17.3041 C   0  0  0  0  0  0  0  0  0  0  0  0
   -1.8070   -5.6086   28.1920 O   0  0  0  0  0  0  0  0  0  0  0  0
   10.4296   -5.1799   28.3140 C   0  0  0  0  0  0  0  0  0  0  0  0
    6.6017   -5.9004   26.9187 C   0  0  0  0  0  0  0  0  0  0  0  0
    2.4761   -6.9940   26.4111 N   0  0  0  0  0  0  0  0  0  0  0  0
    9.1353   -5.4053   27.8239 C   0  0  0  0  0  0  0  0  0  0  0  0
    0.9922   -9.3232   16.5995 O   0  0  0  0  0  0  0  0  0  0  0  0
    1.5232   -7.6869   27.1182 C   0  0  0  0  0  0  0  0  0  0  0  0
    8.6878   -6.6715   27.7262 N   0  0  0  0  0  0  0  0  0  0  0  0
    6.9911   -8.2423   27.1808 C   0  0  0  0  0  0  0  0  0  0  0  0
    3.8436   -7.2758   16.0578 C   0  0  0  0  0  0  0  0  0  0  0  0
    3.1882   -9.7190   17.2566 C   0  0  0  0  0  0  0  0  0  0  0  0
    5.3488   -6.1737   26.5092 C   0  0  0  0  0  0  0  0  0  0  0  0
    7.4567   -6.9464   27.2858 C   0  0  0  0  0  0  0  0  0  0  0  0
    0.1921   -5.7592   27.1123 C   0  0  0  0  0  0  0  0  0  0  0  0
    3.5517   -7.7407   25.9711 C   0  0  0  0  0  0  0  0  0  0  0  0
  1  4  4  0
  1 22  4  0
  2 20  4  0
  2 27  4  0
  3 12  4  0
  3 23  4  0
  4 25  4  0
  4 28  1  0
  5  8  4  0
  5 17  4  0
  6  7  4  0
  6 16  4  0
  7 18  4  0
  8 27  4  0
  9 13  4  0
  9 23  4  0
 10 11  1  0
 11 14  2  0
 11 27  1  0
 12 19  1  0
 12 24  4  0
 13 24  4  0
 15 18  1  0
 16 25  4  0
 16 26  4  0
 17 20  4  0
 17 28  1  0
 18 21  4  0
 21 26  4  0
 22 26  4  0
M  END
$$$$

 Created by Python create_sdf_string function

 28 30  0  0  0  0  0  0  0  0999 V2000
    5.7174   -8.4529   26.7190 C   0  0  0  0  0  0  0  0  0  0  0  0
    0.3974   -7.0711   27.5149 C   0  0  0  0  0  0  0  0  0  0  0  0
    2.5338   -7.6891   16.0102 C   0  0  0  0  0  0  0  0  0  0  0  0
    4.8690   -7.4380   26.4151 C   0  0  0  0  0  0  0  0  0  0  0  0
    2.3021   -5.6726   26.0378 C   0  0  0  0  0  0  0  0  0  0  0  0
    7.0880   -4.6163   27.0010 C   0  0  0  0  0  0  0  0  0  0  0  0
    8.3117   -4.3698   27.4436 C   0  0  0  0  0  0  0  0  0  0  0  0
    1.1339   -5.0515   26.3541 C   0  0  0  0  0  0  0  0  0  0  0  0
    4.8080   -8.0362   16.7101 C   0  0  0  0  0  0  0  0  0  0  0  0
   -1.2173   -3.9294   26.9717 O   0  0  0  0  0  0  0  0  0  0  0  0
   -1.0025   -5.0942   27.4586 C   0  0  0  0  0  0  0  0  0  0  0  0
    2.2474   -8.9123   16.6273 C   0  0  0  0  0  0  0  0  0  0  0  0
    4.4957   -9.2636   17.3041 C   0  0  0  0  0  0  0  0  0  0  0  0
   -1.8070   -5.6086   28.1920 O   0  0  0  0  0  0  0  0  0  0  0  0
   10.4296   -5.1799   28.3140 C   0  0  0  0  0  0  0  0  0  0  0  0
    6.6017   -5.9004   26.9187 C   0  0  0  0  0  0  0  0  0  0  0  0
    2.4761   -6.9940   26.4111 N   0  0  0  0  0  0  0  0  0  0  0  0
    9.1353   -5.4053   27.8239 C   0  0  0  0  0  0  0  0  0  0  0  0
    0.9922   -9.3232   16.5995 O   0  0  0  0  0  0  0  0  0  0  0  0
    1.5232   -7.6869   27.1182 C   0  0  0  0  0  0  0  0  0  0  0  0
    8.6878   -6.6715   27.7262 N   0  0  0  0  0  0  0  0  0  0  0  0
    6.9911   -8.2423   27.1808 C   0  0  0  0  0  0  0  0  0  0  0  0
    3.8436   -7.2758   16.0578 C   0  0  0  0  0  0  0  0  0  0  0  0
    3.1882   -9.7190   17.2566 C   0  0  0  0  0  0  0  0  0  0  0  0
    5.3488   -6.1737   26.5092 C   0  0  0  0  0  0  0  0  0  0  0  0
    7.4567   -6.9464   27.2858 C   0  0  0  0  0  0  0  0  0  0  0  0
    0.1921   -5.7592   27.1123 C   0  0  0  0  0  0  0  0  0  0  0  0
    3.5517   -7.7407   25.9711 C   0  0  0  0  0  0  0  0  0  0  0  0
  1  4  4  0
  1 22  4  0
  2 20  4  0
  2 27  4  0
  3 12  4  0
  3 23  4  0
  4 25  4  0
  4 28  1  0
  5  8  4  0
  5 17  4  0
  6  7  4  0
  6 16  4  0
  7 18  4  0
  8 27  4  0
  9 13  4  0
  9 23  4  0
 10 11  1  0
 11 14  2  0
 11 27  1  0
 12 19  1  0
 12 24  4  0
 13 24  4  0
 15 18  1  0
 16 25  4  0
 16 26  4  0
 17 20  4  0
 17 28  1  0
 18 21  4  0
 21 26  4  0
 22 26  4  0
M  END
$$$$

 Created by Python create_sdf_string function

 28 30  0  0  0  0  0  0  0  0999 V2000
    5.7174   -8.4529   26.7190 C   0  0  0  0  0  0  0  0  0  0  0  0
    0.3974   -7.0711   27.5149 C   0  0  0  0  0  0  0  0  0  0  0  0
    2.5338   -7.6891   16.0102 C   0  0  0  0  0  0  0  0  0  0  0  0
    4.8690   -7.4380   26.4151 C   0  0  0  0  0  0  0  0  0  0  0  0
    2.3021   -5.6726   26.0378 C   0  0  0  0  0  0  0  0  0  0  0  0
    7.0880   -4.6163   27.0010 C   0  0  0  0  0  0  0  0  0  0  0  0
    8.3117   -4.3698   27.4436 C   0  0  0  0  0  0  0  0  0  0  0  0
    1.1339   -5.0515   26.3541 C   0  0  0  0  0  0  0  0  0  0  0  0
    4.8080   -8.0362   16.7101 C   0  0  0  0  0  0  0  0  0  0  0  0
   -1.2173   -3.9294   26.9717 O   0  0  0  0  0  0  0  0  0  0  0  0
   -1.0025   -5.0942   27.4586 C   0  0  0  0  0  0  0  0  0  0  0  0
    2.2474   -8.9123   16.6273 C   0  0  0  0  0  0  0  0  0  0  0  0
    4.4957   -9.2636   17.3041 C   0  0  0  0  0  0  0  0  0  0  0  0
   -1.8070   -5.6086   28.1920 O   0  0  0  0  0  0  0  0  0  0  0  0
   10.4296   -5.1799   28.3140 C   0  0  0  0  0  0  0  0  0  0  0  0
    6.6017   -5.9004   26.9187 C   0  0  0  0  0  0  0  0  0  0  0  0
    2.4761   -6.9940   26.4111 N   0  0  0  0  0  0  0  0  0  0  0  0
    9.1353   -5.4053   27.8239 C   0  0  0  0  0  0  0  0  0  0  0  0
    0.9922   -9.3232   16.5995 O   0  0  0  0  0  0  0  0  0  0  0  0
    1.5232   -7.6869   27.1182 C   0  0  0  0  0  0  0  0  0  0  0  0
    8.6878   -6.6715   27.7262 N   0  0  0  0  0  0  0  0  0  0  0  0
    6.9911   -8.2423   27.1808 C   0  0  0  0  0  0  0  0  0  0  0  0
    3.8436   -7.2758   16.0578 C   0  0  0  0  0  0  0  0  0  0  0  0
    3.1882   -9.7190   17.2566 C   0  0  0  0  0  0  0  0  0  0  0  0
    5.3488   -6.1737   26.5092 C   0  0  0  0  0  0  0  0  0  0  0  0
    7.4567   -6.9464   27.2858 C   0  0  0  0  0  0  0  0  0  0  0  0
    0.1921   -5.7592   27.1123 C   0  0  0  0  0  0  0  0  0  0  0  0
    3.5517   -7.7407   25.9711 C   0  0  0  0  0  0  0  0  0  0  0  0
  1  4  4  0
  1 22  4  0
  2 20  4  0
  2 27  4  0
  3 12  4  0
  3 23  4  0
  4 25  4  0
  4 28  1  0
  5  8  4  0
  5 17  4  0
  6  7  4  0
  6 16  4  0
  7 18  4  0
  8 27  4  0
  9 13  4  0
  9 23  4  0
 10 11  1  0
 11 14  2  0
 11 27  1  0
 12 19  1  0
 12 24  4  0
 13 24  4  0
 15 18  1  0
 16 25  4  0
 16 26  4  0
 17 20  4  0
 17 28  1  0
 18 21  4  0
 21 26  4  0
 22 26  4  0
M  END
$$$$

 Created by Python create_sdf_string function

 28 30  0  0  0  0  0  0  0  0999 V2000
    5.7174   -8.4529   26.7190 C   0  0  0  0  0  0  0  0  0  0  0  0
    0.3974   -7.0711   27.5149 C   0  0  0  0  0  0  0  0  0  0  0  0
    2.5338   -7.6891   16.0102 C   0  0  0  0  0  0  0  0  0  0  0  0
    4.8690   -7.4380   26.4151 C   0  0  0  0  0  0  0  0  0  0  0  0
    2.3021   -5.6726   26.0378 C   0  0  0  0  0  0  0  0  0  0  0  0
    7.0880   -4.6163   27.0010 C   0  0  0  0  0  0  0  0  0  0  0  0
    8.3117   -4.3698   27.4436 C   0  0  0  0  0  0  0  0  0  0  0  0
    1.1339   -5.0515   26.3541 C   0  0  0  0  0  0  0  0  0  0  0  0
    4.8080   -8.0362   16.7101 C   0  0  0  0  0  0  0  0  0  0  0  0
   -1.2173   -3.9294   26.9717 O   0  0  0  0  0  0  0  0  0  0  0  0
   -1.0025   -5.0942   27.4586 C   0  0  0  0  0  0  0  0  0  0  0  0
    2.2474   -8.9123   16.6273 C   0  0  0  0  0  0  0  0  0  0  0  0
    4.4957   -9.2636   17.3041 C   0  0  0  0  0  0  0  0  0  0  0  0
   -1.8070   -5.6086   28.1920 O   0  0  0  0  0  0  0  0  0  0  0  0
   10.4296   -5.1799   28.3140 C   0  0  0  0  0  0  0  0  0  0  0  0
    6.6017   -5.9004   26.9187 C   0  0  0  0  0  0  0  0  0  0  0  0
    2.4761   -6.9940   26.4111 N   0  0  0  0  0  0  0  0  0  0  0  0
    9.1353   -5.4053   27.8239 C   0  0  0  0  0  0  0  0  0  0  0  0
    0.9922   -9.3232   16.5995 O   0  0  0  0  0  0  0  0  0  0  0  0
    1.5232   -7.6869   27.1182 C   0  0  0  0  0  0  0  0  0  0  0  0
    8.6878   -6.6715   27.7262 N   0  0  0  0  0  0  0  0  0  0  0  0
    6.9911   -8.2423   27.1808 C   0  0  0  0  0  0  0  0  0  0  0  0
    3.8436   -7.2758   16.0578 C   0  0  0  0  0  0  0  0  0  0  0  0
    3.1882   -9.7190   17.2566 C   0  0  0  0  0  0  0  0  0  0  0  0
    5.3488   -6.1737   26.5092 C   0  0  0  0  0  0  0  0  0  0  0  0
    7.4567   -6.9464   27.2858 C   0  0  0  0  0  0  0  0  0  0  0  0
    0.1921   -5.7592   27.1123 C   0  0  0  0  0  0  0  0  0  0  0  0
    3.5517   -7.7407   25.9711 C   0  0  0  0  0  0  0  0  0  0  0  0
  1  4  4  0
  1 22  4  0
  2 20  4  0
  2 27  4  0
  3 12  4  0
  3 23  4  0
  4 25  4  0
  4 28  1  0
  5  8  4  0
  5 17  4  0
  6  7  4  0
  6 16  4  0
  7 18  4  0
  8 27  4  0
  9 13  4  0
  9 23  4  0
 10 11  1  0
 11 14  2  0
 11 27  1  0
 12 19  1  0
 12 24  4  0
 13 24  4  0
 15 18  1  0
 16 25  4  0
 16 26  4  0
 17 20  4  0
 17 28  1  0
 18 21  4  0
 21 26  4  0
 22 26  4  0
M  END
$$$$

 Created by Python create_sdf_string function

 28 30  0  0  0  0  0  0  0  0999 V2000
    5.7174   -8.4529   26.7190 C   0  0  0  0  0  0  0  0  0  0  0  0
    0.3974   -7.0711   27.5149 C   0  0  0  0  0  0  0  0  0  0  0  0
    2.5338   -7.6891   16.0102 C   0  0  0  0  0  0  0  0  0  0  0  0
    4.8690   -7.4380   26.4151 C   0  0  0  0  0  0  0  0  0  0  0  0
    2.3021   -5.6726   26.0378 C   0  0  0  0  0  0  0  0  0  0  0  0
    7.0880   -4.6163   27.0010 C   0  0  0  0  0  0  0  0  0  0  0  0
    8.3117   -4.3698   27.4436 C   0  0  0  0  0  0  0  0  0  0  0  0
    1.1339   -5.0515   26.3541 C   0  0  0  0  0  0  0  0  0  0  0  0
    4.8080   -8.0362   16.7101 C   0  0  0  0  0  0  0  0  0  0  0  0
   -1.2173   -3.9294   26.9717 O   0  0  0  0  0  0  0  0  0  0  0  0
   -1.0025   -5.0942   27.4586 C   0  0  0  0  0  0  0  0  0  0  0  0
    2.2474   -8.9123   16.6273 C   0  0  0  0  0  0  0  0  0  0  0  0
    4.4957   -9.2636   17.3041 C   0  0  0  0  0  0  0  0  0  0  0  0
   -1.8070   -5.6086   28.1920 O   0  0  0  0  0  0  0  0  0  0  0  0
   10.4296   -5.1799   28.3140 C   0  0  0  0  0  0  0  0  0  0  0  0
    6.6017   -5.9004   26.9187 C   0  0  0  0  0  0  0  0  0  0  0  0
    2.4761   -6.9940   26.4111 N   0  0  0  0  0  0  0  0  0  0  0  0
    9.1353   -5.4053   27.8239 C   0  0  0  0  0  0  0  0  0  0  0  0
    0.9922   -9.3232   16.5995 O   0  0  0  0  0  0  0  0  0  0  0  0
    1.5232   -7.6869   27.1182 C   0  0  0  0  0  0  0  0  0  0  0  0
    8.6878   -6.6715   27.7262 N   0  0  0  0  0  0  0  0  0  0  0  0
    6.9911   -8.2423   27.1808 C   0  0  0  0  0  0  0  0  0  0  0  0
    3.8436   -7.2758   16.0578 C   0  0  0  0  0  0  0  0  0  0  0  0
    3.1882   -9.7190   17.2566 C   0  0  0  0  0  0  0  0  0  0  0  0
    5.3488   -6.1737   26.5092 C   0  0  0  0  0  0  0  0  0  0  0  0
    7.4567   -6.9464   27.2858 C   0  0  0  0  0  0  0  0  0  0  0  0
    0.1921   -5.7592   27.1123 C   0  0  0  0  0  0  0  0  0  0  0  0
    3.5517   -7.7407   25.9711 C   0  0  0  0  0  0  0  0  0  0  0  0
  1  4  4  0
  1 22  4  0
  2 20  4  0
  2 27  4  0
  3 12  4  0
  3 23  4  0
  4 25  4  0
  4 28  1  0
  5  8  4  0
  5 17  4  0
  6  7  4  0
  6 16  4  0
  7 18  4  0
  8 27  4  0
  9 13  4  0
  9 23  4  0
 10 11  1  0
 11 14  2  0
 11 27  1  0
 12 19  1  0
 12 24  4  0
 13 24  4  0
 15 18  1  0
 16 25  4  0
 16 26  4  0
 17 20  4  0
 17 28  1  0
 18 21  4  0
 21 26  4  0
 22 26  4  0
M  END
$$$$

 Created by Python create_sdf_string function

 28 30  0  0  0  0  0  0  0  0999 V2000
    5.7174   -8.4529   26.7190 C   0  0  0  0  0  0  0  0  0  0  0  0
    0.3974   -7.0711   27.5149 C   0  0  0  0  0  0  0  0  0  0  0  0
    2.5338   -7.6891   16.0102 C   0  0  0  0  0  0  0  0  0  0  0  0
    4.8690   -7.4380   26.4151 C   0  0  0  0  0  0  0  0  0  0  0  0
    2.3021   -5.6726   26.0378 C   0  0  0  0  0  0  0  0  0  0  0  0
    7.0880   -4.6163   27.0010 C   0  0  0  0  0  0  0  0  0  0  0  0
    8.3117   -4.3698   27.4436 C   0  0  0  0  0  0  0  0  0  0  0  0
    1.1339   -5.0515   26.3541 C   0  0  0  0  0  0  0  0  0  0  0  0
    4.8080   -8.0362   16.7101 C   0  0  0  0  0  0  0  0  0  0  0  0
   -1.2173   -3.9294   26.9717 O   0  0  0  0  0  0  0  0  0  0  0  0
   -1.0025   -5.0942   27.4586 C   0  0  0  0  0  0  0  0  0  0  0  0
    2.2474   -8.9123   16.6273 C   0  0  0  0  0  0  0  0  0  0  0  0
    4.4957   -9.2636   17.3041 C   0  0  0  0  0  0  0  0  0  0  0  0
   -1.8070   -5.6086   28.1920 O   0  0  0  0  0  0  0  0  0  0  0  0
   10.4296   -5.1799   28.3140 C   0  0  0  0  0  0  0  0  0  0  0  0
    6.6017   -5.9004   26.9187 C   0  0  0  0  0  0  0  0  0  0  0  0
    2.4761   -6.9940   26.4111 N   0  0  0  0  0  0  0  0  0  0  0  0
    9.1353   -5.4053   27.8239 C   0  0  0  0  0  0  0  0  0  0  0  0
    0.9922   -9.3232   16.5995 O   0  0  0  0  0  0  0  0  0  0  0  0
    1.5232   -7.6869   27.1182 C   0  0  0  0  0  0  0  0  0  0  0  0
    8.6878   -6.6715   27.7262 N   0  0  0  0  0  0  0  0  0  0  0  0
    6.9911   -8.2423   27.1808 C   0  0  0  0  0  0  0  0  0  0  0  0
    3.8436   -7.2758   16.0578 C   0  0  0  0  0  0  0  0  0  0  0  0
    3.1882   -9.7190   17.2566 C   0  0  0  0  0  0  0  0  0  0  0  0
    5.3488   -6.1737   26.5092 C   0  0  0  0  0  0  0  0  0  0  0  0
    7.4567   -6.9464   27.2858 C   0  0  0  0  0  0  0  0  0  0  0  0
    0.1921   -5.7592   27.1123 C   0  0  0  0  0  0  0  0  0  0  0  0
    3.5517   -7.7407   25.9711 C   0  0  0  0  0  0  0  0  0  0  0  0
  1  4  4  0
  1 22  4  0
  2 20  4  0
  2 27  4  0
  3 12  4  0
  3 23  4  0
  4 25  4  0
  4 28  1  0
  5  8  4  0
  5 17  4  0
  6  7  4  0
  6 16  4  0
  7 18  4  0
  8 27  4  0
  9 13  4  0
  9 23  4  0
 10 11  1  0
 11 14  2  0
 11 27  1  0
 12 19  1  0
 12 24  4  0
 13 24  4  0
 15 18  1  0
 16 25  4  0
 16 26  4  0
 17 20  4  0
 17 28  1  0
 18 21  4  0
 21 26  4  0
 22 26  4  0
M  END
$$$$

 Created by Python create_sdf_string function

 28 30  0  0  0  0  0  0  0  0999 V2000
    5.7174   -8.4529   26.7190 C   0  0  0  0  0  0  0  0  0  0  0  0
    0.3974   -7.0711   27.5149 C   0  0  0  0  0  0  0  0  0  0  0  0
    2.5338   -7.6891   16.0102 C   0  0  0  0  0  0  0  0  0  0  0  0
    4.8690   -7.4380   26.4151 C   0  0  0  0  0  0  0  0  0  0  0  0
    2.3021   -5.6726   26.0378 C   0  0  0  0  0  0  0  0  0  0  0  0
    7.0880   -4.6163   27.0010 C   0  0  0  0  0  0  0  0  0  0  0  0
    8.3117   -4.3698   27.4436 C   0  0  0  0  0  0  0  0  0  0  0  0
    1.1339   -5.0515   26.3541 C   0  0  0  0  0  0  0  0  0  0  0  0
    4.8080   -8.0362   16.7101 C   0  0  0  0  0  0  0  0  0  0  0  0
   -1.2173   -3.9294   26.9717 O   0  0  0  0  0  0  0  0  0  0  0  0
   -1.0025   -5.0942   27.4586 C   0  0  0  0  0  0  0  0  0  0  0  0
    2.2474   -8.9123   16.6273 C   0  0  0  0  0  0  0  0  0  0  0  0
    4.4957   -9.2636   17.3041 C   0  0  0  0  0  0  0  0  0  0  0  0
   -1.8070   -5.6086   28.1920 O   0  0  0  0  0  0  0  0  0  0  0  0
   10.4296   -5.1799   28.3140 C   0  0  0  0  0  0  0  0  0  0  0  0
    6.6017   -5.9004   26.9187 C   0  0  0  0  0  0  0  0  0  0  0  0
    2.4761   -6.9940   26.4111 N   0  0  0  0  0  0  0  0  0  0  0  0
    9.1353   -5.4053   27.8239 C   0  0  0  0  0  0  0  0  0  0  0  0
    0.9922   -9.3232   16.5995 O   0  0  0  0  0  0  0  0  0  0  0  0
    1.5232   -7.6869   27.1182 C   0  0  0  0  0  0  0  0  0  0  0  0
    8.6878   -6.6715   27.7262 N   0  0  0  0  0  0  0  0  0  0  0  0
    6.9911   -8.2423   27.1808 C   0  0  0  0  0  0  0  0  0  0  0  0
    3.8436   -7.2758   16.0578 C   0  0  0  0  0  0  0  0  0  0  0  0
    3.1882   -9.7190   17.2566 C   0  0  0  0  0  0  0  0  0  0  0  0
    5.3488   -6.1737   26.5092 C   0  0  0  0  0  0  0  0  0  0  0  0
    7.4567   -6.9464   27.2858 C   0  0  0  0  0  0  0  0  0  0  0  0
    0.1921   -5.7592   27.1123 C   0  0  0  0  0  0  0  0  0  0  0  0
    3.5517   -7.7407   25.9711 C   0  0  0  0  0  0  0  0  0  0  0  0
  1  4  4  0
  1 22  4  0
  2 20  4  0
  2 27  4  0
  3 12  4  0
  3 23  4  0
  4 25  4  0
  4 28  1  0
  5  8  4  0
  5 17  4  0
  6  7  4  0
  6 16  4  0
  7 18  4  0
  8 27  4  0
  9 13  4  0
  9 23  4  0
 10 11  1  0
 11 14  2  0
 11 27  1  0
 12 19  1  0
 12 24  4  0
 13 24  4  0
 15 18  1  0
 16 25  4  0
 16 26  4  0
 17 20  4  0
 17 28  1  0
 18 21  4  0
 21 26  4  0
 22 26  4  0
M  END
$$$$

 Created by Python create_sdf_string function

 28 30  0  0  0  0  0  0  0  0999 V2000
    5.7174   -8.4529   26.7190 C   0  0  0  0  0  0  0  0  0  0  0  0
    0.3974   -7.0711   27.5149 C   0  0  0  0  0  0  0  0  0  0  0  0
    2.5338   -7.6891   16.0102 C   0  0  0  0  0  0  0  0  0  0  0  0
    4.8690   -7.4380   26.4151 C   0  0  0  0  0  0  0  0  0  0  0  0
    2.3021   -5.6726   26.0378 C   0  0  0  0  0  0  0  0  0  0  0  0
    7.0880   -4.6163   27.0010 C   0  0  0  0  0  0  0  0  0  0  0  0
    8.3117   -4.3698   27.4436 C   0  0  0  0  0  0  0  0  0  0  0  0
    1.1339   -5.0515   26.3541 C   0  0  0  0  0  0  0  0  0  0  0  0
    4.8080   -8.0362   16.7101 C   0  0  0  0  0  0  0  0  0  0  0  0
   -1.2173   -3.9294   26.9717 O   0  0  0  0  0  0  0  0  0  0  0  0
   -1.0025   -5.0942   27.4586 C   0  0  0  0  0  0  0  0  0  0  0  0
    2.2474   -8.9123   16.6273 C   0  0  0  0  0  0  0  0  0  0  0  0
    4.4957   -9.2636   17.3041 C   0  0  0  0  0  0  0  0  0  0  0  0
   -1.8070   -5.6086   28.1920 O   0  0  0  0  0  0  0  0  0  0  0  0
   10.4296   -5.1799   28.3140 C   0  0  0  0  0  0  0  0  0  0  0  0
    6.6017   -5.9004   26.9187 C   0  0  0  0  0  0  0  0  0  0  0  0
    2.4761   -6.9940   26.4111 N   0  0  0  0  0  0  0  0  0  0  0  0
    9.1353   -5.4053   27.8239 C   0  0  0  0  0  0  0  0  0  0  0  0
    0.9922   -9.3232   16.5995 O   0  0  0  0  0  0  0  0  0  0  0  0
    1.5232   -7.6869   27.1182 C   0  0  0  0  0  0  0  0  0  0  0  0
    8.6878   -6.6715   27.7262 N   0  0  0  0  0  0  0  0  0  0  0  0
    6.9911   -8.2423   27.1808 C   0  0  0  0  0  0  0  0  0  0  0  0
    3.8436   -7.2758   16.0578 C   0  0  0  0  0  0  0  0  0  0  0  0
    3.1882   -9.7190   17.2566 C   0  0  0  0  0  0  0  0  0  0  0  0
    5.3488   -6.1737   26.5092 C   0  0  0  0  0  0  0  0  0  0  0  0
    7.4567   -6.9464   27.2858 C   0  0  0  0  0  0  0  0  0  0  0  0
    0.1921   -5.7592   27.1123 C   0  0  0  0  0  0  0  0  0  0  0  0
    3.5517   -7.7407   25.9711 C   0  0  0  0  0  0  0  0  0  0  0  0
  1  4  4  0
  1 22  4  0
  2 20  4  0
  2 27  4  0
  3 12  4  0
  3 23  4  0
  4 25  4  0
  4 28  1  0
  5  8  4  0
  5 17  4  0
  6  7  4  0
  6 16  4  0
  7 18  4  0
  8 27  4  0
  9 13  4  0
  9 23  4  0
 10 11  1  0
 11 14  2  0
 11 27  1  0
 12 19  1  0
 12 24  4  0
 13 24  4  0
 15 18  1  0
 16 25  4  0
 16 26  4  0
 17 20  4  0
 17 28  1  0
 18 21  4  0
 21 26  4  0
 22 26  4  0
M  END
$$$$

 Created by Python create_sdf_string function

 28 30  0  0  0  0  0  0  0  0999 V2000
    5.7174   -8.4529   26.7190 C   0  0  0  0  0  0  0  0  0  0  0  0
    0.3974   -7.0711   27.5149 C   0  0  0  0  0  0  0  0  0  0  0  0
    2.5338   -7.6891   16.0102 C   0  0  0  0  0  0  0  0  0  0  0  0
    4.8690   -7.4380   26.4151 C   0  0  0  0  0  0  0  0  0  0  0  0
    2.3021   -5.6726   26.0378 C   0  0  0  0  0  0  0  0  0  0  0  0
    7.0880   -4.6163   27.0010 C   0  0  0  0  0  0  0  0  0  0  0  0
    8.3117   -4.3698   27.4436 C   0  0  0  0  0  0  0  0  0  0  0  0
    1.1339   -5.0515   26.3541 C   0  0  0  0  0  0  0  0  0  0  0  0
    4.8080   -8.0362   16.7101 C   0  0  0  0  0  0  0  0  0  0  0  0
   -1.2173   -3.9294   26.9717 O   0  0  0  0  0  0  0  0  0  0  0  0
   -1.0025   -5.0942   27.4586 C   0  0  0  0  0  0  0  0  0  0  0  0
    2.2474   -8.9123   16.6273 C   0  0  0  0  0  0  0  0  0  0  0  0
    4.4957   -9.2636   17.3041 C   0  0  0  0  0  0  0  0  0  0  0  0
   -1.8070   -5.6086   28.1920 O   0  0  0  0  0  0  0  0  0  0  0  0
   10.4296   -5.1799   28.3140 C   0  0  0  0  0  0  0  0  0  0  0  0
    6.6017   -5.9004   26.9187 C   0  0  0  0  0  0  0  0  0  0  0  0
    2.4761   -6.9940   26.4111 N   0  0  0  0  0  0  0  0  0  0  0  0
    9.1353   -5.4053   27.8239 C   0  0  0  0  0  0  0  0  0  0  0  0
    0.9922   -9.3232   16.5995 O   0  0  0  0  0  0  0  0  0  0  0  0
    1.5232   -7.6869   27.1182 C   0  0  0  0  0  0  0  0  0  0  0  0
    8.6878   -6.6715   27.7262 N   0  0  0  0  0  0  0  0  0  0  0  0
    6.9911   -8.2423   27.1808 C   0  0  0  0  0  0  0  0  0  0  0  0
    3.8436   -7.2758   16.0578 C   0  0  0  0  0  0  0  0  0  0  0  0
    3.1882   -9.7190   17.2566 C   0  0  0  0  0  0  0  0  0  0  0  0
    5.3488   -6.1737   26.5092 C   0  0  0  0  0  0  0  0  0  0  0  0
    7.4567   -6.9464   27.2858 C   0  0  0  0  0  0  0  0  0  0  0  0
    0.1921   -5.7592   27.1123 C   0  0  0  0  0  0  0  0  0  0  0  0
    3.5517   -7.7407   25.9711 C   0  0  0  0  0  0  0  0  0  0  0  0
  1  4  4  0
  1 22  4  0
  2 20  4  0
  2 27  4  0
  3 12  4  0
  3 23  4  0
  4 25  4  0
  4 28  1  0
  5  8  4  0
  5 17  4  0
  6  7  4  0
  6 16  4  0
  7 18  4  0
  8 27  4  0
  9 13  4  0
  9 23  4  0
 10 11  1  0
 11 14  2  0
 11 27  1  0
 12 19  1  0
 12 24  4  0
 13 24  4  0
 15 18  1  0
 16 25  4  0
 16 26  4  0
 17 20  4  0
 17 28  1  0
 18 21  4  0
 21 26  4  0
 22 26  4  0
M  END
$$$$

 Created by Python create_sdf_string function

 28 30  0  0  0  0  0  0  0  0999 V2000
    5.7174   -8.4529   26.7190 C   0  0  0  0  0  0  0  0  0  0  0  0
    0.3974   -7.0711   27.5149 C   0  0  0  0  0  0  0  0  0  0  0  0
    2.5338   -7.6891   16.0102 C   0  0  0  0  0  0  0  0  0  0  0  0
    4.8690   -7.4380   26.4151 C   0  0  0  0  0  0  0  0  0  0  0  0
    2.3021   -5.6726   26.0378 C   0  0  0  0  0  0  0  0  0  0  0  0
    7.0880   -4.6163   27.0010 C   0  0  0  0  0  0  0  0  0  0  0  0
    8.3117   -4.3698   27.4436 C   0  0  0  0  0  0  0  0  0  0  0  0
    1.1339   -5.0515   26.3541 C   0  0  0  0  0  0  0  0  0  0  0  0
    4.8080   -8.0362   16.7101 C   0  0  0  0  0  0  0  0  0  0  0  0
   -1.2173   -3.9294   26.9717 O   0  0  0  0  0  0  0  0  0  0  0  0
   -1.0025   -5.0942   27.4586 C   0  0  0  0  0  0  0  0  0  0  0  0
    2.2474   -8.9123   16.6273 C   0  0  0  0  0  0  0  0  0  0  0  0
    4.4957   -9.2636   17.3041 C   0  0  0  0  0  0  0  0  0  0  0  0
   -1.8070   -5.6086   28.1920 O   0  0  0  0  0  0  0  0  0  0  0  0
   10.4296   -5.1799   28.3140 C   0  0  0  0  0  0  0  0  0  0  0  0
    6.6017   -5.9004   26.9187 C   0  0  0  0  0  0  0  0  0  0  0  0
    2.4761   -6.9940   26.4111 N   0  0  0  0  0  0  0  0  0  0  0  0
    9.1353   -5.4053   27.8239 C   0  0  0  0  0  0  0  0  0  0  0  0
    0.9922   -9.3232   16.5995 O   0  0  0  0  0  0  0  0  0  0  0  0
    1.5232   -7.6869   27.1182 C   0  0  0  0  0  0  0  0  0  0  0  0
    8.6878   -6.6715   27.7262 N   0  0  0  0  0  0  0  0  0  0  0  0
    6.9911   -8.2423   27.1808 C   0  0  0  0  0  0  0  0  0  0  0  0
    3.8436   -7.2758   16.0578 C   0  0  0  0  0  0  0  0  0  0  0  0
    3.1882   -9.7190   17.2566 C   0  0  0  0  0  0  0  0  0  0  0  0
    5.3488   -6.1737   26.5092 C   0  0  0  0  0  0  0  0  0  0  0  0
    7.4567   -6.9464   27.2858 C   0  0  0  0  0  0  0  0  0  0  0  0
    0.1921   -5.7592   27.1123 C   0  0  0  0  0  0  0  0  0  0  0  0
    3.5517   -7.7407   25.9711 C   0  0  0  0  0  0  0  0  0  0  0  0
  1  4  4  0
  1 22  4  0
  2 20  4  0
  2 27  4  0
  3 12  4  0
  3 23  4  0
  4 25  4  0
  4 28  1  0
  5  8  4  0
  5 17  4  0
  6  7  4  0
  6 16  4  0
  7 18  4  0
  8 27  4  0
  9 13  4  0
  9 23  4  0
 10 11  1  0
 11 14  2  0
 11 27  1  0
 12 19  1  0
 12 24  4  0
 13 24  4  0
 15 18  1  0
 16 25  4  0
 16 26  4  0
 17 20  4  0
 17 28  1  0
 18 21  4  0
 21 26  4  0
 22 26  4  0
M  END
$$$$

 Created by Python create_sdf_string function

 28 30  0  0  0  0  0  0  0  0999 V2000
    5.7174   -8.4529   26.7190 C   0  0  0  0  0  0  0  0  0  0  0  0
    0.3974   -7.0711   27.5149 C   0  0  0  0  0  0  0  0  0  0  0  0
    2.5338   -7.6891   16.0102 C   0  0  0  0  0  0  0  0  0  0  0  0
    4.8690   -7.4380   26.4151 C   0  0  0  0  0  0  0  0  0  0  0  0
    2.3021   -5.6726   26.0378 C   0  0  0  0  0  0  0  0  0  0  0  0
    7.0880   -4.6163   27.0010 C   0  0  0  0  0  0  0  0  0  0  0  0
    8.3117   -4.3698   27.4436 C   0  0  0  0  0  0  0  0  0  0  0  0
    1.1339   -5.0515   26.3541 C   0  0  0  0  0  0  0  0  0  0  0  0
    4.8080   -8.0362   16.7101 C   0  0  0  0  0  0  0  0  0  0  0  0
   -1.2173   -3.9294   26.9717 O   0  0  0  0  0  0  0  0  0  0  0  0
   -1.0025   -5.0942   27.4586 C   0  0  0  0  0  0  0  0  0  0  0  0
    2.2474   -8.9123   16.6273 C   0  0  0  0  0  0  0  0  0  0  0  0
    4.4957   -9.2636   17.3041 C   0  0  0  0  0  0  0  0  0  0  0  0
   -1.8070   -5.6086   28.1920 O   0  0  0  0  0  0  0  0  0  0  0  0
   10.4296   -5.1799   28.3140 C   0  0  0  0  0  0  0  0  0  0  0  0
    6.6017   -5.9004   26.9187 C   0  0  0  0  0  0  0  0  0  0  0  0
    2.4761   -6.9940   26.4111 N   0  0  0  0  0  0  0  0  0  0  0  0
    9.1353   -5.4053   27.8239 C   0  0  0  0  0  0  0  0  0  0  0  0
    0.9922   -9.3232   16.5995 O   0  0  0  0  0  0  0  0  0  0  0  0
    1.5232   -7.6869   27.1182 C   0  0  0  0  0  0  0  0  0  0  0  0
    8.6878   -6.6715   27.7262 N   0  0  0  0  0  0  0  0  0  0  0  0
    6.9911   -8.2423   27.1808 C   0  0  0  0  0  0  0  0  0  0  0  0
    3.8436   -7.2758   16.0578 C   0  0  0  0  0  0  0  0  0  0  0  0
    3.1882   -9.7190   17.2566 C   0  0  0  0  0  0  0  0  0  0  0  0
    5.3488   -6.1737   26.5092 C   0  0  0  0  0  0  0  0  0  0  0  0
    7.4567   -6.9464   27.2858 C   0  0  0  0  0  0  0  0  0  0  0  0
    0.1921   -5.7592   27.1123 C   0  0  0  0  0  0  0  0  0  0  0  0
    3.5517   -7.7407   25.9711 C   0  0  0  0  0  0  0  0  0  0  0  0
  1  4  4  0
  1 22  4  0
  2 20  4  0
  2 27  4  0
  3 12  4  0
  3 23  4  0
  4 25  4  0
  4 28  1  0
  5  8  4  0
  5 17  4  0
  6  7  4  0
  6 16  4  0
  7 18  4  0
  8 27  4  0
  9 13  4  0
  9 23  4  0
 10 11  1  0
 11 14  2  0
 11 27  1  0
 12 19  1  0
 12 24  4  0
 13 24  4  0
 15 18  1  0
 16 25  4  0
 16 26  4  0
 17 20  4  0
 17 28  1  0
 18 21  4  0
 21 26  4  0
 22 26  4  0
M  END
$$$$

 Created by Python create_sdf_string function

 28 30  0  0  0  0  0  0  0  0999 V2000
    5.7174   -8.4529   26.7190 C   0  0  0  0  0  0  0  0  0  0  0  0
    0.3974   -7.0711   27.5149 C   0  0  0  0  0  0  0  0  0  0  0  0
    2.5338   -7.6891   16.0102 C   0  0  0  0  0  0  0  0  0  0  0  0
    4.8690   -7.4380   26.4151 C   0  0  0  0  0  0  0  0  0  0  0  0
    2.3021   -5.6726   26.0378 C   0  0  0  0  0  0  0  0  0  0  0  0
    7.0880   -4.6163   27.0010 C   0  0  0  0  0  0  0  0  0  0  0  0
    8.3117   -4.3698   27.4436 C   0  0  0  0  0  0  0  0  0  0  0  0
    1.1339   -5.0515   26.3541 C   0  0  0  0  0  0  0  0  0  0  0  0
    4.8080   -8.0362   16.7101 C   0  0  0  0  0  0  0  0  0  0  0  0
   -1.2173   -3.9294   26.9717 O   0  0  0  0  0  0  0  0  0  0  0  0
   -1.0025   -5.0942   27.4586 C   0  0  0  0  0  0  0  0  0  0  0  0
    2.2474   -8.9123   16.6273 C   0  0  0  0  0  0  0  0  0  0  0  0
    4.4957   -9.2636   17.3041 C   0  0  0  0  0  0  0  0  0  0  0  0
   -1.8070   -5.6086   28.1920 O   0  0  0  0  0  0  0  0  0  0  0  0
   10.4296   -5.1799   28.3140 C   0  0  0  0  0  0  0  0  0  0  0  0
    6.6017   -5.9004   26.9187 C   0  0  0  0  0  0  0  0  0  0  0  0
    2.4761   -6.9940   26.4111 N   0  0  0  0  0  0  0  0  0  0  0  0
    9.1353   -5.4053   27.8239 C   0  0  0  0  0  0  0  0  0  0  0  0
    0.9922   -9.3232   16.5995 O   0  0  0  0  0  0  0  0  0  0  0  0
    1.5232   -7.6869   27.1182 C   0  0  0  0  0  0  0  0  0  0  0  0
    8.6878   -6.6715   27.7262 N   0  0  0  0  0  0  0  0  0  0  0  0
    6.9911   -8.2423   27.1808 C   0  0  0  0  0  0  0  0  0  0  0  0
    3.8436   -7.2758   16.0578 C   0  0  0  0  0  0  0  0  0  0  0  0
    3.1882   -9.7190   17.2566 C   0  0  0  0  0  0  0  0  0  0  0  0
    5.3488   -6.1737   26.5092 C   0  0  0  0  0  0  0  0  0  0  0  0
    7.4567   -6.9464   27.2858 C   0  0  0  0  0  0  0  0  0  0  0  0
    0.1921   -5.7592   27.1123 C   0  0  0  0  0  0  0  0  0  0  0  0
    3.5517   -7.7407   25.9711 C   0  0  0  0  0  0  0  0  0  0  0  0
  1  4  4  0
  1 22  4  0
  2 20  4  0
  2 27  4  0
  3 12  4  0
  3 23  4  0
  4 25  4  0
  4 28  1  0
  5  8  4  0
  5 17  4  0
  6  7  4  0
  6 16  4  0
  7 18  4  0
  8 27  4  0
  9 13  4  0
  9 23  4  0
 10 11  1  0
 11 14  2  0
 11 27  1  0
 12 19  1  0
 12 24  4  0
 13 24  4  0
 15 18  1  0
 16 25  4  0
 16 26  4  0
 17 20  4  0
 17 28  1  0
 18 21  4  0
 21 26  4  0
 22 26  4  0
M  END
$$$$

 Created by Python create_sdf_string function

 28 30  0  0  0  0  0  0  0  0999 V2000
    5.7174   -8.4529   26.7190 C   0  0  0  0  0  0  0  0  0  0  0  0
    0.3974   -7.0711   27.5149 C   0  0  0  0  0  0  0  0  0  0  0  0
    2.5338   -7.6891   16.0102 C   0  0  0  0  0  0  0  0  0  0  0  0
    4.8690   -7.4380   26.4151 C   0  0  0  0  0  0  0  0  0  0  0  0
    2.3021   -5.6726   26.0378 C   0  0  0  0  0  0  0  0  0  0  0  0
    7.0880   -4.6163   27.0010 C   0  0  0  0  0  0  0  0  0  0  0  0
    8.3117   -4.3698   27.4436 C   0  0  0  0  0  0  0  0  0  0  0  0
    1.1339   -5.0515   26.3541 C   0  0  0  0  0  0  0  0  0  0  0  0
    4.8080   -8.0362   16.7101 C   0  0  0  0  0  0  0  0  0  0  0  0
   -1.2173   -3.9294   26.9717 O   0  0  0  0  0  0  0  0  0  0  0  0
   -1.0025   -5.0942   27.4586 C   0  0  0  0  0  0  0  0  0  0  0  0
    2.2474   -8.9123   16.6273 C   0  0  0  0  0  0  0  0  0  0  0  0
    4.4957   -9.2636   17.3041 C   0  0  0  0  0  0  0  0  0  0  0  0
   -1.8070   -5.6086   28.1920 O   0  0  0  0  0  0  0  0  0  0  0  0
   10.4296   -5.1799   28.3140 C   0  0  0  0  0  0  0  0  0  0  0  0
    6.6017   -5.9004   26.9187 C   0  0  0  0  0  0  0  0  0  0  0  0
    2.4761   -6.9940   26.4111 N   0  0  0  0  0  0  0  0  0  0  0  0
    9.1353   -5.4053   27.8239 C   0  0  0  0  0  0  0  0  0  0  0  0
    0.9922   -9.3232   16.5995 O   0  0  0  0  0  0  0  0  0  0  0  0
    1.5232   -7.6869   27.1182 C   0  0  0  0  0  0  0  0  0  0  0  0
    8.6878   -6.6715   27.7262 N   0  0  0  0  0  0  0  0  0  0  0  0
    6.9911   -8.2423   27.1808 C   0  0  0  0  0  0  0  0  0  0  0  0
    3.8436   -7.2758   16.0578 C   0  0  0  0  0  0  0  0  0  0  0  0
    3.1882   -9.7190   17.2566 C   0  0  0  0  0  0  0  0  0  0  0  0
    5.3488   -6.1737   26.5092 C   0  0  0  0  0  0  0  0  0  0  0  0
    7.4567   -6.9464   27.2858 C   0  0  0  0  0  0  0  0  0  0  0  0
    0.1921   -5.7592   27.1123 C   0  0  0  0  0  0  0  0  0  0  0  0
    3.5517   -7.7407   25.9711 C   0  0  0  0  0  0  0  0  0  0  0  0
  1  4  4  0
  1 22  4  0
  2 20  4  0
  2 27  4  0
  3 12  4  0
  3 23  4  0
  4 25  4  0
  4 28  1  0
  5  8  4  0
  5 17  4  0
  6  7  4  0
  6 16  4  0
  7 18  4  0
  8 27  4  0
  9 13  4  0
  9 23  4  0
 10 11  1  0
 11 14  2  0
 11 27  1  0
 12 19  1  0
 12 24  4  0
 13 24  4  0
 15 18  1  0
 16 25  4  0
 16 26  4  0
 17 20  4  0
 17 28  1  0
 18 21  4  0
 21 26  4  0
 22 26  4  0
M  END
$$$$

 Created by Python create_sdf_string function

 28 30  0  0  0  0  0  0  0  0999 V2000
    5.7174   -8.4529   26.7190 C   0  0  0  0  0  0  0  0  0  0  0  0
    0.3974   -7.0711   27.5149 C   0  0  0  0  0  0  0  0  0  0  0  0
    2.5338   -7.6891   16.0102 C   0  0  0  0  0  0  0  0  0  0  0  0
    4.8690   -7.4380   26.4151 C   0  0  0  0  0  0  0  0  0  0  0  0
    2.3021   -5.6726   26.0378 C   0  0  0  0  0  0  0  0  0  0  0  0
    7.0880   -4.6163   27.0010 C   0  0  0  0  0  0  0  0  0  0  0  0
    8.3117   -4.3698   27.4436 C   0  0  0  0  0  0  0  0  0  0  0  0
    1.1339   -5.0515   26.3541 C   0  0  0  0  0  0  0  0  0  0  0  0
    4.8080   -8.0362   16.7101 C   0  0  0  0  0  0  0  0  0  0  0  0
   -1.2173   -3.9294   26.9717 O   0  0  0  0  0  0  0  0  0  0  0  0
   -1.0025   -5.0942   27.4586 C   0  0  0  0  0  0  0  0  0  0  0  0
    2.2474   -8.9123   16.6273 C   0  0  0  0  0  0  0  0  0  0  0  0
    4.4957   -9.2636   17.3041 C   0  0  0  0  0  0  0  0  0  0  0  0
   -1.8070   -5.6086   28.1920 O   0  0  0  0  0  0  0  0  0  0  0  0
   10.4296   -5.1799   28.3140 C   0  0  0  0  0  0  0  0  0  0  0  0
    6.6017   -5.9004   26.9187 C   0  0  0  0  0  0  0  0  0  0  0  0
    2.4761   -6.9940   26.4111 N   0  0  0  0  0  0  0  0  0  0  0  0
    9.1353   -5.4053   27.8239 C   0  0  0  0  0  0  0  0  0  0  0  0
    0.9922   -9.3232   16.5995 O   0  0  0  0  0  0  0  0  0  0  0  0
    1.5232   -7.6869   27.1182 C   0  0  0  0  0  0  0  0  0  0  0  0
    8.6878   -6.6715   27.7262 N   0  0  0  0  0  0  0  0  0  0  0  0
    6.9911   -8.2423   27.1808 C   0  0  0  0  0  0  0  0  0  0  0  0
    3.8436   -7.2758   16.0578 C   0  0  0  0  0  0  0  0  0  0  0  0
    3.1882   -9.7190   17.2566 C   0  0  0  0  0  0  0  0  0  0  0  0
    5.3488   -6.1737   26.5092 C   0  0  0  0  0  0  0  0  0  0  0  0
    7.4567   -6.9464   27.2858 C   0  0  0  0  0  0  0  0  0  0  0  0
    0.1921   -5.7592   27.1123 C   0  0  0  0  0  0  0  0  0  0  0  0
    3.5517   -7.7407   25.9711 C   0  0  0  0  0  0  0  0  0  0  0  0
  1  4  4  0
  1 22  4  0
  2 20  4  0
  2 27  4  0
  3 12  4  0
  3 23  4  0
  4 25  4  0
  4 28  1  0
  5  8  4  0
  5 17  4  0
  6  7  4  0
  6 16  4  0
  7 18  4  0
  8 27  4  0
  9 13  4  0
  9 23  4  0
 10 11  1  0
 11 14  2  0
 11 27  1  0
 12 19  1  0
 12 24  4  0
 13 24  4  0
 15 18  1  0
 16 25  4  0
 16 26  4  0
 17 20  4  0
 17 28  1  0
 18 21  4  0
 21 26  4  0
 22 26  4  0
M  END
$$$$

 Created by Python create_sdf_string function

 28 30  0  0  0  0  0  0  0  0999 V2000
    5.7174   -8.4529   26.7190 C   0  0  0  0  0  0  0  0  0  0  0  0
    0.3974   -7.0711   27.5149 C   0  0  0  0  0  0  0  0  0  0  0  0
    2.5338   -7.6891   16.0102 C   0  0  0  0  0  0  0  0  0  0  0  0
    4.8690   -7.4380   26.4151 C   0  0  0  0  0  0  0  0  0  0  0  0
    2.3021   -5.6726   26.0378 C   0  0  0  0  0  0  0  0  0  0  0  0
    7.0880   -4.6163   27.0010 C   0  0  0  0  0  0  0  0  0  0  0  0
    8.3117   -4.3698   27.4436 C   0  0  0  0  0  0  0  0  0  0  0  0
    1.1339   -5.0515   26.3541 C   0  0  0  0  0  0  0  0  0  0  0  0
    4.8080   -8.0362   16.7101 C   0  0  0  0  0  0  0  0  0  0  0  0
   -1.2173   -3.9294   26.9717 O   0  0  0  0  0  0  0  0  0  0  0  0
   -1.0025   -5.0942   27.4586 C   0  0  0  0  0  0  0  0  0  0  0  0
    2.2474   -8.9123   16.6273 C   0  0  0  0  0  0  0  0  0  0  0  0
    4.4957   -9.2636   17.3041 C   0  0  0  0  0  0  0  0  0  0  0  0
   -1.8070   -5.6086   28.1920 O   0  0  0  0  0  0  0  0  0  0  0  0
   10.4296   -5.1799   28.3140 C   0  0  0  0  0  0  0  0  0  0  0  0
    6.6017   -5.9004   26.9187 C   0  0  0  0  0  0  0  0  0  0  0  0
    2.4761   -6.9940   26.4111 N   0  0  0  0  0  0  0  0  0  0  0  0
    9.1353   -5.4053   27.8239 C   0  0  0  0  0  0  0  0  0  0  0  0
    0.9922   -9.3232   16.5995 O   0  0  0  0  0  0  0  0  0  0  0  0
    1.5232   -7.6869   27.1182 C   0  0  0  0  0  0  0  0  0  0  0  0
    8.6878   -6.6715   27.7262 N   0  0  0  0  0  0  0  0  0  0  0  0
    6.9911   -8.2423   27.1808 C   0  0  0  0  0  0  0  0  0  0  0  0
    3.8436   -7.2758   16.0578 C   0  0  0  0  0  0  0  0  0  0  0  0
    3.1882   -9.7190   17.2566 C   0  0  0  0  0  0  0  0  0  0  0  0
    5.3488   -6.1737   26.5092 C   0  0  0  0  0  0  0  0  0  0  0  0
    7.4567   -6.9464   27.2858 C   0  0  0  0  0  0  0  0  0  0  0  0
    0.1921   -5.7592   27.1123 C   0  0  0  0  0  0  0  0  0  0  0  0
    3.5517   -7.7407   25.9711 C   0  0  0  0  0  0  0  0  0  0  0  0
  1  4  4  0
  1 22  4  0
  2 20  4  0
  2 27  4  0
  3 12  4  0
  3 23  4  0
  4 25  4  0
  4 28  1  0
  5  8  4  0
  5 17  4  0
  6  7  4  0
  6 16  4  0
  7 18  4  0
  8 27  4  0
  9 13  4  0
  9 23  4  0
 10 11  1  0
 11 14  2  0
 11 27  1  0
 12 19  1  0
 12 24  4  0
 13 24  4  0
 15 18  1  0
 16 25  4  0
 16 26  4  0
 17 20  4  0
 17 28  1  0
 18 21  4  0
 21 26  4  0
 22 26  4  0
M  END
$$$$

 Created by Python create_sdf_string function

 28 30  0  0  0  0  0  0  0  0999 V2000
    5.7174   -8.4529   26.7190 C   0  0  0  0  0  0  0  0  0  0  0  0
    0.3974   -7.0711   27.5149 C   0  0  0  0  0  0  0  0  0  0  0  0
    2.5338   -7.6891   16.0102 C   0  0  0  0  0  0  0  0  0  0  0  0
    4.8690   -7.4380   26.4151 C   0  0  0  0  0  0  0  0  0  0  0  0
    2.3021   -5.6726   26.0378 C   0  0  0  0  0  0  0  0  0  0  0  0
    7.0880   -4.6163   27.0010 C   0  0  0  0  0  0  0  0  0  0  0  0
    8.3117   -4.3698   27.4436 C   0  0  0  0  0  0  0  0  0  0  0  0
    1.1339   -5.0515   26.3541 C   0  0  0  0  0  0  0  0  0  0  0  0
    4.8080   -8.0362   16.7101 C   0  0  0  0  0  0  0  0  0  0  0  0
   -1.2173   -3.9294   26.9717 O   0  0  0  0  0  0  0  0  0  0  0  0
   -1.0025   -5.0942   27.4586 C   0  0  0  0  0  0  0  0  0  0  0  0
    2.2474   -8.9123   16.6273 C   0  0  0  0  0  0  0  0  0  0  0  0
    4.4957   -9.2636   17.3041 C   0  0  0  0  0  0  0  0  0  0  0  0
   -1.8070   -5.6086   28.1920 O   0  0  0  0  0  0  0  0  0  0  0  0
   10.4296   -5.1799   28.3140 C   0  0  0  0  0  0  0  0  0  0  0  0
    6.6017   -5.9004   26.9187 C   0  0  0  0  0  0  0  0  0  0  0  0
    2.4761   -6.9940   26.4111 N   0  0  0  0  0  0  0  0  0  0  0  0
    9.1353   -5.4053   27.8239 C   0  0  0  0  0  0  0  0  0  0  0  0
    0.9922   -9.3232   16.5995 O   0  0  0  0  0  0  0  0  0  0  0  0
    1.5232   -7.6869   27.1182 C   0  0  0  0  0  0  0  0  0  0  0  0
    8.6878   -6.6715   27.7262 N   0  0  0  0  0  0  0  0  0  0  0  0
    6.9911   -8.2423   27.1808 C   0  0  0  0  0  0  0  0  0  0  0  0
    3.8436   -7.2758   16.0578 C   0  0  0  0  0  0  0  0  0  0  0  0
    3.1882   -9.7190   17.2566 C   0  0  0  0  0  0  0  0  0  0  0  0
    5.3488   -6.1737   26.5092 C   0  0  0  0  0  0  0  0  0  0  0  0
    7.4567   -6.9464   27.2858 C   0  0  0  0  0  0  0  0  0  0  0  0
    0.1921   -5.7592   27.1123 C   0  0  0  0  0  0  0  0  0  0  0  0
    3.5517   -7.7407   25.9711 C   0  0  0  0  0  0  0  0  0  0  0  0
  1  4  4  0
  1 22  4  0
  2 20  4  0
  2 27  4  0
  3 12  4  0
  3 23  4  0
  4 25  4  0
  4 28  1  0
  5  8  4  0
  5 17  4  0
  6  7  4  0
  6 16  4  0
  7 18  4  0
  8 27  4  0
  9 13  4  0
  9 23  4  0
 10 11  1  0
 11 14  2  0
 11 27  1  0
 12 19  1  0
 12 24  4  0
 13 24  4  0
 15 18  1  0
 16 25  4  0
 16 26  4  0
 17 20  4  0
 17 28  1  0
 18 21  4  0
 21 26  4  0
 22 26  4  0
M  END
$$$$

 Created by Python create_sdf_string function

 28 30  0  0  0  0  0  0  0  0999 V2000
    5.7174   -8.4529   26.7190 C   0  0  0  0  0  0  0  0  0  0  0  0
    0.3974   -7.0711   27.5149 C   0  0  0  0  0  0  0  0  0  0  0  0
    2.5338   -7.6891   16.0102 C   0  0  0  0  0  0  0  0  0  0  0  0
    4.8690   -7.4380   26.4151 C   0  0  0  0  0  0  0  0  0  0  0  0
    2.3021   -5.6726   26.0378 C   0  0  0  0  0  0  0  0  0  0  0  0
    7.0880   -4.6163   27.0010 C   0  0  0  0  0  0  0  0  0  0  0  0
    8.3117   -4.3698   27.4436 C   0  0  0  0  0  0  0  0  0  0  0  0
    1.1339   -5.0515   26.3541 C   0  0  0  0  0  0  0  0  0  0  0  0
    4.8080   -8.0362   16.7101 C   0  0  0  0  0  0  0  0  0  0  0  0
   -1.2173   -3.9294   26.9717 O   0  0  0  0  0  0  0  0  0  0  0  0
   -1.0025   -5.0942   27.4586 C   0  0  0  0  0  0  0  0  0  0  0  0
    2.2474   -8.9123   16.6273 C   0  0  0  0  0  0  0  0  0  0  0  0
    4.4957   -9.2636   17.3041 C   0  0  0  0  0  0  0  0  0  0  0  0
   -1.8070   -5.6086   28.1920 O   0  0  0  0  0  0  0  0  0  0  0  0
   10.4296   -5.1799   28.3140 C   0  0  0  0  0  0  0  0  0  0  0  0
    6.6017   -5.9004   26.9187 C   0  0  0  0  0  0  0  0  0  0  0  0
    2.4761   -6.9940   26.4111 N   0  0  0  0  0  0  0  0  0  0  0  0
    9.1353   -5.4053   27.8239 C   0  0  0  0  0  0  0  0  0  0  0  0
    0.9922   -9.3232   16.5995 O   0  0  0  0  0  0  0  0  0  0  0  0
    1.5232   -7.6869   27.1182 C   0  0  0  0  0  0  0  0  0  0  0  0
    8.6878   -6.6715   27.7262 N   0  0  0  0  0  0  0  0  0  0  0  0
    6.9911   -8.2423   27.1808 C   0  0  0  0  0  0  0  0  0  0  0  0
    3.8436   -7.2758   16.0578 C   0  0  0  0  0  0  0  0  0  0  0  0
    3.1882   -9.7190   17.2566 C   0  0  0  0  0  0  0  0  0  0  0  0
    5.3488   -6.1737   26.5092 C   0  0  0  0  0  0  0  0  0  0  0  0
    7.4567   -6.9464   27.2858 C   0  0  0  0  0  0  0  0  0  0  0  0
    0.1921   -5.7592   27.1123 C   0  0  0  0  0  0  0  0  0  0  0  0
    3.5517   -7.7407   25.9711 C   0  0  0  0  0  0  0  0  0  0  0  0
  1  4  4  0
  1 22  4  0
  2 20  4  0
  2 27  4  0
  3 12  4  0
  3 23  4  0
  4 25  4  0
  4 28  1  0
  5  8  4  0
  5 17  4  0
  6  7  4  0
  6 16  4  0
  7 18  4  0
  8 27  4  0
  9 13  4  0
  9 23  4  0
 10 11  1  0
 11 14  2  0
 11 27  1  0
 12 19  1  0
 12 24  4  0
 13 24  4  0
 15 18  1  0
 16 25  4  0
 16 26  4  0
 17 20  4  0
 17 28  1  0
 18 21  4  0
 21 26  4  0
 22 26  4  0
M  END
$$$$

 Created by Python create_sdf_string function

 28 30  0  0  0  0  0  0  0  0999 V2000
    5.7174   -8.4529   26.7190 C   0  0  0  0  0  0  0  0  0  0  0  0
    0.3974   -7.0711   27.5149 C   0  0  0  0  0  0  0  0  0  0  0  0
    2.5338   -7.6891   16.0102 C   0  0  0  0  0  0  0  0  0  0  0  0
    4.8690   -7.4380   26.4151 C   0  0  0  0  0  0  0  0  0  0  0  0
    2.3021   -5.6726   26.0378 C   0  0  0  0  0  0  0  0  0  0  0  0
    7.0880   -4.6163   27.0010 C   0  0  0  0  0  0  0  0  0  0  0  0
    8.3117   -4.3698   27.4436 C   0  0  0  0  0  0  0  0  0  0  0  0
    1.1339   -5.0515   26.3541 C   0  0  0  0  0  0  0  0  0  0  0  0
    4.8080   -8.0362   16.7101 C   0  0  0  0  0  0  0  0  0  0  0  0
   -1.2173   -3.9294   26.9717 O   0  0  0  0  0  0  0  0  0  0  0  0
   -1.0025   -5.0942   27.4586 C   0  0  0  0  0  0  0  0  0  0  0  0
    2.2474   -8.9123   16.6273 C   0  0  0  0  0  0  0  0  0  0  0  0
    4.4957   -9.2636   17.3041 C   0  0  0  0  0  0  0  0  0  0  0  0
   -1.8070   -5.6086   28.1920 O   0  0  0  0  0  0  0  0  0  0  0  0
   10.4296   -5.1799   28.3140 C   0  0  0  0  0  0  0  0  0  0  0  0
    6.6017   -5.9004   26.9187 C   0  0  0  0  0  0  0  0  0  0  0  0
    2.4761   -6.9940   26.4111 N   0  0  0  0  0  0  0  0  0  0  0  0
    9.1353   -5.4053   27.8239 C   0  0  0  0  0  0  0  0  0  0  0  0
    0.9922   -9.3232   16.5995 O   0  0  0  0  0  0  0  0  0  0  0  0
    1.5232   -7.6869   27.1182 C   0  0  0  0  0  0  0  0  0  0  0  0
    8.6878   -6.6715   27.7262 N   0  0  0  0  0  0  0  0  0  0  0  0
    6.9911   -8.2423   27.1808 C   0  0  0  0  0  0  0  0  0  0  0  0
    3.8436   -7.2758   16.0578 C   0  0  0  0  0  0  0  0  0  0  0  0
    3.1882   -9.7190   17.2566 C   0  0  0  0  0  0  0  0  0  0  0  0
    5.3488   -6.1737   26.5092 C   0  0  0  0  0  0  0  0  0  0  0  0
    7.4567   -6.9464   27.2858 C   0  0  0  0  0  0  0  0  0  0  0  0
    0.1921   -5.7592   27.1123 C   0  0  0  0  0  0  0  0  0  0  0  0
    3.5517   -7.7407   25.9711 C   0  0  0  0  0  0  0  0  0  0  0  0
  1  4  4  0
  1 22  4  0
  2 20  4  0
  2 27  4  0
  3 12  4  0
  3 23  4  0
  4 25  4  0
  4 28  1  0
  5  8  4  0
  5 17  4  0
  6  7  4  0
  6 16  4  0
  7 18  4  0
  8 27  4  0
  9 13  4  0
  9 23  4  0
 10 11  1  0
 11 14  2  0
 11 27  1  0
 12 19  1  0
 12 24  4  0
 13 24  4  0
 15 18  1  0
 16 25  4  0
 16 26  4  0
 17 20  4  0
 17 28  1  0
 18 21  4  0
 21 26  4  0
 22 26  4  0
M  END
$$$$

 Created by Python create_sdf_string function

 28 30  0  0  0  0  0  0  0  0999 V2000
    5.7174   -8.4529   26.7190 C   0  0  0  0  0  0  0  0  0  0  0  0
    0.3974   -7.0711   27.5149 C   0  0  0  0  0  0  0  0  0  0  0  0
    2.5338   -7.6891   16.0102 C   0  0  0  0  0  0  0  0  0  0  0  0
    4.8690   -7.4380   26.4151 C   0  0  0  0  0  0  0  0  0  0  0  0
    2.3021   -5.6726   26.0378 C   0  0  0  0  0  0  0  0  0  0  0  0
    7.0880   -4.6163   27.0010 C   0  0  0  0  0  0  0  0  0  0  0  0
    8.3117   -4.3698   27.4436 C   0  0  0  0  0  0  0  0  0  0  0  0
    1.1339   -5.0515   26.3541 C   0  0  0  0  0  0  0  0  0  0  0  0
    4.8080   -8.0362   16.7101 C   0  0  0  0  0  0  0  0  0  0  0  0
   -1.2173   -3.9294   26.9717 O   0  0  0  0  0  0  0  0  0  0  0  0
   -1.0025   -5.0942   27.4586 C   0  0  0  0  0  0  0  0  0  0  0  0
    2.2474   -8.9123   16.6273 C   0  0  0  0  0  0  0  0  0  0  0  0
    4.4957   -9.2636   17.3041 C   0  0  0  0  0  0  0  0  0  0  0  0
   -1.8070   -5.6086   28.1920 O   0  0  0  0  0  0  0  0  0  0  0  0
   10.4296   -5.1799   28.3140 C   0  0  0  0  0  0  0  0  0  0  0  0
    6.6017   -5.9004   26.9187 C   0  0  0  0  0  0  0  0  0  0  0  0
    2.4761   -6.9940   26.4111 N   0  0  0  0  0  0  0  0  0  0  0  0
    9.1353   -5.4053   27.8239 C   0  0  0  0  0  0  0  0  0  0  0  0
    0.9922   -9.3232   16.5995 O   0  0  0  0  0  0  0  0  0  0  0  0
    1.5232   -7.6869   27.1182 C   0  0  0  0  0  0  0  0  0  0  0  0
    8.6878   -6.6715   27.7262 N   0  0  0  0  0  0  0  0  0  0  0  0
    6.9911   -8.2423   27.1808 C   0  0  0  0  0  0  0  0  0  0  0  0
    3.8436   -7.2758   16.0578 C   0  0  0  0  0  0  0  0  0  0  0  0
    3.1882   -9.7190   17.2566 C   0  0  0  0  0  0  0  0  0  0  0  0
    5.3488   -6.1737   26.5092 C   0  0  0  0  0  0  0  0  0  0  0  0
    7.4567   -6.9464   27.2858 C   0  0  0  0  0  0  0  0  0  0  0  0
    0.1921   -5.7592   27.1123 C   0  0  0  0  0  0  0  0  0  0  0  0
    3.5517   -7.7407   25.9711 C   0  0  0  0  0  0  0  0  0  0  0  0
  1  4  4  0
  1 22  4  0
  2 20  4  0
  2 27  4  0
  3 12  4  0
  3 23  4  0
  4 25  4  0
  4 28  1  0
  5  8  4  0
  5 17  4  0
  6  7  4  0
  6 16  4  0
  7 18  4  0
  8 27  4  0
  9 13  4  0
  9 23  4  0
 10 11  1  0
 11 14  2  0
 11 27  1  0
 12 19  1  0
 12 24  4  0
 13 24  4  0
 15 18  1  0
 16 25  4  0
 16 26  4  0
 17 20  4  0
 17 28  1  0
 18 21  4  0
 21 26  4  0
 22 26  4  0
M  END
$$$$

 Created by Python create_sdf_string function

 28 30  0  0  0  0  0  0  0  0999 V2000
    5.7174   -8.4529   26.7190 C   0  0  0  0  0  0  0  0  0  0  0  0
    0.3974   -7.0711   27.5149 C   0  0  0  0  0  0  0  0  0  0  0  0
    2.5338   -7.6891   16.0102 C   0  0  0  0  0  0  0  0  0  0  0  0
    4.8690   -7.4380   26.4151 C   0  0  0  0  0  0  0  0  0  0  0  0
    2.3021   -5.6726   26.0378 C   0  0  0  0  0  0  0  0  0  0  0  0
    7.0880   -4.6163   27.0010 C   0  0  0  0  0  0  0  0  0  0  0  0
    8.3117   -4.3698   27.4436 C   0  0  0  0  0  0  0  0  0  0  0  0
    1.1339   -5.0515   26.3541 C   0  0  0  0  0  0  0  0  0  0  0  0
    4.8080   -8.0362   16.7101 C   0  0  0  0  0  0  0  0  0  0  0  0
   -1.2173   -3.9294   26.9717 O   0  0  0  0  0  0  0  0  0  0  0  0
   -1.0025   -5.0942   27.4586 C   0  0  0  0  0  0  0  0  0  0  0  0
    2.2474   -8.9123   16.6273 C   0  0  0  0  0  0  0  0  0  0  0  0
    4.4957   -9.2636   17.3041 C   0  0  0  0  0  0  0  0  0  0  0  0
   -1.8070   -5.6086   28.1920 O   0  0  0  0  0  0  0  0  0  0  0  0
   10.4296   -5.1799   28.3140 C   0  0  0  0  0  0  0  0  0  0  0  0
    6.6017   -5.9004   26.9187 C   0  0  0  0  0  0  0  0  0  0  0  0
    2.4761   -6.9940   26.4111 N   0  0  0  0  0  0  0  0  0  0  0  0
    9.1353   -5.4053   27.8239 C   0  0  0  0  0  0  0  0  0  0  0  0
    0.9922   -9.3232   16.5995 O   0  0  0  0  0  0  0  0  0  0  0  0
    1.5232   -7.6869   27.1182 C   0  0  0  0  0  0  0  0  0  0  0  0
    8.6878   -6.6715   27.7262 N   0  0  0  0  0  0  0  0  0  0  0  0
    6.9911   -8.2423   27.1808 C   0  0  0  0  0  0  0  0  0  0  0  0
    3.8436   -7.2758   16.0578 C   0  0  0  0  0  0  0  0  0  0  0  0
    3.1882   -9.7190   17.2566 C   0  0  0  0  0  0  0  0  0  0  0  0
    5.3488   -6.1737   26.5092 C   0  0  0  0  0  0  0  0  0  0  0  0
    7.4567   -6.9464   27.2858 C   0  0  0  0  0  0  0  0  0  0  0  0
    0.1921   -5.7592   27.1123 C   0  0  0  0  0  0  0  0  0  0  0  0
    3.5517   -7.7407   25.9711 C   0  0  0  0  0  0  0  0  0  0  0  0
  1  4  4  0
  1 22  4  0
  2 20  4  0
  2 27  4  0
  3 12  4  0
  3 23  4  0
  4 25  4  0
  4 28  1  0
  5  8  4  0
  5 17  4  0
  6  7  4  0
  6 16  4  0
  7 18  4  0
  8 27  4  0
  9 13  4  0
  9 23  4  0
 10 11  1  0
 11 14  2  0
 11 27  1  0
 12 19  1  0
 12 24  4  0
 13 24  4  0
 15 18  1  0
 16 25  4  0
 16 26  4  0
 17 20  4  0
 17 28  1  0
 18 21  4  0
 21 26  4  0
 22 26  4  0
M  END
$$$$

 Created by Python create_sdf_string function

 28 30  0  0  0  0  0  0  0  0999 V2000
    5.7174   -8.4529   26.7190 C   0  0  0  0  0  0  0  0  0  0  0  0
    0.3974   -7.0711   27.5149 C   0  0  0  0  0  0  0  0  0  0  0  0
    2.5338   -7.6891   16.0102 C   0  0  0  0  0  0  0  0  0  0  0  0
    4.8690   -7.4380   26.4151 C   0  0  0  0  0  0  0  0  0  0  0  0
    2.3021   -5.6726   26.0378 C   0  0  0  0  0  0  0  0  0  0  0  0
    7.0880   -4.6163   27.0010 C   0  0  0  0  0  0  0  0  0  0  0  0
    8.3117   -4.3698   27.4436 C   0  0  0  0  0  0  0  0  0  0  0  0
    1.1339   -5.0515   26.3541 C   0  0  0  0  0  0  0  0  0  0  0  0
    4.8080   -8.0362   16.7101 C   0  0  0  0  0  0  0  0  0  0  0  0
   -1.2173   -3.9294   26.9717 O   0  0  0  0  0  0  0  0  0  0  0  0
   -1.0025   -5.0942   27.4586 C   0  0  0  0  0  0  0  0  0  0  0  0
    2.2474   -8.9123   16.6273 C   0  0  0  0  0  0  0  0  0  0  0  0
    4.4957   -9.2636   17.3041 C   0  0  0  0  0  0  0  0  0  0  0  0
   -1.8070   -5.6086   28.1920 O   0  0  0  0  0  0  0  0  0  0  0  0
   10.4296   -5.1799   28.3140 C   0  0  0  0  0  0  0  0  0  0  0  0
    6.6017   -5.9004   26.9187 C   0  0  0  0  0  0  0  0  0  0  0  0
    2.4761   -6.9940   26.4111 N   0  0  0  0  0  0  0  0  0  0  0  0
    9.1353   -5.4053   27.8239 C   0  0  0  0  0  0  0  0  0  0  0  0
    0.9922   -9.3232   16.5995 O   0  0  0  0  0  0  0  0  0  0  0  0
    1.5232   -7.6869   27.1182 C   0  0  0  0  0  0  0  0  0  0  0  0
    8.6878   -6.6715   27.7262 N   0  0  0  0  0  0  0  0  0  0  0  0
    6.9911   -8.2423   27.1808 C   0  0  0  0  0  0  0  0  0  0  0  0
    3.8436   -7.2758   16.0578 C   0  0  0  0  0  0  0  0  0  0  0  0
    3.1882   -9.7190   17.2566 C   0  0  0  0  0  0  0  0  0  0  0  0
    5.3488   -6.1737   26.5092 C   0  0  0  0  0  0  0  0  0  0  0  0
    7.4567   -6.9464   27.2858 C   0  0  0  0  0  0  0  0  0  0  0  0
    0.1921   -5.7592   27.1123 C   0  0  0  0  0  0  0  0  0  0  0  0
    3.5517   -7.7407   25.9711 C   0  0  0  0  0  0  0  0  0  0  0  0
  1  4  4  0
  1 22  4  0
  2 20  4  0
  2 27  4  0
  3 12  4  0
  3 23  4  0
  4 25  4  0
  4 28  1  0
  5  8  4  0
  5 17  4  0
  6  7  4  0
  6 16  4  0
  7 18  4  0
  8 27  4  0
  9 13  4  0
  9 23  4  0
 10 11  1  0
 11 14  2  0
 11 27  1  0
 12 19  1  0
 12 24  4  0
 13 24  4  0
 15 18  1  0
 16 25  4  0
 16 26  4  0
 17 20  4  0
 17 28  1  0
 18 21  4  0
 21 26  4  0
 22 26  4  0
M  END
$$$$

 Created by Python create_sdf_string function

 28 30  0  0  0  0  0  0  0  0999 V2000
    5.7174   -8.4529   26.7190 C   0  0  0  0  0  0  0  0  0  0  0  0
    0.3974   -7.0711   27.5149 C   0  0  0  0  0  0  0  0  0  0  0  0
    2.5338   -7.6891   16.0102 C   0  0  0  0  0  0  0  0  0  0  0  0
    4.8690   -7.4380   26.4151 C   0  0  0  0  0  0  0  0  0  0  0  0
    2.3021   -5.6726   26.0378 C   0  0  0  0  0  0  0  0  0  0  0  0
    7.0880   -4.6163   27.0010 C   0  0  0  0  0  0  0  0  0  0  0  0
    8.3117   -4.3698   27.4436 C   0  0  0  0  0  0  0  0  0  0  0  0
    1.1339   -5.0515   26.3541 C   0  0  0  0  0  0  0  0  0  0  0  0
    4.8080   -8.0362   16.7101 C   0  0  0  0  0  0  0  0  0  0  0  0
   -1.2173   -3.9294   26.9717 O   0  0  0  0  0  0  0  0  0  0  0  0
   -1.0025   -5.0942   27.4586 C   0  0  0  0  0  0  0  0  0  0  0  0
    2.2474   -8.9123   16.6273 C   0  0  0  0  0  0  0  0  0  0  0  0
    4.4957   -9.2636   17.3041 C   0  0  0  0  0  0  0  0  0  0  0  0
   -1.8070   -5.6086   28.1920 O   0  0  0  0  0  0  0  0  0  0  0  0
   10.4296   -5.1799   28.3140 C   0  0  0  0  0  0  0  0  0  0  0  0
    6.6017   -5.9004   26.9187 C   0  0  0  0  0  0  0  0  0  0  0  0
    2.4761   -6.9940   26.4111 N   0  0  0  0  0  0  0  0  0  0  0  0
    9.1353   -5.4053   27.8239 C   0  0  0  0  0  0  0  0  0  0  0  0
    0.9922   -9.3232   16.5995 O   0  0  0  0  0  0  0  0  0  0  0  0
    1.5232   -7.6869   27.1182 C   0  0  0  0  0  0  0  0  0  0  0  0
    8.6878   -6.6715   27.7262 N   0  0  0  0  0  0  0  0  0  0  0  0
    6.9911   -8.2423   27.1808 C   0  0  0  0  0  0  0  0  0  0  0  0
    3.8436   -7.2758   16.0578 C   0  0  0  0  0  0  0  0  0  0  0  0
    3.1882   -9.7190   17.2566 C   0  0  0  0  0  0  0  0  0  0  0  0
    5.3488   -6.1737   26.5092 C   0  0  0  0  0  0  0  0  0  0  0  0
    7.4567   -6.9464   27.2858 C   0  0  0  0  0  0  0  0  0  0  0  0
    0.1921   -5.7592   27.1123 C   0  0  0  0  0  0  0  0  0  0  0  0
    3.5517   -7.7407   25.9711 C   0  0  0  0  0  0  0  0  0  0  0  0
  1  4  4  0
  1 22  4  0
  2 20  4  0
  2 27  4  0
  3 12  4  0
  3 23  4  0
  4 25  4  0
  4 28  1  0
  5  8  4  0
  5 17  4  0
  6  7  4  0
  6 16  4  0
  7 18  4  0
  8 27  4  0
  9 13  4  0
  9 23  4  0
 10 11  1  0
 11 14  2  0
 11 27  1  0
 12 19  1  0
 12 24  4  0
 13 24  4  0
 15 18  1  0
 16 25  4  0
 16 26  4  0
 17 20  4  0
 17 28  1  0
 18 21  4  0
 21 26  4  0
 22 26  4  0
M  END
$$$$

 Created by Python create_sdf_string function

 28 30  0  0  0  0  0  0  0  0999 V2000
    5.7174   -8.4529   26.7190 C   0  0  0  0  0  0  0  0  0  0  0  0
    0.3974   -7.0711   27.5149 C   0  0  0  0  0  0  0  0  0  0  0  0
    2.5338   -7.6891   16.0102 C   0  0  0  0  0  0  0  0  0  0  0  0
    4.8690   -7.4380   26.4151 C   0  0  0  0  0  0  0  0  0  0  0  0
    2.3021   -5.6726   26.0378 C   0  0  0  0  0  0  0  0  0  0  0  0
    7.0880   -4.6163   27.0010 C   0  0  0  0  0  0  0  0  0  0  0  0
    8.3117   -4.3698   27.4436 C   0  0  0  0  0  0  0  0  0  0  0  0
    1.1339   -5.0515   26.3541 C   0  0  0  0  0  0  0  0  0  0  0  0
    4.8080   -8.0362   16.7101 C   0  0  0  0  0  0  0  0  0  0  0  0
   -1.2173   -3.9294   26.9717 O   0  0  0  0  0  0  0  0  0  0  0  0
   -1.0025   -5.0942   27.4586 C   0  0  0  0  0  0  0  0  0  0  0  0
    2.2474   -8.9123   16.6273 C   0  0  0  0  0  0  0  0  0  0  0  0
    4.4957   -9.2636   17.3041 C   0  0  0  0  0  0  0  0  0  0  0  0
   -1.8070   -5.6086   28.1920 O   0  0  0  0  0  0  0  0  0  0  0  0
   10.4296   -5.1799   28.3140 C   0  0  0  0  0  0  0  0  0  0  0  0
    6.6017   -5.9004   26.9187 C   0  0  0  0  0  0  0  0  0  0  0  0
    2.4761   -6.9940   26.4111 N   0  0  0  0  0  0  0  0  0  0  0  0
    9.1353   -5.4053   27.8239 C   0  0  0  0  0  0  0  0  0  0  0  0
    0.9922   -9.3232   16.5995 O   0  0  0  0  0  0  0  0  0  0  0  0
    1.5232   -7.6869   27.1182 C   0  0  0  0  0  0  0  0  0  0  0  0
    8.6878   -6.6715   27.7262 N   0  0  0  0  0  0  0  0  0  0  0  0
    6.9911   -8.2423   27.1808 C   0  0  0  0  0  0  0  0  0  0  0  0
    3.8436   -7.2758   16.0578 C   0  0  0  0  0  0  0  0  0  0  0  0
    3.1882   -9.7190   17.2566 C   0  0  0  0  0  0  0  0  0  0  0  0
    5.3488   -6.1737   26.5092 C   0  0  0  0  0  0  0  0  0  0  0  0
    7.4567   -6.9464   27.2858 C   0  0  0  0  0  0  0  0  0  0  0  0
    0.1921   -5.7592   27.1123 C   0  0  0  0  0  0  0  0  0  0  0  0
    3.5517   -7.7407   25.9711 C   0  0  0  0  0  0  0  0  0  0  0  0
  1  4  4  0
  1 22  4  0
  2 20  4  0
  2 27  4  0
  3 12  4  0
  3 23  4  0
  4 25  4  0
  4 28  1  0
  5  8  4  0
  5 17  4  0
  6  7  4  0
  6 16  4  0
  7 18  4  0
  8 27  4  0
  9 13  4  0
  9 23  4  0
 10 11  1  0
 11 14  2  0
 11 27  1  0
 12 19  1  0
 12 24  4  0
 13 24  4  0
 15 18  1  0
 16 25  4  0
 16 26  4  0
 17 20  4  0
 17 28  1  0
 18 21  4  0
 21 26  4  0
 22 26  4  0
M  END
$$$$

 Created by Python create_sdf_string function

 28 30  0  0  0  0  0  0  0  0999 V2000
    5.7174   -8.4529   26.7190 C   0  0  0  0  0  0  0  0  0  0  0  0
    0.3974   -7.0711   27.5149 C   0  0  0  0  0  0  0  0  0  0  0  0
    2.5338   -7.6891   16.0102 C   0  0  0  0  0  0  0  0  0  0  0  0
    4.8690   -7.4380   26.4151 C   0  0  0  0  0  0  0  0  0  0  0  0
    2.3021   -5.6726   26.0378 C   0  0  0  0  0  0  0  0  0  0  0  0
    7.0880   -4.6163   27.0010 C   0  0  0  0  0  0  0  0  0  0  0  0
    8.3117   -4.3698   27.4436 C   0  0  0  0  0  0  0  0  0  0  0  0
    1.1339   -5.0515   26.3541 C   0  0  0  0  0  0  0  0  0  0  0  0
    4.8080   -8.0362   16.7101 C   0  0  0  0  0  0  0  0  0  0  0  0
   -1.2173   -3.9294   26.9717 O   0  0  0  0  0  0  0  0  0  0  0  0
   -1.0025   -5.0942   27.4586 C   0  0  0  0  0  0  0  0  0  0  0  0
    2.2474   -8.9123   16.6273 C   0  0  0  0  0  0  0  0  0  0  0  0
    4.4957   -9.2636   17.3041 C   0  0  0  0  0  0  0  0  0  0  0  0
   -1.8070   -5.6086   28.1920 O   0  0  0  0  0  0  0  0  0  0  0  0
   10.4296   -5.1799   28.3140 C   0  0  0  0  0  0  0  0  0  0  0  0
    6.6017   -5.9004   26.9187 C   0  0  0  0  0  0  0  0  0  0  0  0
    2.4761   -6.9940   26.4111 N   0  0  0  0  0  0  0  0  0  0  0  0
    9.1353   -5.4053   27.8239 C   0  0  0  0  0  0  0  0  0  0  0  0
    0.9922   -9.3232   16.5995 O   0  0  0  0  0  0  0  0  0  0  0  0
    1.5232   -7.6869   27.1182 C   0  0  0  0  0  0  0  0  0  0  0  0
    8.6878   -6.6715   27.7262 N   0  0  0  0  0  0  0  0  0  0  0  0
    6.9911   -8.2423   27.1808 C   0  0  0  0  0  0  0  0  0  0  0  0
    3.8436   -7.2758   16.0578 C   0  0  0  0  0  0  0  0  0  0  0  0
    3.1882   -9.7190   17.2566 C   0  0  0  0  0  0  0  0  0  0  0  0
    5.3488   -6.1737   26.5092 C   0  0  0  0  0  0  0  0  0  0  0  0
    7.4567   -6.9464   27.2858 C   0  0  0  0  0  0  0  0  0  0  0  0
    0.1921   -5.7592   27.1123 C   0  0  0  0  0  0  0  0  0  0  0  0
    3.5517   -7.7407   25.9711 C   0  0  0  0  0  0  0  0  0  0  0  0
  1  4  4  0
  1 22  4  0
  2 20  4  0
  2 27  4  0
  3 12  4  0
  3 23  4  0
  4 25  4  0
  4 28  1  0
  5  8  4  0
  5 17  4  0
  6  7  4  0
  6 16  4  0
  7 18  4  0
  8 27  4  0
  9 13  4  0
  9 23  4  0
 10 11  1  0
 11 14  2  0
 11 27  1  0
 12 19  1  0
 12 24  4  0
 13 24  4  0
 15 18  1  0
 16 25  4  0
 16 26  4  0
 17 20  4  0
 17 28  1  0
 18 21  4  0
 21 26  4  0
 22 26  4  0
M  END
$$$$

 Created by Python create_sdf_string function

 28 30  0  0  0  0  0  0  0  0999 V2000
    5.7174   -8.4529   26.7190 C   0  0  0  0  0  0  0  0  0  0  0  0
    0.3974   -7.0711   27.5149 C   0  0  0  0  0  0  0  0  0  0  0  0
    2.5338   -7.6891   16.0102 C   0  0  0  0  0  0  0  0  0  0  0  0
    4.8690   -7.4380   26.4151 C   0  0  0  0  0  0  0  0  0  0  0  0
    2.3021   -5.6726   26.0378 C   0  0  0  0  0  0  0  0  0  0  0  0
    7.0880   -4.6163   27.0010 C   0  0  0  0  0  0  0  0  0  0  0  0
    8.3117   -4.3698   27.4436 C   0  0  0  0  0  0  0  0  0  0  0  0
    1.1339   -5.0515   26.3541 C   0  0  0  0  0  0  0  0  0  0  0  0
    4.8080   -8.0362   16.7101 C   0  0  0  0  0  0  0  0  0  0  0  0
   -1.2173   -3.9294   26.9717 O   0  0  0  0  0  0  0  0  0  0  0  0
   -1.0025   -5.0942   27.4586 C   0  0  0  0  0  0  0  0  0  0  0  0
    2.2474   -8.9123   16.6273 C   0  0  0  0  0  0  0  0  0  0  0  0
    4.4957   -9.2636   17.3041 C   0  0  0  0  0  0  0  0  0  0  0  0
   -1.8070   -5.6086   28.1920 O   0  0  0  0  0  0  0  0  0  0  0  0
   10.4296   -5.1799   28.3140 C   0  0  0  0  0  0  0  0  0  0  0  0
    6.6017   -5.9004   26.9187 C   0  0  0  0  0  0  0  0  0  0  0  0
    2.4761   -6.9940   26.4111 N   0  0  0  0  0  0  0  0  0  0  0  0
    9.1353   -5.4053   27.8239 C   0  0  0  0  0  0  0  0  0  0  0  0
    0.9922   -9.3232   16.5995 O   0  0  0  0  0  0  0  0  0  0  0  0
    1.5232   -7.6869   27.1182 C   0  0  0  0  0  0  0  0  0  0  0  0
    8.6878   -6.6715   27.7262 N   0  0  0  0  0  0  0  0  0  0  0  0
    6.9911   -8.2423   27.1808 C   0  0  0  0  0  0  0  0  0  0  0  0
    3.8436   -7.2758   16.0578 C   0  0  0  0  0  0  0  0  0  0  0  0
    3.1882   -9.7190   17.2566 C   0  0  0  0  0  0  0  0  0  0  0  0
    5.3488   -6.1737   26.5092 C   0  0  0  0  0  0  0  0  0  0  0  0
    7.4567   -6.9464   27.2858 C   0  0  0  0  0  0  0  0  0  0  0  0
    0.1921   -5.7592   27.1123 C   0  0  0  0  0  0  0  0  0  0  0  0
    3.5517   -7.7407   25.9711 C   0  0  0  0  0  0  0  0  0  0  0  0
  1  4  4  0
  1 22  4  0
  2 20  4  0
  2 27  4  0
  3 12  4  0
  3 23  4  0
  4 25  4  0
  4 28  1  0
  5  8  4  0
  5 17  4  0
  6  7  4  0
  6 16  4  0
  7 18  4  0
  8 27  4  0
  9 13  4  0
  9 23  4  0
 10 11  1  0
 11 14  2  0
 11 27  1  0
 12 19  1  0
 12 24  4  0
 13 24  4  0
 15 18  1  0
 16 25  4  0
 16 26  4  0
 17 20  4  0
 17 28  1  0
 18 21  4  0
 21 26  4  0
 22 26  4  0
M  END
$$$$

 Created by Python create_sdf_string function

 28 30  0  0  0  0  0  0  0  0999 V2000
    5.7174   -8.4529   26.7190 C   0  0  0  0  0  0  0  0  0  0  0  0
    0.3974   -7.0711   27.5149 C   0  0  0  0  0  0  0  0  0  0  0  0
    2.5338   -7.6891   16.0102 C   0  0  0  0  0  0  0  0  0  0  0  0
    4.8690   -7.4380   26.4151 C   0  0  0  0  0  0  0  0  0  0  0  0
    2.3021   -5.6726   26.0378 C   0  0  0  0  0  0  0  0  0  0  0  0
    7.0880   -4.6163   27.0010 C   0  0  0  0  0  0  0  0  0  0  0  0
    8.3117   -4.3698   27.4436 C   0  0  0  0  0  0  0  0  0  0  0  0
    1.1339   -5.0515   26.3541 C   0  0  0  0  0  0  0  0  0  0  0  0
    4.8080   -8.0362   16.7101 C   0  0  0  0  0  0  0  0  0  0  0  0
   -1.2173   -3.9294   26.9717 O   0  0  0  0  0  0  0  0  0  0  0  0
   -1.0025   -5.0942   27.4586 C   0  0  0  0  0  0  0  0  0  0  0  0
    2.2474   -8.9123   16.6273 C   0  0  0  0  0  0  0  0  0  0  0  0
    4.4957   -9.2636   17.3041 C   0  0  0  0  0  0  0  0  0  0  0  0
   -1.8070   -5.6086   28.1920 O   0  0  0  0  0  0  0  0  0  0  0  0
   10.4296   -5.1799   28.3140 C   0  0  0  0  0  0  0  0  0  0  0  0
    6.6017   -5.9004   26.9187 C   0  0  0  0  0  0  0  0  0  0  0  0
    2.4761   -6.9940   26.4111 N   0  0  0  0  0  0  0  0  0  0  0  0
    9.1353   -5.4053   27.8239 C   0  0  0  0  0  0  0  0  0  0  0  0
    0.9922   -9.3232   16.5995 O   0  0  0  0  0  0  0  0  0  0  0  0
    1.5232   -7.6869   27.1182 C   0  0  0  0  0  0  0  0  0  0  0  0
    8.6878   -6.6715   27.7262 N   0  0  0  0  0  0  0  0  0  0  0  0
    6.9911   -8.2423   27.1808 C   0  0  0  0  0  0  0  0  0  0  0  0
    3.8436   -7.2758   16.0578 C   0  0  0  0  0  0  0  0  0  0  0  0
    3.1882   -9.7190   17.2566 C   0  0  0  0  0  0  0  0  0  0  0  0
    5.3488   -6.1737   26.5092 C   0  0  0  0  0  0  0  0  0  0  0  0
    7.4567   -6.9464   27.2858 C   0  0  0  0  0  0  0  0  0  0  0  0
    0.1921   -5.7592   27.1123 C   0  0  0  0  0  0  0  0  0  0  0  0
    3.5517   -7.7407   25.9711 C   0  0  0  0  0  0  0  0  0  0  0  0
  1  4  4  0
  1 22  4  0
  2 20  4  0
  2 27  4  0
  3 12  4  0
  3 23  4  0
  4 25  4  0
  4 28  1  0
  5  8  4  0
  5 17  4  0
  6  7  4  0
  6 16  4  0
  7 18  4  0
  8 27  4  0
  9 13  4  0
  9 23  4  0
 10 11  1  0
 11 14  2  0
 11 27  1  0
 12 19  1  0
 12 24  4  0
 13 24  4  0
 15 18  1  0
 16 25  4  0
 16 26  4  0
 17 20  4  0
 17 28  1  0
 18 21  4  0
 21 26  4  0
 22 26  4  0
M  END
$$$$

 Created by Python create_sdf_string function

 28 30  0  0  0  0  0  0  0  0999 V2000
    5.7174   -8.4529   26.7190 C   0  0  0  0  0  0  0  0  0  0  0  0
    0.3974   -7.0711   27.5149 C   0  0  0  0  0  0  0  0  0  0  0  0
    2.5338   -7.6891   16.0102 C   0  0  0  0  0  0  0  0  0  0  0  0
    4.8690   -7.4380   26.4151 C   0  0  0  0  0  0  0  0  0  0  0  0
    2.3021   -5.6726   26.0378 C   0  0  0  0  0  0  0  0  0  0  0  0
    7.0880   -4.6163   27.0010 C   0  0  0  0  0  0  0  0  0  0  0  0
    8.3117   -4.3698   27.4436 C   0  0  0  0  0  0  0  0  0  0  0  0
    1.1339   -5.0515   26.3541 C   0  0  0  0  0  0  0  0  0  0  0  0
    4.8080   -8.0362   16.7101 C   0  0  0  0  0  0  0  0  0  0  0  0
   -1.2173   -3.9294   26.9717 O   0  0  0  0  0  0  0  0  0  0  0  0
   -1.0025   -5.0942   27.4586 C   0  0  0  0  0  0  0  0  0  0  0  0
    2.2474   -8.9123   16.6273 C   0  0  0  0  0  0  0  0  0  0  0  0
    4.4957   -9.2636   17.3041 C   0  0  0  0  0  0  0  0  0  0  0  0
   -1.8070   -5.6086   28.1920 O   0  0  0  0  0  0  0  0  0  0  0  0
   10.4296   -5.1799   28.3140 C   0  0  0  0  0  0  0  0  0  0  0  0
    6.6017   -5.9004   26.9187 C   0  0  0  0  0  0  0  0  0  0  0  0
    2.4761   -6.9940   26.4111 N   0  0  0  0  0  0  0  0  0  0  0  0
    9.1353   -5.4053   27.8239 C   0  0  0  0  0  0  0  0  0  0  0  0
    0.9922   -9.3232   16.5995 O   0  0  0  0  0  0  0  0  0  0  0  0
    1.5232   -7.6869   27.1182 C   0  0  0  0  0  0  0  0  0  0  0  0
    8.6878   -6.6715   27.7262 N   0  0  0  0  0  0  0  0  0  0  0  0
    6.9911   -8.2423   27.1808 C   0  0  0  0  0  0  0  0  0  0  0  0
    3.8436   -7.2758   16.0578 C   0  0  0  0  0  0  0  0  0  0  0  0
    3.1882   -9.7190   17.2566 C   0  0  0  0  0  0  0  0  0  0  0  0
    5.3488   -6.1737   26.5092 C   0  0  0  0  0  0  0  0  0  0  0  0
    7.4567   -6.9464   27.2858 C   0  0  0  0  0  0  0  0  0  0  0  0
    0.1921   -5.7592   27.1123 C   0  0  0  0  0  0  0  0  0  0  0  0
    3.5517   -7.7407   25.9711 C   0  0  0  0  0  0  0  0  0  0  0  0
  1  4  4  0
  1 22  4  0
  2 20  4  0
  2 27  4  0
  3 12  4  0
  3 23  4  0
  4 25  4  0
  4 28  1  0
  5  8  4  0
  5 17  4  0
  6  7  4  0
  6 16  4  0
  7 18  4  0
  8 27  4  0
  9 13  4  0
  9 23  4  0
 10 11  1  0
 11 14  2  0
 11 27  1  0
 12 19  1  0
 12 24  4  0
 13 24  4  0
 15 18  1  0
 16 25  4  0
 16 26  4  0
 17 20  4  0
 17 28  1  0
 18 21  4  0
 21 26  4  0
 22 26  4  0
M  END
$$$$

 Created by Python create_sdf_string function

 28 30  0  0  0  0  0  0  0  0999 V2000
    5.7174   -8.4529   26.7190 C   0  0  0  0  0  0  0  0  0  0  0  0
    0.3974   -7.0711   27.5149 C   0  0  0  0  0  0  0  0  0  0  0  0
    2.5338   -7.6891   16.0102 C   0  0  0  0  0  0  0  0  0  0  0  0
    4.8690   -7.4380   26.4151 C   0  0  0  0  0  0  0  0  0  0  0  0
    2.3021   -5.6726   26.0378 C   0  0  0  0  0  0  0  0  0  0  0  0
    7.0880   -4.6163   27.0010 C   0  0  0  0  0  0  0  0  0  0  0  0
    8.3117   -4.3698   27.4436 C   0  0  0  0  0  0  0  0  0  0  0  0
    1.1339   -5.0515   26.3541 C   0  0  0  0  0  0  0  0  0  0  0  0
    4.8080   -8.0362   16.7101 C   0  0  0  0  0  0  0  0  0  0  0  0
   -1.2173   -3.9294   26.9717 O   0  0  0  0  0  0  0  0  0  0  0  0
   -1.0025   -5.0942   27.4586 C   0  0  0  0  0  0  0  0  0  0  0  0
    2.2474   -8.9123   16.6273 C   0  0  0  0  0  0  0  0  0  0  0  0
    4.4957   -9.2636   17.3041 C   0  0  0  0  0  0  0  0  0  0  0  0
   -1.8070   -5.6086   28.1920 O   0  0  0  0  0  0  0  0  0  0  0  0
   10.4296   -5.1799   28.3140 C   0  0  0  0  0  0  0  0  0  0  0  0
    6.6017   -5.9004   26.9187 C   0  0  0  0  0  0  0  0  0  0  0  0
    2.4761   -6.9940   26.4111 N   0  0  0  0  0  0  0  0  0  0  0  0
    9.1353   -5.4053   27.8239 C   0  0  0  0  0  0  0  0  0  0  0  0
    0.9922   -9.3232   16.5995 O   0  0  0  0  0  0  0  0  0  0  0  0
    1.5232   -7.6869   27.1182 C   0  0  0  0  0  0  0  0  0  0  0  0
    8.6878   -6.6715   27.7262 N   0  0  0  0  0  0  0  0  0  0  0  0
    6.9911   -8.2423   27.1808 C   0  0  0  0  0  0  0  0  0  0  0  0
    3.8436   -7.2758   16.0578 C   0  0  0  0  0  0  0  0  0  0  0  0
    3.1882   -9.7190   17.2566 C   0  0  0  0  0  0  0  0  0  0  0  0
    5.3488   -6.1737   26.5092 C   0  0  0  0  0  0  0  0  0  0  0  0
    7.4567   -6.9464   27.2858 C   0  0  0  0  0  0  0  0  0  0  0  0
    0.1921   -5.7592   27.1123 C   0  0  0  0  0  0  0  0  0  0  0  0
    3.5517   -7.7407   25.9711 C   0  0  0  0  0  0  0  0  0  0  0  0
  1  4  4  0
  1 22  4  0
  2 20  4  0
  2 27  4  0
  3 12  4  0
  3 23  4  0
  4 25  4  0
  4 28  1  0
  5  8  4  0
  5 17  4  0
  6  7  4  0
  6 16  4  0
  7 18  4  0
  8 27  4  0
  9 13  4  0
  9 23  4  0
 10 11  1  0
 11 14  2  0
 11 27  1  0
 12 19  1  0
 12 24  4  0
 13 24  4  0
 15 18  1  0
 16 25  4  0
 16 26  4  0
 17 20  4  0
 17 28  1  0
 18 21  4  0
 21 26  4  0
 22 26  4  0
M  END
$$$$

 Created by Python create_sdf_string function

 28 30  0  0  0  0  0  0  0  0999 V2000
    5.7174   -8.4529   26.7190 C   0  0  0  0  0  0  0  0  0  0  0  0
    0.3974   -7.0711   27.5149 C   0  0  0  0  0  0  0  0  0  0  0  0
    2.5338   -7.6891   16.0102 C   0  0  0  0  0  0  0  0  0  0  0  0
    4.8690   -7.4380   26.4151 C   0  0  0  0  0  0  0  0  0  0  0  0
    2.3021   -5.6726   26.0378 C   0  0  0  0  0  0  0  0  0  0  0  0
    7.0880   -4.6163   27.0010 C   0  0  0  0  0  0  0  0  0  0  0  0
    8.3117   -4.3698   27.4436 C   0  0  0  0  0  0  0  0  0  0  0  0
    1.1339   -5.0515   26.3541 C   0  0  0  0  0  0  0  0  0  0  0  0
    4.8080   -8.0362   16.7101 C   0  0  0  0  0  0  0  0  0  0  0  0
   -1.2173   -3.9294   26.9717 O   0  0  0  0  0  0  0  0  0  0  0  0
   -1.0025   -5.0942   27.4586 C   0  0  0  0  0  0  0  0  0  0  0  0
    2.2474   -8.9123   16.6273 C   0  0  0  0  0  0  0  0  0  0  0  0
    4.4957   -9.2636   17.3041 C   0  0  0  0  0  0  0  0  0  0  0  0
   -1.8070   -5.6086   28.1920 O   0  0  0  0  0  0  0  0  0  0  0  0
   10.4296   -5.1799   28.3140 C   0  0  0  0  0  0  0  0  0  0  0  0
    6.6017   -5.9004   26.9187 C   0  0  0  0  0  0  0  0  0  0  0  0
    2.4761   -6.9940   26.4111 N   0  0  0  0  0  0  0  0  0  0  0  0
    9.1353   -5.4053   27.8239 C   0  0  0  0  0  0  0  0  0  0  0  0
    0.9922   -9.3232   16.5995 O   0  0  0  0  0  0  0  0  0  0  0  0
    1.5232   -7.6869   27.1182 C   0  0  0  0  0  0  0  0  0  0  0  0
    8.6878   -6.6715   27.7262 N   0  0  0  0  0  0  0  0  0  0  0  0
    6.9911   -8.2423   27.1808 C   0  0  0  0  0  0  0  0  0  0  0  0
    3.8436   -7.2758   16.0578 C   0  0  0  0  0  0  0  0  0  0  0  0
    3.1882   -9.7190   17.2566 C   0  0  0  0  0  0  0  0  0  0  0  0
    5.3488   -6.1737   26.5092 C   0  0  0  0  0  0  0  0  0  0  0  0
    7.4567   -6.9464   27.2858 C   0  0  0  0  0  0  0  0  0  0  0  0
    0.1921   -5.7592   27.1123 C   0  0  0  0  0  0  0  0  0  0  0  0
    3.5517   -7.7407   25.9711 C   0  0  0  0  0  0  0  0  0  0  0  0
  1  4  4  0
  1 22  4  0
  2 20  4  0
  2 27  4  0
  3 12  4  0
  3 23  4  0
  4 25  4  0
  4 28  1  0
  5  8  4  0
  5 17  4  0
  6  7  4  0
  6 16  4  0
  7 18  4  0
  8 27  4  0
  9 13  4  0
  9 23  4  0
 10 11  1  0
 11 14  2  0
 11 27  1  0
 12 19  1  0
 12 24  4  0
 13 24  4  0
 15 18  1  0
 16 25  4  0
 16 26  4  0
 17 20  4  0
 17 28  1  0
 18 21  4  0
 21 26  4  0
 22 26  4  0
M  END
$$$$

 Created by Python create_sdf_string function

 28 30  0  0  0  0  0  0  0  0999 V2000
    5.7174   -8.4529   26.7190 C   0  0  0  0  0  0  0  0  0  0  0  0
    0.3974   -7.0711   27.5149 C   0  0  0  0  0  0  0  0  0  0  0  0
    2.5338   -7.6891   16.0102 C   0  0  0  0  0  0  0  0  0  0  0  0
    4.8690   -7.4380   26.4151 C   0  0  0  0  0  0  0  0  0  0  0  0
    2.3021   -5.6726   26.0378 C   0  0  0  0  0  0  0  0  0  0  0  0
    7.0880   -4.6163   27.0010 C   0  0  0  0  0  0  0  0  0  0  0  0
    8.3117   -4.3698   27.4436 C   0  0  0  0  0  0  0  0  0  0  0  0
    1.1339   -5.0515   26.3541 C   0  0  0  0  0  0  0  0  0  0  0  0
    4.8080   -8.0362   16.7101 C   0  0  0  0  0  0  0  0  0  0  0  0
   -1.2173   -3.9294   26.9717 O   0  0  0  0  0  0  0  0  0  0  0  0
   -1.0025   -5.0942   27.4586 C   0  0  0  0  0  0  0  0  0  0  0  0
    2.2474   -8.9123   16.6273 C   0  0  0  0  0  0  0  0  0  0  0  0
    4.4957   -9.2636   17.3041 C   0  0  0  0  0  0  0  0  0  0  0  0
   -1.8070   -5.6086   28.1920 O   0  0  0  0  0  0  0  0  0  0  0  0
   10.4296   -5.1799   28.3140 C   0  0  0  0  0  0  0  0  0  0  0  0
    6.6017   -5.9004   26.9187 C   0  0  0  0  0  0  0  0  0  0  0  0
    2.4761   -6.9940   26.4111 N   0  0  0  0  0  0  0  0  0  0  0  0
    9.1353   -5.4053   27.8239 C   0  0  0  0  0  0  0  0  0  0  0  0
    0.9922   -9.3232   16.5995 O   0  0  0  0  0  0  0  0  0  0  0  0
    1.5232   -7.6869   27.1182 C   0  0  0  0  0  0  0  0  0  0  0  0
    8.6878   -6.6715   27.7262 N   0  0  0  0  0  0  0  0  0  0  0  0
    6.9911   -8.2423   27.1808 C   0  0  0  0  0  0  0  0  0  0  0  0
    3.8436   -7.2758   16.0578 C   0  0  0  0  0  0  0  0  0  0  0  0
    3.1882   -9.7190   17.2566 C   0  0  0  0  0  0  0  0  0  0  0  0
    5.3488   -6.1737   26.5092 C   0  0  0  0  0  0  0  0  0  0  0  0
    7.4567   -6.9464   27.2858 C   0  0  0  0  0  0  0  0  0  0  0  0
    0.1921   -5.7592   27.1123 C   0  0  0  0  0  0  0  0  0  0  0  0
    3.5517   -7.7407   25.9711 C   0  0  0  0  0  0  0  0  0  0  0  0
  1  4  4  0
  1 22  4  0
  2 20  4  0
  2 27  4  0
  3 12  4  0
  3 23  4  0
  4 25  4  0
  4 28  1  0
  5  8  4  0
  5 17  4  0
  6  7  4  0
  6 16  4  0
  7 18  4  0
  8 27  4  0
  9 13  4  0
  9 23  4  0
 10 11  1  0
 11 14  2  0
 11 27  1  0
 12 19  1  0
 12 24  4  0
 13 24  4  0
 15 18  1  0
 16 25  4  0
 16 26  4  0
 17 20  4  0
 17 28  1  0
 18 21  4  0
 21 26  4  0
 22 26  4  0
M  END
$$$$

 Created by Python create_sdf_string function

 28 30  0  0  0  0  0  0  0  0999 V2000
    5.7174   -8.4529   26.7190 C   0  0  0  0  0  0  0  0  0  0  0  0
    0.3974   -7.0711   27.5149 C   0  0  0  0  0  0  0  0  0  0  0  0
    2.5338   -7.6891   16.0102 C   0  0  0  0  0  0  0  0  0  0  0  0
    4.8690   -7.4380   26.4151 C   0  0  0  0  0  0  0  0  0  0  0  0
    2.3021   -5.6726   26.0378 C   0  0  0  0  0  0  0  0  0  0  0  0
    7.0880   -4.6163   27.0010 C   0  0  0  0  0  0  0  0  0  0  0  0
    8.3117   -4.3698   27.4436 C   0  0  0  0  0  0  0  0  0  0  0  0
    1.1339   -5.0515   26.3541 C   0  0  0  0  0  0  0  0  0  0  0  0
    4.8080   -8.0362   16.7101 C   0  0  0  0  0  0  0  0  0  0  0  0
   -1.2173   -3.9294   26.9717 O   0  0  0  0  0  0  0  0  0  0  0  0
   -1.0025   -5.0942   27.4586 C   0  0  0  0  0  0  0  0  0  0  0  0
    2.2474   -8.9123   16.6273 C   0  0  0  0  0  0  0  0  0  0  0  0
    4.4957   -9.2636   17.3041 C   0  0  0  0  0  0  0  0  0  0  0  0
   -1.8070   -5.6086   28.1920 O   0  0  0  0  0  0  0  0  0  0  0  0
   10.4296   -5.1799   28.3140 C   0  0  0  0  0  0  0  0  0  0  0  0
    6.6017   -5.9004   26.9187 C   0  0  0  0  0  0  0  0  0  0  0  0
    2.4761   -6.9940   26.4111 N   0  0  0  0  0  0  0  0  0  0  0  0
    9.1353   -5.4053   27.8239 C   0  0  0  0  0  0  0  0  0  0  0  0
    0.9922   -9.3232   16.5995 O   0  0  0  0  0  0  0  0  0  0  0  0
    1.5232   -7.6869   27.1182 C   0  0  0  0  0  0  0  0  0  0  0  0
    8.6878   -6.6715   27.7262 N   0  0  0  0  0  0  0  0  0  0  0  0
    6.9911   -8.2423   27.1808 C   0  0  0  0  0  0  0  0  0  0  0  0
    3.8436   -7.2758   16.0578 C   0  0  0  0  0  0  0  0  0  0  0  0
    3.1882   -9.7190   17.2566 C   0  0  0  0  0  0  0  0  0  0  0  0
    5.3488   -6.1737   26.5092 C   0  0  0  0  0  0  0  0  0  0  0  0
    7.4567   -6.9464   27.2858 C   0  0  0  0  0  0  0  0  0  0  0  0
    0.1921   -5.7592   27.1123 C   0  0  0  0  0  0  0  0  0  0  0  0
    3.5517   -7.7407   25.9711 C   0  0  0  0  0  0  0  0  0  0  0  0
  1  4  4  0
  1 22  4  0
  2 20  4  0
  2 27  4  0
  3 12  4  0
  3 23  4  0
  4 25  4  0
  4 28  1  0
  5  8  4  0
  5 17  4  0
  6  7  4  0
  6 16  4  0
  7 18  4  0
  8 27  4  0
  9 13  4  0
  9 23  4  0
 10 11  1  0
 11 14  2  0
 11 27  1  0
 12 19  1  0
 12 24  4  0
 13 24  4  0
 15 18  1  0
 16 25  4  0
 16 26  4  0
 17 20  4  0
 17 28  1  0
 18 21  4  0
 21 26  4  0
 22 26  4  0
M  END
$$$$

 Created by Python create_sdf_string function

 28 30  0  0  0  0  0  0  0  0999 V2000
    5.7174   -8.4529   26.7190 C   0  0  0  0  0  0  0  0  0  0  0  0
    0.3974   -7.0711   27.5149 C   0  0  0  0  0  0  0  0  0  0  0  0
    2.5338   -7.6891   16.0102 C   0  0  0  0  0  0  0  0  0  0  0  0
    4.8690   -7.4380   26.4151 C   0  0  0  0  0  0  0  0  0  0  0  0
    2.3021   -5.6726   26.0378 C   0  0  0  0  0  0  0  0  0  0  0  0
    7.0880   -4.6163   27.0010 C   0  0  0  0  0  0  0  0  0  0  0  0
    8.3117   -4.3698   27.4436 C   0  0  0  0  0  0  0  0  0  0  0  0
    1.1339   -5.0515   26.3541 C   0  0  0  0  0  0  0  0  0  0  0  0
    4.8080   -8.0362   16.7101 C   0  0  0  0  0  0  0  0  0  0  0  0
   -1.2173   -3.9294   26.9717 O   0  0  0  0  0  0  0  0  0  0  0  0
   -1.0025   -5.0942   27.4586 C   0  0  0  0  0  0  0  0  0  0  0  0
    2.2474   -8.9123   16.6273 C   0  0  0  0  0  0  0  0  0  0  0  0
    4.4957   -9.2636   17.3041 C   0  0  0  0  0  0  0  0  0  0  0  0
   -1.8070   -5.6086   28.1920 O   0  0  0  0  0  0  0  0  0  0  0  0
   10.4296   -5.1799   28.3140 C   0  0  0  0  0  0  0  0  0  0  0  0
    6.6017   -5.9004   26.9187 C   0  0  0  0  0  0  0  0  0  0  0  0
    2.4761   -6.9940   26.4111 N   0  0  0  0  0  0  0  0  0  0  0  0
    9.1353   -5.4053   27.8239 C   0  0  0  0  0  0  0  0  0  0  0  0
    0.9922   -9.3232   16.5995 O   0  0  0  0  0  0  0  0  0  0  0  0
    1.5232   -7.6869   27.1182 C   0  0  0  0  0  0  0  0  0  0  0  0
    8.6878   -6.6715   27.7262 N   0  0  0  0  0  0  0  0  0  0  0  0
    6.9911   -8.2423   27.1808 C   0  0  0  0  0  0  0  0  0  0  0  0
    3.8436   -7.2758   16.0578 C   0  0  0  0  0  0  0  0  0  0  0  0
    3.1882   -9.7190   17.2566 C   0  0  0  0  0  0  0  0  0  0  0  0
    5.3488   -6.1737   26.5092 C   0  0  0  0  0  0  0  0  0  0  0  0
    7.4567   -6.9464   27.2858 C   0  0  0  0  0  0  0  0  0  0  0  0
    0.1921   -5.7592   27.1123 C   0  0  0  0  0  0  0  0  0  0  0  0
    3.5517   -7.7407   25.9711 C   0  0  0  0  0  0  0  0  0  0  0  0
  1  4  4  0
  1 22  4  0
  2 20  4  0
  2 27  4  0
  3 12  4  0
  3 23  4  0
  4 25  4  0
  4 28  1  0
  5  8  4  0
  5 17  4  0
  6  7  4  0
  6 16  4  0
  7 18  4  0
  8 27  4  0
  9 13  4  0
  9 23  4  0
 10 11  1  0
 11 14  2  0
 11 27  1  0
 12 19  1  0
 12 24  4  0
 13 24  4  0
 15 18  1  0
 16 25  4  0
 16 26  4  0
 17 20  4  0
 17 28  1  0
 18 21  4  0
 21 26  4  0
 22 26  4  0
M  END
$$$$

 Created by Python create_sdf_string function

 28 30  0  0  0  0  0  0  0  0999 V2000
    5.7174   -8.4529   26.7190 C   0  0  0  0  0  0  0  0  0  0  0  0
    0.3974   -7.0711   27.5149 C   0  0  0  0  0  0  0  0  0  0  0  0
    2.5338   -7.6891   16.0102 C   0  0  0  0  0  0  0  0  0  0  0  0
    4.8690   -7.4380   26.4151 C   0  0  0  0  0  0  0  0  0  0  0  0
    2.3021   -5.6726   26.0378 C   0  0  0  0  0  0  0  0  0  0  0  0
    7.0880   -4.6163   27.0010 C   0  0  0  0  0  0  0  0  0  0  0  0
    8.3117   -4.3698   27.4436 C   0  0  0  0  0  0  0  0  0  0  0  0
    1.1339   -5.0515   26.3541 C   0  0  0  0  0  0  0  0  0  0  0  0
    4.8080   -8.0362   16.7101 C   0  0  0  0  0  0  0  0  0  0  0  0
   -1.2173   -3.9294   26.9717 O   0  0  0  0  0  0  0  0  0  0  0  0
   -1.0025   -5.0942   27.4586 C   0  0  0  0  0  0  0  0  0  0  0  0
    2.2474   -8.9123   16.6273 C   0  0  0  0  0  0  0  0  0  0  0  0
    4.4957   -9.2636   17.3041 C   0  0  0  0  0  0  0  0  0  0  0  0
   -1.8070   -5.6086   28.1920 O   0  0  0  0  0  0  0  0  0  0  0  0
   10.4296   -5.1799   28.3140 C   0  0  0  0  0  0  0  0  0  0  0  0
    6.6017   -5.9004   26.9187 C   0  0  0  0  0  0  0  0  0  0  0  0
    2.4761   -6.9940   26.4111 N   0  0  0  0  0  0  0  0  0  0  0  0
    9.1353   -5.4053   27.8239 C   0  0  0  0  0  0  0  0  0  0  0  0
    0.9922   -9.3232   16.5995 O   0  0  0  0  0  0  0  0  0  0  0  0
    1.5232   -7.6869   27.1182 C   0  0  0  0  0  0  0  0  0  0  0  0
    8.6878   -6.6715   27.7262 N   0  0  0  0  0  0  0  0  0  0  0  0
    6.9911   -8.2423   27.1808 C   0  0  0  0  0  0  0  0  0  0  0  0
    3.8436   -7.2758   16.0578 C   0  0  0  0  0  0  0  0  0  0  0  0
    3.1882   -9.7190   17.2566 C   0  0  0  0  0  0  0  0  0  0  0  0
    5.3488   -6.1737   26.5092 C   0  0  0  0  0  0  0  0  0  0  0  0
    7.4567   -6.9464   27.2858 C   0  0  0  0  0  0  0  0  0  0  0  0
    0.1921   -5.7592   27.1123 C   0  0  0  0  0  0  0  0  0  0  0  0
    3.5517   -7.7407   25.9711 C   0  0  0  0  0  0  0  0  0  0  0  0
  1  4  4  0
  1 22  4  0
  2 20  4  0
  2 27  4  0
  3 12  4  0
  3 23  4  0
  4 25  4  0
  4 28  1  0
  5  8  4  0
  5 17  4  0
  6  7  4  0
  6 16  4  0
  7 18  4  0
  8 27  4  0
  9 13  4  0
  9 23  4  0
 10 11  1  0
 11 14  2  0
 11 27  1  0
 12 19  1  0
 12 24  4  0
 13 24  4  0
 15 18  1  0
 16 25  4  0
 16 26  4  0
 17 20  4  0
 17 28  1  0
 18 21  4  0
 21 26  4  0
 22 26  4  0
M  END
$$$$

 Created by Python create_sdf_string function

 28 30  0  0  0  0  0  0  0  0999 V2000
    5.7174   -8.4529   26.7190 C   0  0  0  0  0  0  0  0  0  0  0  0
    0.3974   -7.0711   27.5149 C   0  0  0  0  0  0  0  0  0  0  0  0
    2.5338   -7.6891   16.0102 C   0  0  0  0  0  0  0  0  0  0  0  0
    4.8690   -7.4380   26.4151 C   0  0  0  0  0  0  0  0  0  0  0  0
    2.3021   -5.6726   26.0378 C   0  0  0  0  0  0  0  0  0  0  0  0
    7.0880   -4.6163   27.0010 C   0  0  0  0  0  0  0  0  0  0  0  0
    8.3117   -4.3698   27.4436 C   0  0  0  0  0  0  0  0  0  0  0  0
    1.1339   -5.0515   26.3541 C   0  0  0  0  0  0  0  0  0  0  0  0
    4.8080   -8.0362   16.7101 C   0  0  0  0  0  0  0  0  0  0  0  0
   -1.2173   -3.9294   26.9717 O   0  0  0  0  0  0  0  0  0  0  0  0
   -1.0025   -5.0942   27.4586 C   0  0  0  0  0  0  0  0  0  0  0  0
    2.2474   -8.9123   16.6273 C   0  0  0  0  0  0  0  0  0  0  0  0
    4.4957   -9.2636   17.3041 C   0  0  0  0  0  0  0  0  0  0  0  0
   -1.8070   -5.6086   28.1920 O   0  0  0  0  0  0  0  0  0  0  0  0
   10.4296   -5.1799   28.3140 C   0  0  0  0  0  0  0  0  0  0  0  0
    6.6017   -5.9004   26.9187 C   0  0  0  0  0  0  0  0  0  0  0  0
    2.4761   -6.9940   26.4111 N   0  0  0  0  0  0  0  0  0  0  0  0
    9.1353   -5.4053   27.8239 C   0  0  0  0  0  0  0  0  0  0  0  0
    0.9922   -9.3232   16.5995 O   0  0  0  0  0  0  0  0  0  0  0  0
    1.5232   -7.6869   27.1182 C   0  0  0  0  0  0  0  0  0  0  0  0
    8.6878   -6.6715   27.7262 N   0  0  0  0  0  0  0  0  0  0  0  0
    6.9911   -8.2423   27.1808 C   0  0  0  0  0  0  0  0  0  0  0  0
    3.8436   -7.2758   16.0578 C   0  0  0  0  0  0  0  0  0  0  0  0
    3.1882   -9.7190   17.2566 C   0  0  0  0  0  0  0  0  0  0  0  0
    5.3488   -6.1737   26.5092 C   0  0  0  0  0  0  0  0  0  0  0  0
    7.4567   -6.9464   27.2858 C   0  0  0  0  0  0  0  0  0  0  0  0
    0.1921   -5.7592   27.1123 C   0  0  0  0  0  0  0  0  0  0  0  0
    3.5517   -7.7407   25.9711 C   0  0  0  0  0  0  0  0  0  0  0  0
  1  4  4  0
  1 22  4  0
  2 20  4  0
  2 27  4  0
  3 12  4  0
  3 23  4  0
  4 25  4  0
  4 28  1  0
  5  8  4  0
  5 17  4  0
  6  7  4  0
  6 16  4  0
  7 18  4  0
  8 27  4  0
  9 13  4  0
  9 23  4  0
 10 11  1  0
 11 14  2  0
 11 27  1  0
 12 19  1  0
 12 24  4  0
 13 24  4  0
 15 18  1  0
 16 25  4  0
 16 26  4  0
 17 20  4  0
 17 28  1  0
 18 21  4  0
 21 26  4  0
 22 26  4  0
M  END
$$$$

 Created by Python create_sdf_string function

 28 30  0  0  0  0  0  0  0  0999 V2000
    5.7174   -8.4529   26.7190 C   0  0  0  0  0  0  0  0  0  0  0  0
    0.3974   -7.0711   27.5149 C   0  0  0  0  0  0  0  0  0  0  0  0
    2.5338   -7.6891   16.0102 C   0  0  0  0  0  0  0  0  0  0  0  0
    4.8690   -7.4380   26.4151 C   0  0  0  0  0  0  0  0  0  0  0  0
    2.3021   -5.6726   26.0378 C   0  0  0  0  0  0  0  0  0  0  0  0
    7.0880   -4.6163   27.0010 C   0  0  0  0  0  0  0  0  0  0  0  0
    8.3117   -4.3698   27.4436 C   0  0  0  0  0  0  0  0  0  0  0  0
    1.1339   -5.0515   26.3541 C   0  0  0  0  0  0  0  0  0  0  0  0
    4.8080   -8.0362   16.7101 C   0  0  0  0  0  0  0  0  0  0  0  0
   -1.2173   -3.9294   26.9717 O   0  0  0  0  0  0  0  0  0  0  0  0
   -1.0025   -5.0942   27.4586 C   0  0  0  0  0  0  0  0  0  0  0  0
    2.2474   -8.9123   16.6273 C   0  0  0  0  0  0  0  0  0  0  0  0
    4.4957   -9.2636   17.3041 C   0  0  0  0  0  0  0  0  0  0  0  0
   -1.8070   -5.6086   28.1920 O   0  0  0  0  0  0  0  0  0  0  0  0
   10.4296   -5.1799   28.3140 C   0  0  0  0  0  0  0  0  0  0  0  0
    6.6017   -5.9004   26.9187 C   0  0  0  0  0  0  0  0  0  0  0  0
    2.4761   -6.9940   26.4111 N   0  0  0  0  0  0  0  0  0  0  0  0
    9.1353   -5.4053   27.8239 C   0  0  0  0  0  0  0  0  0  0  0  0
    0.9922   -9.3232   16.5995 O   0  0  0  0  0  0  0  0  0  0  0  0
    1.5232   -7.6869   27.1182 C   0  0  0  0  0  0  0  0  0  0  0  0
    8.6878   -6.6715   27.7262 N   0  0  0  0  0  0  0  0  0  0  0  0
    6.9911   -8.2423   27.1808 C   0  0  0  0  0  0  0  0  0  0  0  0
    3.8436   -7.2758   16.0578 C   0  0  0  0  0  0  0  0  0  0  0  0
    3.1882   -9.7190   17.2566 C   0  0  0  0  0  0  0  0  0  0  0  0
    5.3488   -6.1737   26.5092 C   0  0  0  0  0  0  0  0  0  0  0  0
    7.4567   -6.9464   27.2858 C   0  0  0  0  0  0  0  0  0  0  0  0
    0.1921   -5.7592   27.1123 C   0  0  0  0  0  0  0  0  0  0  0  0
    3.5517   -7.7407   25.9711 C   0  0  0  0  0  0  0  0  0  0  0  0
  1  4  4  0
  1 22  4  0
  2 20  4  0
  2 27  4  0
  3 12  4  0
  3 23  4  0
  4 25  4  0
  4 28  1  0
  5  8  4  0
  5 17  4  0
  6  7  4  0
  6 16  4  0
  7 18  4  0
  8 27  4  0
  9 13  4  0
  9 23  4  0
 10 11  1  0
 11 14  2  0
 11 27  1  0
 12 19  1  0
 12 24  4  0
 13 24  4  0
 15 18  1  0
 16 25  4  0
 16 26  4  0
 17 20  4  0
 17 28  1  0
 18 21  4  0
 21 26  4  0
 22 26  4  0
M  END
$$$$

 Created by Python create_sdf_string function

 28 30  0  0  0  0  0  0  0  0999 V2000
    5.7174   -8.4529   26.7190 C   0  0  0  0  0  0  0  0  0  0  0  0
    0.3974   -7.0711   27.5149 C   0  0  0  0  0  0  0  0  0  0  0  0
    2.5338   -7.6891   16.0102 C   0  0  0  0  0  0  0  0  0  0  0  0
    4.8690   -7.4380   26.4151 C   0  0  0  0  0  0  0  0  0  0  0  0
    2.3021   -5.6726   26.0378 C   0  0  0  0  0  0  0  0  0  0  0  0
    7.0880   -4.6163   27.0010 C   0  0  0  0  0  0  0  0  0  0  0  0
    8.3117   -4.3698   27.4436 C   0  0  0  0  0  0  0  0  0  0  0  0
    1.1339   -5.0515   26.3541 C   0  0  0  0  0  0  0  0  0  0  0  0
    4.8080   -8.0362   16.7101 C   0  0  0  0  0  0  0  0  0  0  0  0
   -1.2173   -3.9294   26.9717 O   0  0  0  0  0  0  0  0  0  0  0  0
   -1.0025   -5.0942   27.4586 C   0  0  0  0  0  0  0  0  0  0  0  0
    2.2474   -8.9123   16.6273 C   0  0  0  0  0  0  0  0  0  0  0  0
    4.4957   -9.2636   17.3041 C   0  0  0  0  0  0  0  0  0  0  0  0
   -1.8070   -5.6086   28.1920 O   0  0  0  0  0  0  0  0  0  0  0  0
   10.4296   -5.1799   28.3140 C   0  0  0  0  0  0  0  0  0  0  0  0
    6.6017   -5.9004   26.9187 C   0  0  0  0  0  0  0  0  0  0  0  0
    2.4761   -6.9940   26.4111 N   0  0  0  0  0  0  0  0  0  0  0  0
    9.1353   -5.4053   27.8239 C   0  0  0  0  0  0  0  0  0  0  0  0
    0.9922   -9.3232   16.5995 O   0  0  0  0  0  0  0  0  0  0  0  0
    1.5232   -7.6869   27.1182 C   0  0  0  0  0  0  0  0  0  0  0  0
    8.6878   -6.6715   27.7262 N   0  0  0  0  0  0  0  0  0  0  0  0
    6.9911   -8.2423   27.1808 C   0  0  0  0  0  0  0  0  0  0  0  0
    3.8436   -7.2758   16.0578 C   0  0  0  0  0  0  0  0  0  0  0  0
    3.1882   -9.7190   17.2566 C   0  0  0  0  0  0  0  0  0  0  0  0
    5.3488   -6.1737   26.5092 C   0  0  0  0  0  0  0  0  0  0  0  0
    7.4567   -6.9464   27.2858 C   0  0  0  0  0  0  0  0  0  0  0  0
    0.1921   -5.7592   27.1123 C   0  0  0  0  0  0  0  0  0  0  0  0
    3.5517   -7.7407   25.9711 C   0  0  0  0  0  0  0  0  0  0  0  0
  1  4  4  0
  1 22  4  0
  2 20  4  0
  2 27  4  0
  3 12  4  0
  3 23  4  0
  4 25  4  0
  4 28  1  0
  5  8  4  0
  5 17  4  0
  6  7  4  0
  6 16  4  0
  7 18  4  0
  8 27  4  0
  9 13  4  0
  9 23  4  0
 10 11  1  0
 11 14  2  0
 11 27  1  0
 12 19  1  0
 12 24  4  0
 13 24  4  0
 15 18  1  0
 16 25  4  0
 16 26  4  0
 17 20  4  0
 17 28  1  0
 18 21  4  0
 21 26  4  0
 22 26  4  0
M  END
$$$$

 Created by Python create_sdf_string function

 28 30  0  0  0  0  0  0  0  0999 V2000
    5.7174   -8.4529   26.7190 C   0  0  0  0  0  0  0  0  0  0  0  0
    0.3974   -7.0711   27.5149 C   0  0  0  0  0  0  0  0  0  0  0  0
    2.5338   -7.6891   16.0102 C   0  0  0  0  0  0  0  0  0  0  0  0
    4.8690   -7.4380   26.4151 C   0  0  0  0  0  0  0  0  0  0  0  0
    2.3021   -5.6726   26.0378 C   0  0  0  0  0  0  0  0  0  0  0  0
    7.0880   -4.6163   27.0010 C   0  0  0  0  0  0  0  0  0  0  0  0
    8.3117   -4.3698   27.4436 C   0  0  0  0  0  0  0  0  0  0  0  0
    1.1339   -5.0515   26.3541 C   0  0  0  0  0  0  0  0  0  0  0  0
    4.8080   -8.0362   16.7101 C   0  0  0  0  0  0  0  0  0  0  0  0
   -1.2173   -3.9294   26.9717 O   0  0  0  0  0  0  0  0  0  0  0  0
   -1.0025   -5.0942   27.4586 C   0  0  0  0  0  0  0  0  0  0  0  0
    2.2474   -8.9123   16.6273 C   0  0  0  0  0  0  0  0  0  0  0  0
    4.4957   -9.2636   17.3041 C   0  0  0  0  0  0  0  0  0  0  0  0
   -1.8070   -5.6086   28.1920 O   0  0  0  0  0  0  0  0  0  0  0  0
   10.4296   -5.1799   28.3140 C   0  0  0  0  0  0  0  0  0  0  0  0
    6.6017   -5.9004   26.9187 C   0  0  0  0  0  0  0  0  0  0  0  0
    2.4761   -6.9940   26.4111 N   0  0  0  0  0  0  0  0  0  0  0  0
    9.1353   -5.4053   27.8239 C   0  0  0  0  0  0  0  0  0  0  0  0
    0.9922   -9.3232   16.5995 O   0  0  0  0  0  0  0  0  0  0  0  0
    1.5232   -7.6869   27.1182 C   0  0  0  0  0  0  0  0  0  0  0  0
    8.6878   -6.6715   27.7262 N   0  0  0  0  0  0  0  0  0  0  0  0
    6.9911   -8.2423   27.1808 C   0  0  0  0  0  0  0  0  0  0  0  0
    3.8436   -7.2758   16.0578 C   0  0  0  0  0  0  0  0  0  0  0  0
    3.1882   -9.7190   17.2566 C   0  0  0  0  0  0  0  0  0  0  0  0
    5.3488   -6.1737   26.5092 C   0  0  0  0  0  0  0  0  0  0  0  0
    7.4567   -6.9464   27.2858 C   0  0  0  0  0  0  0  0  0  0  0  0
    0.1921   -5.7592   27.1123 C   0  0  0  0  0  0  0  0  0  0  0  0
    3.5517   -7.7407   25.9711 C   0  0  0  0  0  0  0  0  0  0  0  0
  1  4  4  0
  1 22  4  0
  2 20  4  0
  2 27  4  0
  3 12  4  0
  3 23  4  0
  4 25  4  0
  4 28  1  0
  5  8  4  0
  5 17  4  0
  6  7  4  0
  6 16  4  0
  7 18  4  0
  8 27  4  0
  9 13  4  0
  9 23  4  0
 10 11  1  0
 11 14  2  0
 11 27  1  0
 12 19  1  0
 12 24  4  0
 13 24  4  0
 15 18  1  0
 16 25  4  0
 16 26  4  0
 17 20  4  0
 17 28  1  0
 18 21  4  0
 21 26  4  0
 22 26  4  0
M  END
$$$$

 Created by Python create_sdf_string function

 28 30  0  0  0  0  0  0  0  0999 V2000
    5.7174   -8.4529   26.7190 C   0  0  0  0  0  0  0  0  0  0  0  0
    0.3974   -7.0711   27.5149 C   0  0  0  0  0  0  0  0  0  0  0  0
    2.5338   -7.6891   16.0102 C   0  0  0  0  0  0  0  0  0  0  0  0
    4.8690   -7.4380   26.4151 C   0  0  0  0  0  0  0  0  0  0  0  0
    2.3021   -5.6726   26.0378 C   0  0  0  0  0  0  0  0  0  0  0  0
    7.0880   -4.6163   27.0010 C   0  0  0  0  0  0  0  0  0  0  0  0
    8.3117   -4.3698   27.4436 C   0  0  0  0  0  0  0  0  0  0  0  0
    1.1339   -5.0515   26.3541 C   0  0  0  0  0  0  0  0  0  0  0  0
    4.8080   -8.0362   16.7101 C   0  0  0  0  0  0  0  0  0  0  0  0
   -1.2173   -3.9294   26.9717 O   0  0  0  0  0  0  0  0  0  0  0  0
   -1.0025   -5.0942   27.4586 C   0  0  0  0  0  0  0  0  0  0  0  0
    2.2474   -8.9123   16.6273 C   0  0  0  0  0  0  0  0  0  0  0  0
    4.4957   -9.2636   17.3041 C   0  0  0  0  0  0  0  0  0  0  0  0
   -1.8070   -5.6086   28.1920 O   0  0  0  0  0  0  0  0  0  0  0  0
   10.4296   -5.1799   28.3140 C   0  0  0  0  0  0  0  0  0  0  0  0
    6.6017   -5.9004   26.9187 C   0  0  0  0  0  0  0  0  0  0  0  0
    2.4761   -6.9940   26.4111 N   0  0  0  0  0  0  0  0  0  0  0  0
    9.1353   -5.4053   27.8239 C   0  0  0  0  0  0  0  0  0  0  0  0
    0.9922   -9.3232   16.5995 O   0  0  0  0  0  0  0  0  0  0  0  0
    1.5232   -7.6869   27.1182 C   0  0  0  0  0  0  0  0  0  0  0  0
    8.6878   -6.6715   27.7262 N   0  0  0  0  0  0  0  0  0  0  0  0
    6.9911   -8.2423   27.1808 C   0  0  0  0  0  0  0  0  0  0  0  0
    3.8436   -7.2758   16.0578 C   0  0  0  0  0  0  0  0  0  0  0  0
    3.1882   -9.7190   17.2566 C   0  0  0  0  0  0  0  0  0  0  0  0
    5.3488   -6.1737   26.5092 C   0  0  0  0  0  0  0  0  0  0  0  0
    7.4567   -6.9464   27.2858 C   0  0  0  0  0  0  0  0  0  0  0  0
    0.1921   -5.7592   27.1123 C   0  0  0  0  0  0  0  0  0  0  0  0
    3.5517   -7.7407   25.9711 C   0  0  0  0  0  0  0  0  0  0  0  0
  1  4  4  0
  1 22  4  0
  2 20  4  0
  2 27  4  0
  3 12  4  0
  3 23  4  0
  4 25  4  0
  4 28  1  0
  5  8  4  0
  5 17  4  0
  6  7  4  0
  6 16  4  0
  7 18  4  0
  8 27  4  0
  9 13  4  0
  9 23  4  0
 10 11  1  0
 11 14  2  0
 11 27  1  0
 12 19  1  0
 12 24  4  0
 13 24  4  0
 15 18  1  0
 16 25  4  0
 16 26  4  0
 17 20  4  0
 17 28  1  0
 18 21  4  0
 21 26  4  0
 22 26  4  0
M  END
$$$$

 Created by Python create_sdf_string function

 28 30  0  0  0  0  0  0  0  0999 V2000
    5.7174   -8.4529   26.7190 C   0  0  0  0  0  0  0  0  0  0  0  0
    0.3974   -7.0711   27.5149 C   0  0  0  0  0  0  0  0  0  0  0  0
    2.5338   -7.6891   16.0102 C   0  0  0  0  0  0  0  0  0  0  0  0
    4.8690   -7.4380   26.4151 C   0  0  0  0  0  0  0  0  0  0  0  0
    2.3021   -5.6726   26.0378 C   0  0  0  0  0  0  0  0  0  0  0  0
    7.0880   -4.6163   27.0010 C   0  0  0  0  0  0  0  0  0  0  0  0
    8.3117   -4.3698   27.4436 C   0  0  0  0  0  0  0  0  0  0  0  0
    1.1339   -5.0515   26.3541 C   0  0  0  0  0  0  0  0  0  0  0  0
    4.8080   -8.0362   16.7101 C   0  0  0  0  0  0  0  0  0  0  0  0
   -1.2173   -3.9294   26.9717 O   0  0  0  0  0  0  0  0  0  0  0  0
   -1.0025   -5.0942   27.4586 C   0  0  0  0  0  0  0  0  0  0  0  0
    2.2474   -8.9123   16.6273 C   0  0  0  0  0  0  0  0  0  0  0  0
    4.4957   -9.2636   17.3041 C   0  0  0  0  0  0  0  0  0  0  0  0
   -1.8070   -5.6086   28.1920 O   0  0  0  0  0  0  0  0  0  0  0  0
   10.4296   -5.1799   28.3140 C   0  0  0  0  0  0  0  0  0  0  0  0
    6.6017   -5.9004   26.9187 C   0  0  0  0  0  0  0  0  0  0  0  0
    2.4761   -6.9940   26.4111 N   0  0  0  0  0  0  0  0  0  0  0  0
    9.1353   -5.4053   27.8239 C   0  0  0  0  0  0  0  0  0  0  0  0
    0.9922   -9.3232   16.5995 O   0  0  0  0  0  0  0  0  0  0  0  0
    1.5232   -7.6869   27.1182 C   0  0  0  0  0  0  0  0  0  0  0  0
    8.6878   -6.6715   27.7262 N   0  0  0  0  0  0  0  0  0  0  0  0
    6.9911   -8.2423   27.1808 C   0  0  0  0  0  0  0  0  0  0  0  0
    3.8436   -7.2758   16.0578 C   0  0  0  0  0  0  0  0  0  0  0  0
    3.1882   -9.7190   17.2566 C   0  0  0  0  0  0  0  0  0  0  0  0
    5.3488   -6.1737   26.5092 C   0  0  0  0  0  0  0  0  0  0  0  0
    7.4567   -6.9464   27.2858 C   0  0  0  0  0  0  0  0  0  0  0  0
    0.1921   -5.7592   27.1123 C   0  0  0  0  0  0  0  0  0  0  0  0
    3.5517   -7.7407   25.9711 C   0  0  0  0  0  0  0  0  0  0  0  0
  1  4  4  0
  1 22  4  0
  2 20  4  0
  2 27  4  0
  3 12  4  0
  3 23  4  0
  4 25  4  0
  4 28  1  0
  5  8  4  0
  5 17  4  0
  6  7  4  0
  6 16  4  0
  7 18  4  0
  8 27  4  0
  9 13  4  0
  9 23  4  0
 10 11  1  0
 11 14  2  0
 11 27  1  0
 12 19  1  0
 12 24  4  0
 13 24  4  0
 15 18  1  0
 16 25  4  0
 16 26  4  0
 17 20  4  0
 17 28  1  0
 18 21  4  0
 21 26  4  0
 22 26  4  0
M  END
$$$$

 Created by Python create_sdf_string function

 28 30  0  0  0  0  0  0  0  0999 V2000
    5.7174   -8.4529   26.7190 C   0  0  0  0  0  0  0  0  0  0  0  0
    0.3974   -7.0711   27.5149 C   0  0  0  0  0  0  0  0  0  0  0  0
    2.5338   -7.6891   16.0102 C   0  0  0  0  0  0  0  0  0  0  0  0
    4.8690   -7.4380   26.4151 C   0  0  0  0  0  0  0  0  0  0  0  0
    2.3021   -5.6726   26.0378 C   0  0  0  0  0  0  0  0  0  0  0  0
    7.0880   -4.6163   27.0010 C   0  0  0  0  0  0  0  0  0  0  0  0
    8.3117   -4.3698   27.4436 C   0  0  0  0  0  0  0  0  0  0  0  0
    1.1339   -5.0515   26.3541 C   0  0  0  0  0  0  0  0  0  0  0  0
    4.8080   -8.0362   16.7101 C   0  0  0  0  0  0  0  0  0  0  0  0
   -1.2173   -3.9294   26.9717 O   0  0  0  0  0  0  0  0  0  0  0  0
   -1.0025   -5.0942   27.4586 C   0  0  0  0  0  0  0  0  0  0  0  0
    2.2474   -8.9123   16.6273 C   0  0  0  0  0  0  0  0  0  0  0  0
    4.4957   -9.2636   17.3041 C   0  0  0  0  0  0  0  0  0  0  0  0
   -1.8070   -5.6086   28.1920 O   0  0  0  0  0  0  0  0  0  0  0  0
   10.4296   -5.1799   28.3140 C   0  0  0  0  0  0  0  0  0  0  0  0
    6.6017   -5.9004   26.9187 C   0  0  0  0  0  0  0  0  0  0  0  0
    2.4761   -6.9940   26.4111 N   0  0  0  0  0  0  0  0  0  0  0  0
    9.1353   -5.4053   27.8239 C   0  0  0  0  0  0  0  0  0  0  0  0
    0.9922   -9.3232   16.5995 O   0  0  0  0  0  0  0  0  0  0  0  0
    1.5232   -7.6869   27.1182 C   0  0  0  0  0  0  0  0  0  0  0  0
    8.6878   -6.6715   27.7262 N   0  0  0  0  0  0  0  0  0  0  0  0
    6.9911   -8.2423   27.1808 C   0  0  0  0  0  0  0  0  0  0  0  0
    3.8436   -7.2758   16.0578 C   0  0  0  0  0  0  0  0  0  0  0  0
    3.1882   -9.7190   17.2566 C   0  0  0  0  0  0  0  0  0  0  0  0
    5.3488   -6.1737   26.5092 C   0  0  0  0  0  0  0  0  0  0  0  0
    7.4567   -6.9464   27.2858 C   0  0  0  0  0  0  0  0  0  0  0  0
    0.1921   -5.7592   27.1123 C   0  0  0  0  0  0  0  0  0  0  0  0
    3.5517   -7.7407   25.9711 C   0  0  0  0  0  0  0  0  0  0  0  0
  1  4  4  0
  1 22  4  0
  2 20  4  0
  2 27  4  0
  3 12  4  0
  3 23  4  0
  4 25  4  0
  4 28  1  0
  5  8  4  0
  5 17  4  0
  6  7  4  0
  6 16  4  0
  7 18  4  0
  8 27  4  0
  9 13  4  0
  9 23  4  0
 10 11  1  0
 11 14  2  0
 11 27  1  0
 12 19  1  0
 12 24  4  0
 13 24  4  0
 15 18  1  0
 16 25  4  0
 16 26  4  0
 17 20  4  0
 17 28  1  0
 18 21  4  0
 21 26  4  0
 22 26  4  0
M  END
$$$$

 Created by Python create_sdf_string function

 28 30  0  0  0  0  0  0  0  0999 V2000
    5.7174   -8.4529   26.7190 C   0  0  0  0  0  0  0  0  0  0  0  0
    0.3974   -7.0711   27.5149 C   0  0  0  0  0  0  0  0  0  0  0  0
    2.5338   -7.6891   16.0102 C   0  0  0  0  0  0  0  0  0  0  0  0
    4.8690   -7.4380   26.4151 C   0  0  0  0  0  0  0  0  0  0  0  0
    2.3021   -5.6726   26.0378 C   0  0  0  0  0  0  0  0  0  0  0  0
    7.0880   -4.6163   27.0010 C   0  0  0  0  0  0  0  0  0  0  0  0
    8.3117   -4.3698   27.4436 C   0  0  0  0  0  0  0  0  0  0  0  0
    1.1339   -5.0515   26.3541 C   0  0  0  0  0  0  0  0  0  0  0  0
    4.8080   -8.0362   16.7101 C   0  0  0  0  0  0  0  0  0  0  0  0
   -1.2173   -3.9294   26.9717 O   0  0  0  0  0  0  0  0  0  0  0  0
   -1.0025   -5.0942   27.4586 C   0  0  0  0  0  0  0  0  0  0  0  0
    2.2474   -8.9123   16.6273 C   0  0  0  0  0  0  0  0  0  0  0  0
    4.4957   -9.2636   17.3041 C   0  0  0  0  0  0  0  0  0  0  0  0
   -1.8070   -5.6086   28.1920 O   0  0  0  0  0  0  0  0  0  0  0  0
   10.4296   -5.1799   28.3140 C   0  0  0  0  0  0  0  0  0  0  0  0
    6.6017   -5.9004   26.9187 C   0  0  0  0  0  0  0  0  0  0  0  0
    2.4761   -6.9940   26.4111 N   0  0  0  0  0  0  0  0  0  0  0  0
    9.1353   -5.4053   27.8239 C   0  0  0  0  0  0  0  0  0  0  0  0
    0.9922   -9.3232   16.5995 O   0  0  0  0  0  0  0  0  0  0  0  0
    1.5232   -7.6869   27.1182 C   0  0  0  0  0  0  0  0  0  0  0  0
    8.6878   -6.6715   27.7262 N   0  0  0  0  0  0  0  0  0  0  0  0
    6.9911   -8.2423   27.1808 C   0  0  0  0  0  0  0  0  0  0  0  0
    3.8436   -7.2758   16.0578 C   0  0  0  0  0  0  0  0  0  0  0  0
    3.1882   -9.7190   17.2566 C   0  0  0  0  0  0  0  0  0  0  0  0
    5.3488   -6.1737   26.5092 C   0  0  0  0  0  0  0  0  0  0  0  0
    7.4567   -6.9464   27.2858 C   0  0  0  0  0  0  0  0  0  0  0  0
    0.1921   -5.7592   27.1123 C   0  0  0  0  0  0  0  0  0  0  0  0
    3.5517   -7.7407   25.9711 C   0  0  0  0  0  0  0  0  0  0  0  0
  1  4  4  0
  1 22  4  0
  2 20  4  0
  2 27  4  0
  3 12  4  0
  3 23  4  0
  4 25  4  0
  4 28  1  0
  5  8  4  0
  5 17  4  0
  6  7  4  0
  6 16  4  0
  7 18  4  0
  8 27  4  0
  9 13  4  0
  9 23  4  0
 10 11  1  0
 11 14  2  0
 11 27  1  0
 12 19  1  0
 12 24  4  0
 13 24  4  0
 15 18  1  0
 16 25  4  0
 16 26  4  0
 17 20  4  0
 17 28  1  0
 18 21  4  0
 21 26  4  0
 22 26  4  0
M  END
$$$$

 Created by Python create_sdf_string function

 28 30  0  0  0  0  0  0  0  0999 V2000
    5.7174   -8.4529   26.7190 C   0  0  0  0  0  0  0  0  0  0  0  0
    0.3974   -7.0711   27.5149 C   0  0  0  0  0  0  0  0  0  0  0  0
    2.5338   -7.6891   16.0102 C   0  0  0  0  0  0  0  0  0  0  0  0
    4.8690   -7.4380   26.4151 C   0  0  0  0  0  0  0  0  0  0  0  0
    2.3021   -5.6726   26.0378 C   0  0  0  0  0  0  0  0  0  0  0  0
    7.0880   -4.6163   27.0010 C   0  0  0  0  0  0  0  0  0  0  0  0
    8.3117   -4.3698   27.4436 C   0  0  0  0  0  0  0  0  0  0  0  0
    1.1339   -5.0515   26.3541 C   0  0  0  0  0  0  0  0  0  0  0  0
    4.8080   -8.0362   16.7101 C   0  0  0  0  0  0  0  0  0  0  0  0
   -1.2173   -3.9294   26.9717 O   0  0  0  0  0  0  0  0  0  0  0  0
   -1.0025   -5.0942   27.4586 C   0  0  0  0  0  0  0  0  0  0  0  0
    2.2474   -8.9123   16.6273 C   0  0  0  0  0  0  0  0  0  0  0  0
    4.4957   -9.2636   17.3041 C   0  0  0  0  0  0  0  0  0  0  0  0
   -1.8070   -5.6086   28.1920 O   0  0  0  0  0  0  0  0  0  0  0  0
   10.4296   -5.1799   28.3140 C   0  0  0  0  0  0  0  0  0  0  0  0
    6.6017   -5.9004   26.9187 C   0  0  0  0  0  0  0  0  0  0  0  0
    2.4761   -6.9940   26.4111 N   0  0  0  0  0  0  0  0  0  0  0  0
    9.1353   -5.4053   27.8239 C   0  0  0  0  0  0  0  0  0  0  0  0
    0.9922   -9.3232   16.5995 O   0  0  0  0  0  0  0  0  0  0  0  0
    1.5232   -7.6869   27.1182 C   0  0  0  0  0  0  0  0  0  0  0  0
    8.6878   -6.6715   27.7262 N   0  0  0  0  0  0  0  0  0  0  0  0
    6.9911   -8.2423   27.1808 C   0  0  0  0  0  0  0  0  0  0  0  0
    3.8436   -7.2758   16.0578 C   0  0  0  0  0  0  0  0  0  0  0  0
    3.1882   -9.7190   17.2566 C   0  0  0  0  0  0  0  0  0  0  0  0
    5.3488   -6.1737   26.5092 C   0  0  0  0  0  0  0  0  0  0  0  0
    7.4567   -6.9464   27.2858 C   0  0  0  0  0  0  0  0  0  0  0  0
    0.1921   -5.7592   27.1123 C   0  0  0  0  0  0  0  0  0  0  0  0
    3.5517   -7.7407   25.9711 C   0  0  0  0  0  0  0  0  0  0  0  0
  1  4  4  0
  1 22  4  0
  2 20  4  0
  2 27  4  0
  3 12  4  0
  3 23  4  0
  4 25  4  0
  4 28  1  0
  5  8  4  0
  5 17  4  0
  6  7  4  0
  6 16  4  0
  7 18  4  0
  8 27  4  0
  9 13  4  0
  9 23  4  0
 10 11  1  0
 11 14  2  0
 11 27  1  0
 12 19  1  0
 12 24  4  0
 13 24  4  0
 15 18  1  0
 16 25  4  0
 16 26  4  0
 17 20  4  0
 17 28  1  0
 18 21  4  0
 21 26  4  0
 22 26  4  0
M  END
$$$$

 Created by Python create_sdf_string function

 28 30  0  0  0  0  0  0  0  0999 V2000
    5.7174   -8.4529   26.7190 C   0  0  0  0  0  0  0  0  0  0  0  0
    0.3974   -7.0711   27.5149 C   0  0  0  0  0  0  0  0  0  0  0  0
    2.5338   -7.6891   16.0102 C   0  0  0  0  0  0  0  0  0  0  0  0
    4.8690   -7.4380   26.4151 C   0  0  0  0  0  0  0  0  0  0  0  0
    2.3021   -5.6726   26.0378 C   0  0  0  0  0  0  0  0  0  0  0  0
    7.0880   -4.6163   27.0010 C   0  0  0  0  0  0  0  0  0  0  0  0
    8.3117   -4.3698   27.4436 C   0  0  0  0  0  0  0  0  0  0  0  0
    1.1339   -5.0515   26.3541 C   0  0  0  0  0  0  0  0  0  0  0  0
    4.8080   -8.0362   16.7101 C   0  0  0  0  0  0  0  0  0  0  0  0
   -1.2173   -3.9294   26.9717 O   0  0  0  0  0  0  0  0  0  0  0  0
   -1.0025   -5.0942   27.4586 C   0  0  0  0  0  0  0  0  0  0  0  0
    2.2474   -8.9123   16.6273 C   0  0  0  0  0  0  0  0  0  0  0  0
    4.4957   -9.2636   17.3041 C   0  0  0  0  0  0  0  0  0  0  0  0
   -1.8070   -5.6086   28.1920 O   0  0  0  0  0  0  0  0  0  0  0  0
   10.4296   -5.1799   28.3140 C   0  0  0  0  0  0  0  0  0  0  0  0
    6.6017   -5.9004   26.9187 C   0  0  0  0  0  0  0  0  0  0  0  0
    2.4761   -6.9940   26.4111 N   0  0  0  0  0  0  0  0  0  0  0  0
    9.1353   -5.4053   27.8239 C   0  0  0  0  0  0  0  0  0  0  0  0
    0.9922   -9.3232   16.5995 O   0  0  0  0  0  0  0  0  0  0  0  0
    1.5232   -7.6869   27.1182 C   0  0  0  0  0  0  0  0  0  0  0  0
    8.6878   -6.6715   27.7262 N   0  0  0  0  0  0  0  0  0  0  0  0
    6.9911   -8.2423   27.1808 C   0  0  0  0  0  0  0  0  0  0  0  0
    3.8436   -7.2758   16.0578 C   0  0  0  0  0  0  0  0  0  0  0  0
    3.1882   -9.7190   17.2566 C   0  0  0  0  0  0  0  0  0  0  0  0
    5.3488   -6.1737   26.5092 C   0  0  0  0  0  0  0  0  0  0  0  0
    7.4567   -6.9464   27.2858 C   0  0  0  0  0  0  0  0  0  0  0  0
    0.1921   -5.7592   27.1123 C   0  0  0  0  0  0  0  0  0  0  0  0
    3.5517   -7.7407   25.9711 C   0  0  0  0  0  0  0  0  0  0  0  0
  1  4  4  0
  1 22  4  0
  2 20  4  0
  2 27  4  0
  3 12  4  0
  3 23  4  0
  4 25  4  0
  4 28  1  0
  5  8  4  0
  5 17  4  0
  6  7  4  0
  6 16  4  0
  7 18  4  0
  8 27  4  0
  9 13  4  0
  9 23  4  0
 10 11  1  0
 11 14  2  0
 11 27  1  0
 12 19  1  0
 12 24  4  0
 13 24  4  0
 15 18  1  0
 16 25  4  0
 16 26  4  0
 17 20  4  0
 17 28  1  0
 18 21  4  0
 21 26  4  0
 22 26  4  0
M  END
$$$$

 Created by Python create_sdf_string function

 28 30  0  0  0  0  0  0  0  0999 V2000
    5.7174   -8.4529   26.7190 C   0  0  0  0  0  0  0  0  0  0  0  0
    0.3974   -7.0711   27.5149 C   0  0  0  0  0  0  0  0  0  0  0  0
    2.5338   -7.6891   16.0102 C   0  0  0  0  0  0  0  0  0  0  0  0
    4.8690   -7.4380   26.4151 C   0  0  0  0  0  0  0  0  0  0  0  0
    2.3021   -5.6726   26.0378 C   0  0  0  0  0  0  0  0  0  0  0  0
    7.0880   -4.6163   27.0010 C   0  0  0  0  0  0  0  0  0  0  0  0
    8.3117   -4.3698   27.4436 C   0  0  0  0  0  0  0  0  0  0  0  0
    1.1339   -5.0515   26.3541 C   0  0  0  0  0  0  0  0  0  0  0  0
    4.8080   -8.0362   16.7101 C   0  0  0  0  0  0  0  0  0  0  0  0
   -1.2173   -3.9294   26.9717 O   0  0  0  0  0  0  0  0  0  0  0  0
   -1.0025   -5.0942   27.4586 C   0  0  0  0  0  0  0  0  0  0  0  0
    2.2474   -8.9123   16.6273 C   0  0  0  0  0  0  0  0  0  0  0  0
    4.4957   -9.2636   17.3041 C   0  0  0  0  0  0  0  0  0  0  0  0
   -1.8070   -5.6086   28.1920 O   0  0  0  0  0  0  0  0  0  0  0  0
   10.4296   -5.1799   28.3140 C   0  0  0  0  0  0  0  0  0  0  0  0
    6.6017   -5.9004   26.9187 C   0  0  0  0  0  0  0  0  0  0  0  0
    2.4761   -6.9940   26.4111 N   0  0  0  0  0  0  0  0  0  0  0  0
    9.1353   -5.4053   27.8239 C   0  0  0  0  0  0  0  0  0  0  0  0
    0.9922   -9.3232   16.5995 O   0  0  0  0  0  0  0  0  0  0  0  0
    1.5232   -7.6869   27.1182 C   0  0  0  0  0  0  0  0  0  0  0  0
    8.6878   -6.6715   27.7262 N   0  0  0  0  0  0  0  0  0  0  0  0
    6.9911   -8.2423   27.1808 C   0  0  0  0  0  0  0  0  0  0  0  0
    3.8436   -7.2758   16.0578 C   0  0  0  0  0  0  0  0  0  0  0  0
    3.1882   -9.7190   17.2566 C   0  0  0  0  0  0  0  0  0  0  0  0
    5.3488   -6.1737   26.5092 C   0  0  0  0  0  0  0  0  0  0  0  0
    7.4567   -6.9464   27.2858 C   0  0  0  0  0  0  0  0  0  0  0  0
    0.1921   -5.7592   27.1123 C   0  0  0  0  0  0  0  0  0  0  0  0
    3.5517   -7.7407   25.9711 C   0  0  0  0  0  0  0  0  0  0  0  0
  1  4  4  0
  1 22  4  0
  2 20  4  0
  2 27  4  0
  3 12  4  0
  3 23  4  0
  4 25  4  0
  4 28  1  0
  5  8  4  0
  5 17  4  0
  6  7  4  0
  6 16  4  0
  7 18  4  0
  8 27  4  0
  9 13  4  0
  9 23  4  0
 10 11  1  0
 11 14  2  0
 11 27  1  0
 12 19  1  0
 12 24  4  0
 13 24  4  0
 15 18  1  0
 16 25  4  0
 16 26  4  0
 17 20  4  0
 17 28  1  0
 18 21  4  0
 21 26  4  0
 22 26  4  0
M  END
$$$$

 Created by Python create_sdf_string function

 28 30  0  0  0  0  0  0  0  0999 V2000
    5.7174   -8.4529   26.7190 C   0  0  0  0  0  0  0  0  0  0  0  0
    0.3974   -7.0711   27.5149 C   0  0  0  0  0  0  0  0  0  0  0  0
    2.5338   -7.6891   16.0102 C   0  0  0  0  0  0  0  0  0  0  0  0
    4.8690   -7.4380   26.4151 C   0  0  0  0  0  0  0  0  0  0  0  0
    2.3021   -5.6726   26.0378 C   0  0  0  0  0  0  0  0  0  0  0  0
    7.0880   -4.6163   27.0010 C   0  0  0  0  0  0  0  0  0  0  0  0
    8.3117   -4.3698   27.4436 C   0  0  0  0  0  0  0  0  0  0  0  0
    1.1339   -5.0515   26.3541 C   0  0  0  0  0  0  0  0  0  0  0  0
    4.8080   -8.0362   16.7101 C   0  0  0  0  0  0  0  0  0  0  0  0
   -1.2173   -3.9294   26.9717 O   0  0  0  0  0  0  0  0  0  0  0  0
   -1.0025   -5.0942   27.4586 C   0  0  0  0  0  0  0  0  0  0  0  0
    2.2474   -8.9123   16.6273 C   0  0  0  0  0  0  0  0  0  0  0  0
    4.4957   -9.2636   17.3041 C   0  0  0  0  0  0  0  0  0  0  0  0
   -1.8070   -5.6086   28.1920 O   0  0  0  0  0  0  0  0  0  0  0  0
   10.4296   -5.1799   28.3140 C   0  0  0  0  0  0  0  0  0  0  0  0
    6.6017   -5.9004   26.9187 C   0  0  0  0  0  0  0  0  0  0  0  0
    2.4761   -6.9940   26.4111 N   0  0  0  0  0  0  0  0  0  0  0  0
    9.1353   -5.4053   27.8239 C   0  0  0  0  0  0  0  0  0  0  0  0
    0.9922   -9.3232   16.5995 O   0  0  0  0  0  0  0  0  0  0  0  0
    1.5232   -7.6869   27.1182 C   0  0  0  0  0  0  0  0  0  0  0  0
    8.6878   -6.6715   27.7262 N   0  0  0  0  0  0  0  0  0  0  0  0
    6.9911   -8.2423   27.1808 C   0  0  0  0  0  0  0  0  0  0  0  0
    3.8436   -7.2758   16.0578 C   0  0  0  0  0  0  0  0  0  0  0  0
    3.1882   -9.7190   17.2566 C   0  0  0  0  0  0  0  0  0  0  0  0
    5.3488   -6.1737   26.5092 C   0  0  0  0  0  0  0  0  0  0  0  0
    7.4567   -6.9464   27.2858 C   0  0  0  0  0  0  0  0  0  0  0  0
    0.1921   -5.7592   27.1123 C   0  0  0  0  0  0  0  0  0  0  0  0
    3.5517   -7.7407   25.9711 C   0  0  0  0  0  0  0  0  0  0  0  0
  1  4  4  0
  1 22  4  0
  2 20  4  0
  2 27  4  0
  3 12  4  0
  3 23  4  0
  4 25  4  0
  4 28  1  0
  5  8  4  0
  5 17  4  0
  6  7  4  0
  6 16  4  0
  7 18  4  0
  8 27  4  0
  9 13  4  0
  9 23  4  0
 10 11  1  0
 11 14  2  0
 11 27  1  0
 12 19  1  0
 12 24  4  0
 13 24  4  0
 15 18  1  0
 16 25  4  0
 16 26  4  0
 17 20  4  0
 17 28  1  0
 18 21  4  0
 21 26  4  0
 22 26  4  0
M  END
$$$$

 Created by Python create_sdf_string function

 28 30  0  0  0  0  0  0  0  0999 V2000
    5.7174   -8.4529   26.7190 C   0  0  0  0  0  0  0  0  0  0  0  0
    0.3974   -7.0711   27.5149 C   0  0  0  0  0  0  0  0  0  0  0  0
    2.5338   -7.6891   16.0102 C   0  0  0  0  0  0  0  0  0  0  0  0
    4.8690   -7.4380   26.4151 C   0  0  0  0  0  0  0  0  0  0  0  0
    2.3021   -5.6726   26.0378 C   0  0  0  0  0  0  0  0  0  0  0  0
    7.0880   -4.6163   27.0010 C   0  0  0  0  0  0  0  0  0  0  0  0
    8.3117   -4.3698   27.4436 C   0  0  0  0  0  0  0  0  0  0  0  0
    1.1339   -5.0515   26.3541 C   0  0  0  0  0  0  0  0  0  0  0  0
    4.8080   -8.0362   16.7101 C   0  0  0  0  0  0  0  0  0  0  0  0
   -1.2173   -3.9294   26.9717 O   0  0  0  0  0  0  0  0  0  0  0  0
   -1.0025   -5.0942   27.4586 C   0  0  0  0  0  0  0  0  0  0  0  0
    2.2474   -8.9123   16.6273 C   0  0  0  0  0  0  0  0  0  0  0  0
    4.4957   -9.2636   17.3041 C   0  0  0  0  0  0  0  0  0  0  0  0
   -1.8070   -5.6086   28.1920 O   0  0  0  0  0  0  0  0  0  0  0  0
   10.4296   -5.1799   28.3140 C   0  0  0  0  0  0  0  0  0  0  0  0
    6.6017   -5.9004   26.9187 C   0  0  0  0  0  0  0  0  0  0  0  0
    2.4761   -6.9940   26.4111 N   0  0  0  0  0  0  0  0  0  0  0  0
    9.1353   -5.4053   27.8239 C   0  0  0  0  0  0  0  0  0  0  0  0
    0.9922   -9.3232   16.5995 O   0  0  0  0  0  0  0  0  0  0  0  0
    1.5232   -7.6869   27.1182 C   0  0  0  0  0  0  0  0  0  0  0  0
    8.6878   -6.6715   27.7262 N   0  0  0  0  0  0  0  0  0  0  0  0
    6.9911   -8.2423   27.1808 C   0  0  0  0  0  0  0  0  0  0  0  0
    3.8436   -7.2758   16.0578 C   0  0  0  0  0  0  0  0  0  0  0  0
    3.1882   -9.7190   17.2566 C   0  0  0  0  0  0  0  0  0  0  0  0
    5.3488   -6.1737   26.5092 C   0  0  0  0  0  0  0  0  0  0  0  0
    7.4567   -6.9464   27.2858 C   0  0  0  0  0  0  0  0  0  0  0  0
    0.1921   -5.7592   27.1123 C   0  0  0  0  0  0  0  0  0  0  0  0
    3.5517   -7.7407   25.9711 C   0  0  0  0  0  0  0  0  0  0  0  0
  1  4  4  0
  1 22  4  0
  2 20  4  0
  2 27  4  0
  3 12  4  0
  3 23  4  0
  4 25  4  0
  4 28  1  0
  5  8  4  0
  5 17  4  0
  6  7  4  0
  6 16  4  0
  7 18  4  0
  8 27  4  0
  9 13  4  0
  9 23  4  0
 10 11  1  0
 11 14  2  0
 11 27  1  0
 12 19  1  0
 12 24  4  0
 13 24  4  0
 15 18  1  0
 16 25  4  0
 16 26  4  0
 17 20  4  0
 17 28  1  0
 18 21  4  0
 21 26  4  0
 22 26  4  0
M  END
$$$$

 Created by Python create_sdf_string function

 28 30  0  0  0  0  0  0  0  0999 V2000
    5.7174   -8.4529   26.7190 C   0  0  0  0  0  0  0  0  0  0  0  0
    0.3974   -7.0711   27.5149 C   0  0  0  0  0  0  0  0  0  0  0  0
    2.5338   -7.6891   16.0102 C   0  0  0  0  0  0  0  0  0  0  0  0
    4.8690   -7.4380   26.4151 C   0  0  0  0  0  0  0  0  0  0  0  0
    2.3021   -5.6726   26.0378 C   0  0  0  0  0  0  0  0  0  0  0  0
    7.0880   -4.6163   27.0010 C   0  0  0  0  0  0  0  0  0  0  0  0
    8.3117   -4.3698   27.4436 C   0  0  0  0  0  0  0  0  0  0  0  0
    1.1339   -5.0515   26.3541 C   0  0  0  0  0  0  0  0  0  0  0  0
    4.8080   -8.0362   16.7101 C   0  0  0  0  0  0  0  0  0  0  0  0
   -1.2173   -3.9294   26.9717 O   0  0  0  0  0  0  0  0  0  0  0  0
   -1.0025   -5.0942   27.4586 C   0  0  0  0  0  0  0  0  0  0  0  0
    2.2474   -8.9123   16.6273 C   0  0  0  0  0  0  0  0  0  0  0  0
    4.4957   -9.2636   17.3041 C   0  0  0  0  0  0  0  0  0  0  0  0
   -1.8070   -5.6086   28.1920 O   0  0  0  0  0  0  0  0  0  0  0  0
   10.4296   -5.1799   28.3140 C   0  0  0  0  0  0  0  0  0  0  0  0
    6.6017   -5.9004   26.9187 C   0  0  0  0  0  0  0  0  0  0  0  0
    2.4761   -6.9940   26.4111 N   0  0  0  0  0  0  0  0  0  0  0  0
    9.1353   -5.4053   27.8239 C   0  0  0  0  0  0  0  0  0  0  0  0
    0.9922   -9.3232   16.5995 O   0  0  0  0  0  0  0  0  0  0  0  0
    1.5232   -7.6869   27.1182 C   0  0  0  0  0  0  0  0  0  0  0  0
    8.6878   -6.6715   27.7262 N   0  0  0  0  0  0  0  0  0  0  0  0
    6.9911   -8.2423   27.1808 C   0  0  0  0  0  0  0  0  0  0  0  0
    3.8436   -7.2758   16.0578 C   0  0  0  0  0  0  0  0  0  0  0  0
    3.1882   -9.7190   17.2566 C   0  0  0  0  0  0  0  0  0  0  0  0
    5.3488   -6.1737   26.5092 C   0  0  0  0  0  0  0  0  0  0  0  0
    7.4567   -6.9464   27.2858 C   0  0  0  0  0  0  0  0  0  0  0  0
    0.1921   -5.7592   27.1123 C   0  0  0  0  0  0  0  0  0  0  0  0
    3.5517   -7.7407   25.9711 C   0  0  0  0  0  0  0  0  0  0  0  0
  1  4  4  0
  1 22  4  0
  2 20  4  0
  2 27  4  0
  3 12  4  0
  3 23  4  0
  4 25  4  0
  4 28  1  0
  5  8  4  0
  5 17  4  0
  6  7  4  0
  6 16  4  0
  7 18  4  0
  8 27  4  0
  9 13  4  0
  9 23  4  0
 10 11  1  0
 11 14  2  0
 11 27  1  0
 12 19  1  0
 12 24  4  0
 13 24  4  0
 15 18  1  0
 16 25  4  0
 16 26  4  0
 17 20  4  0
 17 28  1  0
 18 21  4  0
 21 26  4  0
 22 26  4  0
M  END
$$$$

 Created by Python create_sdf_string function

 28 30  0  0  0  0  0  0  0  0999 V2000
    5.7174   -8.4529   26.7190 C   0  0  0  0  0  0  0  0  0  0  0  0
    0.3974   -7.0711   27.5149 C   0  0  0  0  0  0  0  0  0  0  0  0
    2.5338   -7.6891   16.0102 C   0  0  0  0  0  0  0  0  0  0  0  0
    4.8690   -7.4380   26.4151 C   0  0  0  0  0  0  0  0  0  0  0  0
    2.3021   -5.6726   26.0378 C   0  0  0  0  0  0  0  0  0  0  0  0
    7.0880   -4.6163   27.0010 C   0  0  0  0  0  0  0  0  0  0  0  0
    8.3117   -4.3698   27.4436 C   0  0  0  0  0  0  0  0  0  0  0  0
    1.1339   -5.0515   26.3541 C   0  0  0  0  0  0  0  0  0  0  0  0
    4.8080   -8.0362   16.7101 C   0  0  0  0  0  0  0  0  0  0  0  0
   -1.2173   -3.9294   26.9717 O   0  0  0  0  0  0  0  0  0  0  0  0
   -1.0025   -5.0942   27.4586 C   0  0  0  0  0  0  0  0  0  0  0  0
    2.2474   -8.9123   16.6273 C   0  0  0  0  0  0  0  0  0  0  0  0
    4.4957   -9.2636   17.3041 C   0  0  0  0  0  0  0  0  0  0  0  0
   -1.8070   -5.6086   28.1920 O   0  0  0  0  0  0  0  0  0  0  0  0
   10.4296   -5.1799   28.3140 C   0  0  0  0  0  0  0  0  0  0  0  0
    6.6017   -5.9004   26.9187 C   0  0  0  0  0  0  0  0  0  0  0  0
    2.4761   -6.9940   26.4111 N   0  0  0  0  0  0  0  0  0  0  0  0
    9.1353   -5.4053   27.8239 C   0  0  0  0  0  0  0  0  0  0  0  0
    0.9922   -9.3232   16.5995 O   0  0  0  0  0  0  0  0  0  0  0  0
    1.5232   -7.6869   27.1182 C   0  0  0  0  0  0  0  0  0  0  0  0
    8.6878   -6.6715   27.7262 N   0  0  0  0  0  0  0  0  0  0  0  0
    6.9911   -8.2423   27.1808 C   0  0  0  0  0  0  0  0  0  0  0  0
    3.8436   -7.2758   16.0578 C   0  0  0  0  0  0  0  0  0  0  0  0
    3.1882   -9.7190   17.2566 C   0  0  0  0  0  0  0  0  0  0  0  0
    5.3488   -6.1737   26.5092 C   0  0  0  0  0  0  0  0  0  0  0  0
    7.4567   -6.9464   27.2858 C   0  0  0  0  0  0  0  0  0  0  0  0
    0.1921   -5.7592   27.1123 C   0  0  0  0  0  0  0  0  0  0  0  0
    3.5517   -7.7407   25.9711 C   0  0  0  0  0  0  0  0  0  0  0  0
  1  4  4  0
  1 22  4  0
  2 20  4  0
  2 27  4  0
  3 12  4  0
  3 23  4  0
  4 25  4  0
  4 28  1  0
  5  8  4  0
  5 17  4  0
  6  7  4  0
  6 16  4  0
  7 18  4  0
  8 27  4  0
  9 13  4  0
  9 23  4  0
 10 11  1  0
 11 14  2  0
 11 27  1  0
 12 19  1  0
 12 24  4  0
 13 24  4  0
 15 18  1  0
 16 25  4  0
 16 26  4  0
 17 20  4  0
 17 28  1  0
 18 21  4  0
 21 26  4  0
 22 26  4  0
M  END
$$$$

 Created by Python create_sdf_string function

 28 30  0  0  0  0  0  0  0  0999 V2000
    5.7174   -8.4529   26.7190 C   0  0  0  0  0  0  0  0  0  0  0  0
    0.3974   -7.0711   27.5149 C   0  0  0  0  0  0  0  0  0  0  0  0
    2.5338   -7.6891   16.0102 C   0  0  0  0  0  0  0  0  0  0  0  0
    4.8690   -7.4380   26.4151 C   0  0  0  0  0  0  0  0  0  0  0  0
    2.3021   -5.6726   26.0378 C   0  0  0  0  0  0  0  0  0  0  0  0
    7.0880   -4.6163   27.0010 C   0  0  0  0  0  0  0  0  0  0  0  0
    8.3117   -4.3698   27.4436 C   0  0  0  0  0  0  0  0  0  0  0  0
    1.1339   -5.0515   26.3541 C   0  0  0  0  0  0  0  0  0  0  0  0
    4.8080   -8.0362   16.7101 C   0  0  0  0  0  0  0  0  0  0  0  0
   -1.2173   -3.9294   26.9717 O   0  0  0  0  0  0  0  0  0  0  0  0
   -1.0025   -5.0942   27.4586 C   0  0  0  0  0  0  0  0  0  0  0  0
    2.2474   -8.9123   16.6273 C   0  0  0  0  0  0  0  0  0  0  0  0
    4.4957   -9.2636   17.3041 C   0  0  0  0  0  0  0  0  0  0  0  0
   -1.8070   -5.6086   28.1920 O   0  0  0  0  0  0  0  0  0  0  0  0
   10.4296   -5.1799   28.3140 C   0  0  0  0  0  0  0  0  0  0  0  0
    6.6017   -5.9004   26.9187 C   0  0  0  0  0  0  0  0  0  0  0  0
    2.4761   -6.9940   26.4111 N   0  0  0  0  0  0  0  0  0  0  0  0
    9.1353   -5.4053   27.8239 C   0  0  0  0  0  0  0  0  0  0  0  0
    0.9922   -9.3232   16.5995 O   0  0  0  0  0  0  0  0  0  0  0  0
    1.5232   -7.6869   27.1182 C   0  0  0  0  0  0  0  0  0  0  0  0
    8.6878   -6.6715   27.7262 N   0  0  0  0  0  0  0  0  0  0  0  0
    6.9911   -8.2423   27.1808 C   0  0  0  0  0  0  0  0  0  0  0  0
    3.8436   -7.2758   16.0578 C   0  0  0  0  0  0  0  0  0  0  0  0
    3.1882   -9.7190   17.2566 C   0  0  0  0  0  0  0  0  0  0  0  0
    5.3488   -6.1737   26.5092 C   0  0  0  0  0  0  0  0  0  0  0  0
    7.4567   -6.9464   27.2858 C   0  0  0  0  0  0  0  0  0  0  0  0
    0.1921   -5.7592   27.1123 C   0  0  0  0  0  0  0  0  0  0  0  0
    3.5517   -7.7407   25.9711 C   0  0  0  0  0  0  0  0  0  0  0  0
  1  4  4  0
  1 22  4  0
  2 20  4  0
  2 27  4  0
  3 12  4  0
  3 23  4  0
  4 25  4  0
  4 28  1  0
  5  8  4  0
  5 17  4  0
  6  7  4  0
  6 16  4  0
  7 18  4  0
  8 27  4  0
  9 13  4  0
  9 23  4  0
 10 11  1  0
 11 14  2  0
 11 27  1  0
 12 19  1  0
 12 24  4  0
 13 24  4  0
 15 18  1  0
 16 25  4  0
 16 26  4  0
 17 20  4  0
 17 28  1  0
 18 21  4  0
 21 26  4  0
 22 26  4  0
M  END
$$$$

 Created by Python create_sdf_string function

 28 30  0  0  0  0  0  0  0  0999 V2000
    5.7174   -8.4529   26.7190 C   0  0  0  0  0  0  0  0  0  0  0  0
    0.3974   -7.0711   27.5149 C   0  0  0  0  0  0  0  0  0  0  0  0
    2.5338   -7.6891   16.0102 C   0  0  0  0  0  0  0  0  0  0  0  0
    4.8690   -7.4380   26.4151 C   0  0  0  0  0  0  0  0  0  0  0  0
    2.3021   -5.6726   26.0378 C   0  0  0  0  0  0  0  0  0  0  0  0
    7.0880   -4.6163   27.0010 C   0  0  0  0  0  0  0  0  0  0  0  0
    8.3117   -4.3698   27.4436 C   0  0  0  0  0  0  0  0  0  0  0  0
    1.1339   -5.0515   26.3541 C   0  0  0  0  0  0  0  0  0  0  0  0
    4.8080   -8.0362   16.7101 C   0  0  0  0  0  0  0  0  0  0  0  0
   -1.2173   -3.9294   26.9717 O   0  0  0  0  0  0  0  0  0  0  0  0
   -1.0025   -5.0942   27.4586 C   0  0  0  0  0  0  0  0  0  0  0  0
    2.2474   -8.9123   16.6273 C   0  0  0  0  0  0  0  0  0  0  0  0
    4.4957   -9.2636   17.3041 C   0  0  0  0  0  0  0  0  0  0  0  0
   -1.8070   -5.6086   28.1920 O   0  0  0  0  0  0  0  0  0  0  0  0
   10.4296   -5.1799   28.3140 C   0  0  0  0  0  0  0  0  0  0  0  0
    6.6017   -5.9004   26.9187 C   0  0  0  0  0  0  0  0  0  0  0  0
    2.4761   -6.9940   26.4111 N   0  0  0  0  0  0  0  0  0  0  0  0
    9.1353   -5.4053   27.8239 C   0  0  0  0  0  0  0  0  0  0  0  0
    0.9922   -9.3232   16.5995 O   0  0  0  0  0  0  0  0  0  0  0  0
    1.5232   -7.6869   27.1182 C   0  0  0  0  0  0  0  0  0  0  0  0
    8.6878   -6.6715   27.7262 N   0  0  0  0  0  0  0  0  0  0  0  0
    6.9911   -8.2423   27.1808 C   0  0  0  0  0  0  0  0  0  0  0  0
    3.8436   -7.2758   16.0578 C   0  0  0  0  0  0  0  0  0  0  0  0
    3.1882   -9.7190   17.2566 C   0  0  0  0  0  0  0  0  0  0  0  0
    5.3488   -6.1737   26.5092 C   0  0  0  0  0  0  0  0  0  0  0  0
    7.4567   -6.9464   27.2858 C   0  0  0  0  0  0  0  0  0  0  0  0
    0.1921   -5.7592   27.1123 C   0  0  0  0  0  0  0  0  0  0  0  0
    3.5517   -7.7407   25.9711 C   0  0  0  0  0  0  0  0  0  0  0  0
  1  4  4  0
  1 22  4  0
  2 20  4  0
  2 27  4  0
  3 12  4  0
  3 23  4  0
  4 25  4  0
  4 28  1  0
  5  8  4  0
  5 17  4  0
  6  7  4  0
  6 16  4  0
  7 18  4  0
  8 27  4  0
  9 13  4  0
  9 23  4  0
 10 11  1  0
 11 14  2  0
 11 27  1  0
 12 19  1  0
 12 24  4  0
 13 24  4  0
 15 18  1  0
 16 25  4  0
 16 26  4  0
 17 20  4  0
 17 28  1  0
 18 21  4  0
 21 26  4  0
 22 26  4  0
M  END
$$$$

 Created by Python create_sdf_string function

 28 30  0  0  0  0  0  0  0  0999 V2000
    5.7174   -8.4529   26.7190 C   0  0  0  0  0  0  0  0  0  0  0  0
    0.3974   -7.0711   27.5149 C   0  0  0  0  0  0  0  0  0  0  0  0
    2.5338   -7.6891   16.0102 C   0  0  0  0  0  0  0  0  0  0  0  0
    4.8690   -7.4380   26.4151 C   0  0  0  0  0  0  0  0  0  0  0  0
    2.3021   -5.6726   26.0378 C   0  0  0  0  0  0  0  0  0  0  0  0
    7.0880   -4.6163   27.0010 C   0  0  0  0  0  0  0  0  0  0  0  0
    8.3117   -4.3698   27.4436 C   0  0  0  0  0  0  0  0  0  0  0  0
    1.1339   -5.0515   26.3541 C   0  0  0  0  0  0  0  0  0  0  0  0
    4.8080   -8.0362   16.7101 C   0  0  0  0  0  0  0  0  0  0  0  0
   -1.2173   -3.9294   26.9717 O   0  0  0  0  0  0  0  0  0  0  0  0
   -1.0025   -5.0942   27.4586 C   0  0  0  0  0  0  0  0  0  0  0  0
    2.2474   -8.9123   16.6273 C   0  0  0  0  0  0  0  0  0  0  0  0
    4.4957   -9.2636   17.3041 C   0  0  0  0  0  0  0  0  0  0  0  0
   -1.8070   -5.6086   28.1920 O   0  0  0  0  0  0  0  0  0  0  0  0
   10.4296   -5.1799   28.3140 C   0  0  0  0  0  0  0  0  0  0  0  0
    6.6017   -5.9004   26.9187 C   0  0  0  0  0  0  0  0  0  0  0  0
    2.4761   -6.9940   26.4111 N   0  0  0  0  0  0  0  0  0  0  0  0
    9.1353   -5.4053   27.8239 C   0  0  0  0  0  0  0  0  0  0  0  0
    0.9922   -9.3232   16.5995 O   0  0  0  0  0  0  0  0  0  0  0  0
    1.5232   -7.6869   27.1182 C   0  0  0  0  0  0  0  0  0  0  0  0
    8.6878   -6.6715   27.7262 N   0  0  0  0  0  0  0  0  0  0  0  0
    6.9911   -8.2423   27.1808 C   0  0  0  0  0  0  0  0  0  0  0  0
    3.8436   -7.2758   16.0578 C   0  0  0  0  0  0  0  0  0  0  0  0
    3.1882   -9.7190   17.2566 C   0  0  0  0  0  0  0  0  0  0  0  0
    5.3488   -6.1737   26.5092 C   0  0  0  0  0  0  0  0  0  0  0  0
    7.4567   -6.9464   27.2858 C   0  0  0  0  0  0  0  0  0  0  0  0
    0.1921   -5.7592   27.1123 C   0  0  0  0  0  0  0  0  0  0  0  0
    3.5517   -7.7407   25.9711 C   0  0  0  0  0  0  0  0  0  0  0  0
  1  4  4  0
  1 22  4  0
  2 20  4  0
  2 27  4  0
  3 12  4  0
  3 23  4  0
  4 25  4  0
  4 28  1  0
  5  8  4  0
  5 17  4  0
  6  7  4  0
  6 16  4  0
  7 18  4  0
  8 27  4  0
  9 13  4  0
  9 23  4  0
 10 11  1  0
 11 14  2  0
 11 27  1  0
 12 19  1  0
 12 24  4  0
 13 24  4  0
 15 18  1  0
 16 25  4  0
 16 26  4  0
 17 20  4  0
 17 28  1  0
 18 21  4  0
 21 26  4  0
 22 26  4  0
M  END
$$$$

 Created by Python create_sdf_string function

 28 30  0  0  0  0  0  0  0  0999 V2000
    5.7174   -8.4529   26.7190 C   0  0  0  0  0  0  0  0  0  0  0  0
    0.3974   -7.0711   27.5149 C   0  0  0  0  0  0  0  0  0  0  0  0
    2.5338   -7.6891   16.0102 C   0  0  0  0  0  0  0  0  0  0  0  0
    4.8690   -7.4380   26.4151 C   0  0  0  0  0  0  0  0  0  0  0  0
    2.3021   -5.6726   26.0378 C   0  0  0  0  0  0  0  0  0  0  0  0
    7.0880   -4.6163   27.0010 C   0  0  0  0  0  0  0  0  0  0  0  0
    8.3117   -4.3698   27.4436 C   0  0  0  0  0  0  0  0  0  0  0  0
    1.1339   -5.0515   26.3541 C   0  0  0  0  0  0  0  0  0  0  0  0
    4.8080   -8.0362   16.7101 C   0  0  0  0  0  0  0  0  0  0  0  0
   -1.2173   -3.9294   26.9717 O   0  0  0  0  0  0  0  0  0  0  0  0
   -1.0025   -5.0942   27.4586 C   0  0  0  0  0  0  0  0  0  0  0  0
    2.2474   -8.9123   16.6273 C   0  0  0  0  0  0  0  0  0  0  0  0
    4.4957   -9.2636   17.3041 C   0  0  0  0  0  0  0  0  0  0  0  0
   -1.8070   -5.6086   28.1920 O   0  0  0  0  0  0  0  0  0  0  0  0
   10.4296   -5.1799   28.3140 C   0  0  0  0  0  0  0  0  0  0  0  0
    6.6017   -5.9004   26.9187 C   0  0  0  0  0  0  0  0  0  0  0  0
    2.4761   -6.9940   26.4111 N   0  0  0  0  0  0  0  0  0  0  0  0
    9.1353   -5.4053   27.8239 C   0  0  0  0  0  0  0  0  0  0  0  0
    0.9922   -9.3232   16.5995 O   0  0  0  0  0  0  0  0  0  0  0  0
    1.5232   -7.6869   27.1182 C   0  0  0  0  0  0  0  0  0  0  0  0
    8.6878   -6.6715   27.7262 N   0  0  0  0  0  0  0  0  0  0  0  0
    6.9911   -8.2423   27.1808 C   0  0  0  0  0  0  0  0  0  0  0  0
    3.8436   -7.2758   16.0578 C   0  0  0  0  0  0  0  0  0  0  0  0
    3.1882   -9.7190   17.2566 C   0  0  0  0  0  0  0  0  0  0  0  0
    5.3488   -6.1737   26.5092 C   0  0  0  0  0  0  0  0  0  0  0  0
    7.4567   -6.9464   27.2858 C   0  0  0  0  0  0  0  0  0  0  0  0
    0.1921   -5.7592   27.1123 C   0  0  0  0  0  0  0  0  0  0  0  0
    3.5517   -7.7407   25.9711 C   0  0  0  0  0  0  0  0  0  0  0  0
  1  4  4  0
  1 22  4  0
  2 20  4  0
  2 27  4  0
  3 12  4  0
  3 23  4  0
  4 25  4  0
  4 28  1  0
  5  8  4  0
  5 17  4  0
  6  7  4  0
  6 16  4  0
  7 18  4  0
  8 27  4  0
  9 13  4  0
  9 23  4  0
 10 11  1  0
 11 14  2  0
 11 27  1  0
 12 19  1  0
 12 24  4  0
 13 24  4  0
 15 18  1  0
 16 25  4  0
 16 26  4  0
 17 20  4  0
 17 28  1  0
 18 21  4  0
 21 26  4  0
 22 26  4  0
M  END
$$$$

 Created by Python create_sdf_string function

 28 30  0  0  0  0  0  0  0  0999 V2000
    5.7174   -8.4529   26.7190 C   0  0  0  0  0  0  0  0  0  0  0  0
    0.3974   -7.0711   27.5149 C   0  0  0  0  0  0  0  0  0  0  0  0
    2.5338   -7.6891   16.0102 C   0  0  0  0  0  0  0  0  0  0  0  0
    4.8690   -7.4380   26.4151 C   0  0  0  0  0  0  0  0  0  0  0  0
    2.3021   -5.6726   26.0378 C   0  0  0  0  0  0  0  0  0  0  0  0
    7.0880   -4.6163   27.0010 C   0  0  0  0  0  0  0  0  0  0  0  0
    8.3117   -4.3698   27.4436 C   0  0  0  0  0  0  0  0  0  0  0  0
    1.1339   -5.0515   26.3541 C   0  0  0  0  0  0  0  0  0  0  0  0
    4.8080   -8.0362   16.7101 C   0  0  0  0  0  0  0  0  0  0  0  0
   -1.2173   -3.9294   26.9717 O   0  0  0  0  0  0  0  0  0  0  0  0
   -1.0025   -5.0942   27.4586 C   0  0  0  0  0  0  0  0  0  0  0  0
    2.2474   -8.9123   16.6273 C   0  0  0  0  0  0  0  0  0  0  0  0
    4.4957   -9.2636   17.3041 C   0  0  0  0  0  0  0  0  0  0  0  0
   -1.8070   -5.6086   28.1920 O   0  0  0  0  0  0  0  0  0  0  0  0
   10.4296   -5.1799   28.3140 C   0  0  0  0  0  0  0  0  0  0  0  0
    6.6017   -5.9004   26.9187 C   0  0  0  0  0  0  0  0  0  0  0  0
    2.4761   -6.9940   26.4111 N   0  0  0  0  0  0  0  0  0  0  0  0
    9.1353   -5.4053   27.8239 C   0  0  0  0  0  0  0  0  0  0  0  0
    0.9922   -9.3232   16.5995 O   0  0  0  0  0  0  0  0  0  0  0  0
    1.5232   -7.6869   27.1182 C   0  0  0  0  0  0  0  0  0  0  0  0
    8.6878   -6.6715   27.7262 N   0  0  0  0  0  0  0  0  0  0  0  0
    6.9911   -8.2423   27.1808 C   0  0  0  0  0  0  0  0  0  0  0  0
    3.8436   -7.2758   16.0578 C   0  0  0  0  0  0  0  0  0  0  0  0
    3.1882   -9.7190   17.2566 C   0  0  0  0  0  0  0  0  0  0  0  0
    5.3488   -6.1737   26.5092 C   0  0  0  0  0  0  0  0  0  0  0  0
    7.4567   -6.9464   27.2858 C   0  0  0  0  0  0  0  0  0  0  0  0
    0.1921   -5.7592   27.1123 C   0  0  0  0  0  0  0  0  0  0  0  0
    3.5517   -7.7407   25.9711 C   0  0  0  0  0  0  0  0  0  0  0  0
  1  4  4  0
  1 22  4  0
  2 20  4  0
  2 27  4  0
  3 12  4  0
  3 23  4  0
  4 25  4  0
  4 28  1  0
  5  8  4  0
  5 17  4  0
  6  7  4  0
  6 16  4  0
  7 18  4  0
  8 27  4  0
  9 13  4  0
  9 23  4  0
 10 11  1  0
 11 14  2  0
 11 27  1  0
 12 19  1  0
 12 24  4  0
 13 24  4  0
 15 18  1  0
 16 25  4  0
 16 26  4  0
 17 20  4  0
 17 28  1  0
 18 21  4  0
 21 26  4  0
 22 26  4  0
M  END
$$$$

 Created by Python create_sdf_string function

 28 30  0  0  0  0  0  0  0  0999 V2000
    5.7174   -8.4529   26.7190 C   0  0  0  0  0  0  0  0  0  0  0  0
    0.3974   -7.0711   27.5149 C   0  0  0  0  0  0  0  0  0  0  0  0
    2.5338   -7.6891   16.0102 C   0  0  0  0  0  0  0  0  0  0  0  0
    4.8690   -7.4380   26.4151 C   0  0  0  0  0  0  0  0  0  0  0  0
    2.3021   -5.6726   26.0378 C   0  0  0  0  0  0  0  0  0  0  0  0
    7.0880   -4.6163   27.0010 C   0  0  0  0  0  0  0  0  0  0  0  0
    8.3117   -4.3698   27.4436 C   0  0  0  0  0  0  0  0  0  0  0  0
    1.1339   -5.0515   26.3541 C   0  0  0  0  0  0  0  0  0  0  0  0
    4.8080   -8.0362   16.7101 C   0  0  0  0  0  0  0  0  0  0  0  0
   -1.2173   -3.9294   26.9717 O   0  0  0  0  0  0  0  0  0  0  0  0
   -1.0025   -5.0942   27.4586 C   0  0  0  0  0  0  0  0  0  0  0  0
    2.2474   -8.9123   16.6273 C   0  0  0  0  0  0  0  0  0  0  0  0
    4.4957   -9.2636   17.3041 C   0  0  0  0  0  0  0  0  0  0  0  0
   -1.8070   -5.6086   28.1920 O   0  0  0  0  0  0  0  0  0  0  0  0
   10.4296   -5.1799   28.3140 C   0  0  0  0  0  0  0  0  0  0  0  0
    6.6017   -5.9004   26.9187 C   0  0  0  0  0  0  0  0  0  0  0  0
    2.4761   -6.9940   26.4111 N   0  0  0  0  0  0  0  0  0  0  0  0
    9.1353   -5.4053   27.8239 C   0  0  0  0  0  0  0  0  0  0  0  0
    0.9922   -9.3232   16.5995 O   0  0  0  0  0  0  0  0  0  0  0  0
    1.5232   -7.6869   27.1182 C   0  0  0  0  0  0  0  0  0  0  0  0
    8.6878   -6.6715   27.7262 N   0  0  0  0  0  0  0  0  0  0  0  0
    6.9911   -8.2423   27.1808 C   0  0  0  0  0  0  0  0  0  0  0  0
    3.8436   -7.2758   16.0578 C   0  0  0  0  0  0  0  0  0  0  0  0
    3.1882   -9.7190   17.2566 C   0  0  0  0  0  0  0  0  0  0  0  0
    5.3488   -6.1737   26.5092 C   0  0  0  0  0  0  0  0  0  0  0  0
    7.4567   -6.9464   27.2858 C   0  0  0  0  0  0  0  0  0  0  0  0
    0.1921   -5.7592   27.1123 C   0  0  0  0  0  0  0  0  0  0  0  0
    3.5517   -7.7407   25.9711 C   0  0  0  0  0  0  0  0  0  0  0  0
  1  4  4  0
  1 22  4  0
  2 20  4  0
  2 27  4  0
  3 12  4  0
  3 23  4  0
  4 25  4  0
  4 28  1  0
  5  8  4  0
  5 17  4  0
  6  7  4  0
  6 16  4  0
  7 18  4  0
  8 27  4  0
  9 13  4  0
  9 23  4  0
 10 11  1  0
 11 14  2  0
 11 27  1  0
 12 19  1  0
 12 24  4  0
 13 24  4  0
 15 18  1  0
 16 25  4  0
 16 26  4  0
 17 20  4  0
 17 28  1  0
 18 21  4  0
 21 26  4  0
 22 26  4  0
M  END
$$$$

 Created by Python create_sdf_string function

 28 30  0  0  0  0  0  0  0  0999 V2000
    5.7174   -8.4529   26.7190 C   0  0  0  0  0  0  0  0  0  0  0  0
    0.3974   -7.0711   27.5149 C   0  0  0  0  0  0  0  0  0  0  0  0
    2.5338   -7.6891   16.0102 C   0  0  0  0  0  0  0  0  0  0  0  0
    4.8690   -7.4380   26.4151 C   0  0  0  0  0  0  0  0  0  0  0  0
    2.3021   -5.6726   26.0378 C   0  0  0  0  0  0  0  0  0  0  0  0
    7.0880   -4.6163   27.0010 C   0  0  0  0  0  0  0  0  0  0  0  0
    8.3117   -4.3698   27.4436 C   0  0  0  0  0  0  0  0  0  0  0  0
    1.1339   -5.0515   26.3541 C   0  0  0  0  0  0  0  0  0  0  0  0
    4.8080   -8.0362   16.7101 C   0  0  0  0  0  0  0  0  0  0  0  0
   -1.2173   -3.9294   26.9717 O   0  0  0  0  0  0  0  0  0  0  0  0
   -1.0025   -5.0942   27.4586 C   0  0  0  0  0  0  0  0  0  0  0  0
    2.2474   -8.9123   16.6273 C   0  0  0  0  0  0  0  0  0  0  0  0
    4.4957   -9.2636   17.3041 C   0  0  0  0  0  0  0  0  0  0  0  0
   -1.8070   -5.6086   28.1920 O   0  0  0  0  0  0  0  0  0  0  0  0
   10.4296   -5.1799   28.3140 C   0  0  0  0  0  0  0  0  0  0  0  0
    6.6017   -5.9004   26.9187 C   0  0  0  0  0  0  0  0  0  0  0  0
    2.4761   -6.9940   26.4111 N   0  0  0  0  0  0  0  0  0  0  0  0
    9.1353   -5.4053   27.8239 C   0  0  0  0  0  0  0  0  0  0  0  0
    0.9922   -9.3232   16.5995 O   0  0  0  0  0  0  0  0  0  0  0  0
    1.5232   -7.6869   27.1182 C   0  0  0  0  0  0  0  0  0  0  0  0
    8.6878   -6.6715   27.7262 N   0  0  0  0  0  0  0  0  0  0  0  0
    6.9911   -8.2423   27.1808 C   0  0  0  0  0  0  0  0  0  0  0  0
    3.8436   -7.2758   16.0578 C   0  0  0  0  0  0  0  0  0  0  0  0
    3.1882   -9.7190   17.2566 C   0  0  0  0  0  0  0  0  0  0  0  0
    5.3488   -6.1737   26.5092 C   0  0  0  0  0  0  0  0  0  0  0  0
    7.4567   -6.9464   27.2858 C   0  0  0  0  0  0  0  0  0  0  0  0
    0.1921   -5.7592   27.1123 C   0  0  0  0  0  0  0  0  0  0  0  0
    3.5517   -7.7407   25.9711 C   0  0  0  0  0  0  0  0  0  0  0  0
  1  4  4  0
  1 22  4  0
  2 20  4  0
  2 27  4  0
  3 12  4  0
  3 23  4  0
  4 25  4  0
  4 28  1  0
  5  8  4  0
  5 17  4  0
  6  7  4  0
  6 16  4  0
  7 18  4  0
  8 27  4  0
  9 13  4  0
  9 23  4  0
 10 11  1  0
 11 14  2  0
 11 27  1  0
 12 19  1  0
 12 24  4  0
 13 24  4  0
 15 18  1  0
 16 25  4  0
 16 26  4  0
 17 20  4  0
 17 28  1  0
 18 21  4  0
 21 26  4  0
 22 26  4  0
M  END
$$$$

 Created by Python create_sdf_string function

 28 30  0  0  0  0  0  0  0  0999 V2000
    5.7174   -8.4529   26.7190 C   0  0  0  0  0  0  0  0  0  0  0  0
    0.3974   -7.0711   27.5149 C   0  0  0  0  0  0  0  0  0  0  0  0
    2.5338   -7.6891   16.0102 C   0  0  0  0  0  0  0  0  0  0  0  0
    4.8690   -7.4380   26.4151 C   0  0  0  0  0  0  0  0  0  0  0  0
    2.3021   -5.6726   26.0378 C   0  0  0  0  0  0  0  0  0  0  0  0
    7.0880   -4.6163   27.0010 C   0  0  0  0  0  0  0  0  0  0  0  0
    8.3117   -4.3698   27.4436 C   0  0  0  0  0  0  0  0  0  0  0  0
    1.1339   -5.0515   26.3541 C   0  0  0  0  0  0  0  0  0  0  0  0
    4.8080   -8.0362   16.7101 C   0  0  0  0  0  0  0  0  0  0  0  0
   -1.2173   -3.9294   26.9717 O   0  0  0  0  0  0  0  0  0  0  0  0
   -1.0025   -5.0942   27.4586 C   0  0  0  0  0  0  0  0  0  0  0  0
    2.2474   -8.9123   16.6273 C   0  0  0  0  0  0  0  0  0  0  0  0
    4.4957   -9.2636   17.3041 C   0  0  0  0  0  0  0  0  0  0  0  0
   -1.8070   -5.6086   28.1920 O   0  0  0  0  0  0  0  0  0  0  0  0
   10.4296   -5.1799   28.3140 C   0  0  0  0  0  0  0  0  0  0  0  0
    6.6017   -5.9004   26.9187 C   0  0  0  0  0  0  0  0  0  0  0  0
    2.4761   -6.9940   26.4111 N   0  0  0  0  0  0  0  0  0  0  0  0
    9.1353   -5.4053   27.8239 C   0  0  0  0  0  0  0  0  0  0  0  0
    0.9922   -9.3232   16.5995 O   0  0  0  0  0  0  0  0  0  0  0  0
    1.5232   -7.6869   27.1182 C   0  0  0  0  0  0  0  0  0  0  0  0
    8.6878   -6.6715   27.7262 N   0  0  0  0  0  0  0  0  0  0  0  0
    6.9911   -8.2423   27.1808 C   0  0  0  0  0  0  0  0  0  0  0  0
    3.8436   -7.2758   16.0578 C   0  0  0  0  0  0  0  0  0  0  0  0
    3.1882   -9.7190   17.2566 C   0  0  0  0  0  0  0  0  0  0  0  0
    5.3488   -6.1737   26.5092 C   0  0  0  0  0  0  0  0  0  0  0  0
    7.4567   -6.9464   27.2858 C   0  0  0  0  0  0  0  0  0  0  0  0
    0.1921   -5.7592   27.1123 C   0  0  0  0  0  0  0  0  0  0  0  0
    3.5517   -7.7407   25.9711 C   0  0  0  0  0  0  0  0  0  0  0  0
  1  4  4  0
  1 22  4  0
  2 20  4  0
  2 27  4  0
  3 12  4  0
  3 23  4  0
  4 25  4  0
  4 28  1  0
  5  8  4  0
  5 17  4  0
  6  7  4  0
  6 16  4  0
  7 18  4  0
  8 27  4  0
  9 13  4  0
  9 23  4  0
 10 11  1  0
 11 14  2  0
 11 27  1  0
 12 19  1  0
 12 24  4  0
 13 24  4  0
 15 18  1  0
 16 25  4  0
 16 26  4  0
 17 20  4  0
 17 28  1  0
 18 21  4  0
 21 26  4  0
 22 26  4  0
M  END
$$$$

 Created by Python create_sdf_string function

 28 30  0  0  0  0  0  0  0  0999 V2000
    5.7174   -8.4529   26.7190 C   0  0  0  0  0  0  0  0  0  0  0  0
    0.3974   -7.0711   27.5149 C   0  0  0  0  0  0  0  0  0  0  0  0
    2.5338   -7.6891   16.0102 C   0  0  0  0  0  0  0  0  0  0  0  0
    4.8690   -7.4380   26.4151 C   0  0  0  0  0  0  0  0  0  0  0  0
    2.3021   -5.6726   26.0378 C   0  0  0  0  0  0  0  0  0  0  0  0
    7.0880   -4.6163   27.0010 C   0  0  0  0  0  0  0  0  0  0  0  0
    8.3117   -4.3698   27.4436 C   0  0  0  0  0  0  0  0  0  0  0  0
    1.1339   -5.0515   26.3541 C   0  0  0  0  0  0  0  0  0  0  0  0
    4.8080   -8.0362   16.7101 C   0  0  0  0  0  0  0  0  0  0  0  0
   -1.2173   -3.9294   26.9717 O   0  0  0  0  0  0  0  0  0  0  0  0
   -1.0025   -5.0942   27.4586 C   0  0  0  0  0  0  0  0  0  0  0  0
    2.2474   -8.9123   16.6273 C   0  0  0  0  0  0  0  0  0  0  0  0
    4.4957   -9.2636   17.3041 C   0  0  0  0  0  0  0  0  0  0  0  0
   -1.8070   -5.6086   28.1920 O   0  0  0  0  0  0  0  0  0  0  0  0
   10.4296   -5.1799   28.3140 C   0  0  0  0  0  0  0  0  0  0  0  0
    6.6017   -5.9004   26.9187 C   0  0  0  0  0  0  0  0  0  0  0  0
    2.4761   -6.9940   26.4111 N   0  0  0  0  0  0  0  0  0  0  0  0
    9.1353   -5.4053   27.8239 C   0  0  0  0  0  0  0  0  0  0  0  0
    0.9922   -9.3232   16.5995 O   0  0  0  0  0  0  0  0  0  0  0  0
    1.5232   -7.6869   27.1182 C   0  0  0  0  0  0  0  0  0  0  0  0
    8.6878   -6.6715   27.7262 N   0  0  0  0  0  0  0  0  0  0  0  0
    6.9911   -8.2423   27.1808 C   0  0  0  0  0  0  0  0  0  0  0  0
    3.8436   -7.2758   16.0578 C   0  0  0  0  0  0  0  0  0  0  0  0
    3.1882   -9.7190   17.2566 C   0  0  0  0  0  0  0  0  0  0  0  0
    5.3488   -6.1737   26.5092 C   0  0  0  0  0  0  0  0  0  0  0  0
    7.4567   -6.9464   27.2858 C   0  0  0  0  0  0  0  0  0  0  0  0
    0.1921   -5.7592   27.1123 C   0  0  0  0  0  0  0  0  0  0  0  0
    3.5517   -7.7407   25.9711 C   0  0  0  0  0  0  0  0  0  0  0  0
  1  4  4  0
  1 22  4  0
  2 20  4  0
  2 27  4  0
  3 12  4  0
  3 23  4  0
  4 25  4  0
  4 28  1  0
  5  8  4  0
  5 17  4  0
  6  7  4  0
  6 16  4  0
  7 18  4  0
  8 27  4  0
  9 13  4  0
  9 23  4  0
 10 11  1  0
 11 14  2  0
 11 27  1  0
 12 19  1  0
 12 24  4  0
 13 24  4  0
 15 18  1  0
 16 25  4  0
 16 26  4  0
 17 20  4  0
 17 28  1  0
 18 21  4  0
 21 26  4  0
 22 26  4  0
M  END
$$$$

 Created by Python create_sdf_string function

 28 30  0  0  0  0  0  0  0  0999 V2000
    5.7174   -8.4529   26.7190 C   0  0  0  0  0  0  0  0  0  0  0  0
    0.3974   -7.0711   27.5149 C   0  0  0  0  0  0  0  0  0  0  0  0
    2.5338   -7.6891   16.0102 C   0  0  0  0  0  0  0  0  0  0  0  0
    4.8690   -7.4380   26.4151 C   0  0  0  0  0  0  0  0  0  0  0  0
    2.3021   -5.6726   26.0378 C   0  0  0  0  0  0  0  0  0  0  0  0
    7.0880   -4.6163   27.0010 C   0  0  0  0  0  0  0  0  0  0  0  0
    8.3117   -4.3698   27.4436 C   0  0  0  0  0  0  0  0  0  0  0  0
    1.1339   -5.0515   26.3541 C   0  0  0  0  0  0  0  0  0  0  0  0
    4.8080   -8.0362   16.7101 C   0  0  0  0  0  0  0  0  0  0  0  0
   -1.2173   -3.9294   26.9717 O   0  0  0  0  0  0  0  0  0  0  0  0
   -1.0025   -5.0942   27.4586 C   0  0  0  0  0  0  0  0  0  0  0  0
    2.2474   -8.9123   16.6273 C   0  0  0  0  0  0  0  0  0  0  0  0
    4.4957   -9.2636   17.3041 C   0  0  0  0  0  0  0  0  0  0  0  0
   -1.8070   -5.6086   28.1920 O   0  0  0  0  0  0  0  0  0  0  0  0
   10.4296   -5.1799   28.3140 C   0  0  0  0  0  0  0  0  0  0  0  0
    6.6017   -5.9004   26.9187 C   0  0  0  0  0  0  0  0  0  0  0  0
    2.4761   -6.9940   26.4111 N   0  0  0  0  0  0  0  0  0  0  0  0
    9.1353   -5.4053   27.8239 C   0  0  0  0  0  0  0  0  0  0  0  0
    0.9922   -9.3232   16.5995 O   0  0  0  0  0  0  0  0  0  0  0  0
    1.5232   -7.6869   27.1182 C   0  0  0  0  0  0  0  0  0  0  0  0
    8.6878   -6.6715   27.7262 N   0  0  0  0  0  0  0  0  0  0  0  0
    6.9911   -8.2423   27.1808 C   0  0  0  0  0  0  0  0  0  0  0  0
    3.8436   -7.2758   16.0578 C   0  0  0  0  0  0  0  0  0  0  0  0
    3.1882   -9.7190   17.2566 C   0  0  0  0  0  0  0  0  0  0  0  0
    5.3488   -6.1737   26.5092 C   0  0  0  0  0  0  0  0  0  0  0  0
    7.4567   -6.9464   27.2858 C   0  0  0  0  0  0  0  0  0  0  0  0
    0.1921   -5.7592   27.1123 C   0  0  0  0  0  0  0  0  0  0  0  0
    3.5517   -7.7407   25.9711 C   0  0  0  0  0  0  0  0  0  0  0  0
  1  4  4  0
  1 22  4  0
  2 20  4  0
  2 27  4  0
  3 12  4  0
  3 23  4  0
  4 25  4  0
  4 28  1  0
  5  8  4  0
  5 17  4  0
  6  7  4  0
  6 16  4  0
  7 18  4  0
  8 27  4  0
  9 13  4  0
  9 23  4  0
 10 11  1  0
 11 14  2  0
 11 27  1  0
 12 19  1  0
 12 24  4  0
 13 24  4  0
 15 18  1  0
 16 25  4  0
 16 26  4  0
 17 20  4  0
 17 28  1  0
 18 21  4  0
 21 26  4  0
 22 26  4  0
M  END
$$$$

 Created by Python create_sdf_string function

 28 30  0  0  0  0  0  0  0  0999 V2000
    5.7174   -8.4529   26.7190 C   0  0  0  0  0  0  0  0  0  0  0  0
    0.3974   -7.0711   27.5149 C   0  0  0  0  0  0  0  0  0  0  0  0
    2.5338   -7.6891   16.0102 C   0  0  0  0  0  0  0  0  0  0  0  0
    4.8690   -7.4380   26.4151 C   0  0  0  0  0  0  0  0  0  0  0  0
    2.3021   -5.6726   26.0378 C   0  0  0  0  0  0  0  0  0  0  0  0
    7.0880   -4.6163   27.0010 C   0  0  0  0  0  0  0  0  0  0  0  0
    8.3117   -4.3698   27.4436 C   0  0  0  0  0  0  0  0  0  0  0  0
    1.1339   -5.0515   26.3541 C   0  0  0  0  0  0  0  0  0  0  0  0
    4.8080   -8.0362   16.7101 C   0  0  0  0  0  0  0  0  0  0  0  0
   -1.2173   -3.9294   26.9717 O   0  0  0  0  0  0  0  0  0  0  0  0
   -1.0025   -5.0942   27.4586 C   0  0  0  0  0  0  0  0  0  0  0  0
    2.2474   -8.9123   16.6273 C   0  0  0  0  0  0  0  0  0  0  0  0
    4.4957   -9.2636   17.3041 C   0  0  0  0  0  0  0  0  0  0  0  0
   -1.8070   -5.6086   28.1920 O   0  0  0  0  0  0  0  0  0  0  0  0
   10.4296   -5.1799   28.3140 C   0  0  0  0  0  0  0  0  0  0  0  0
    6.6017   -5.9004   26.9187 C   0  0  0  0  0  0  0  0  0  0  0  0
    2.4761   -6.9940   26.4111 N   0  0  0  0  0  0  0  0  0  0  0  0
    9.1353   -5.4053   27.8239 C   0  0  0  0  0  0  0  0  0  0  0  0
    0.9922   -9.3232   16.5995 O   0  0  0  0  0  0  0  0  0  0  0  0
    1.5232   -7.6869   27.1182 C   0  0  0  0  0  0  0  0  0  0  0  0
    8.6878   -6.6715   27.7262 N   0  0  0  0  0  0  0  0  0  0  0  0
    6.9911   -8.2423   27.1808 C   0  0  0  0  0  0  0  0  0  0  0  0
    3.8436   -7.2758   16.0578 C   0  0  0  0  0  0  0  0  0  0  0  0
    3.1882   -9.7190   17.2566 C   0  0  0  0  0  0  0  0  0  0  0  0
    5.3488   -6.1737   26.5092 C   0  0  0  0  0  0  0  0  0  0  0  0
    7.4567   -6.9464   27.2858 C   0  0  0  0  0  0  0  0  0  0  0  0
    0.1921   -5.7592   27.1123 C   0  0  0  0  0  0  0  0  0  0  0  0
    3.5517   -7.7407   25.9711 C   0  0  0  0  0  0  0  0  0  0  0  0
  1  4  4  0
  1 22  4  0
  2 20  4  0
  2 27  4  0
  3 12  4  0
  3 23  4  0
  4 25  4  0
  4 28  1  0
  5  8  4  0
  5 17  4  0
  6  7  4  0
  6 16  4  0
  7 18  4  0
  8 27  4  0
  9 13  4  0
  9 23  4  0
 10 11  1  0
 11 14  2  0
 11 27  1  0
 12 19  1  0
 12 24  4  0
 13 24  4  0
 15 18  1  0
 16 25  4  0
 16 26  4  0
 17 20  4  0
 17 28  1  0
 18 21  4  0
 21 26  4  0
 22 26  4  0
M  END
$$$$

 Created by Python create_sdf_string function

 28 30  0  0  0  0  0  0  0  0999 V2000
    5.7174   -8.4529   26.7190 C   0  0  0  0  0  0  0  0  0  0  0  0
    0.3974   -7.0711   27.5149 C   0  0  0  0  0  0  0  0  0  0  0  0
    2.5338   -7.6891   16.0102 C   0  0  0  0  0  0  0  0  0  0  0  0
    4.8690   -7.4380   26.4151 C   0  0  0  0  0  0  0  0  0  0  0  0
    2.3021   -5.6726   26.0378 C   0  0  0  0  0  0  0  0  0  0  0  0
    7.0880   -4.6163   27.0010 C   0  0  0  0  0  0  0  0  0  0  0  0
    8.3117   -4.3698   27.4436 C   0  0  0  0  0  0  0  0  0  0  0  0
    1.1339   -5.0515   26.3541 C   0  0  0  0  0  0  0  0  0  0  0  0
    4.8080   -8.0362   16.7101 C   0  0  0  0  0  0  0  0  0  0  0  0
   -1.2173   -3.9294   26.9717 O   0  0  0  0  0  0  0  0  0  0  0  0
   -1.0025   -5.0942   27.4586 C   0  0  0  0  0  0  0  0  0  0  0  0
    2.2474   -8.9123   16.6273 C   0  0  0  0  0  0  0  0  0  0  0  0
    4.4957   -9.2636   17.3041 C   0  0  0  0  0  0  0  0  0  0  0  0
   -1.8070   -5.6086   28.1920 O   0  0  0  0  0  0  0  0  0  0  0  0
   10.4296   -5.1799   28.3140 C   0  0  0  0  0  0  0  0  0  0  0  0
    6.6017   -5.9004   26.9187 C   0  0  0  0  0  0  0  0  0  0  0  0
    2.4761   -6.9940   26.4111 N   0  0  0  0  0  0  0  0  0  0  0  0
    9.1353   -5.4053   27.8239 C   0  0  0  0  0  0  0  0  0  0  0  0
    0.9922   -9.3232   16.5995 O   0  0  0  0  0  0  0  0  0  0  0  0
    1.5232   -7.6869   27.1182 C   0  0  0  0  0  0  0  0  0  0  0  0
    8.6878   -6.6715   27.7262 N   0  0  0  0  0  0  0  0  0  0  0  0
    6.9911   -8.2423   27.1808 C   0  0  0  0  0  0  0  0  0  0  0  0
    3.8436   -7.2758   16.0578 C   0  0  0  0  0  0  0  0  0  0  0  0
    3.1882   -9.7190   17.2566 C   0  0  0  0  0  0  0  0  0  0  0  0
    5.3488   -6.1737   26.5092 C   0  0  0  0  0  0  0  0  0  0  0  0
    7.4567   -6.9464   27.2858 C   0  0  0  0  0  0  0  0  0  0  0  0
    0.1921   -5.7592   27.1123 C   0  0  0  0  0  0  0  0  0  0  0  0
    3.5517   -7.7407   25.9711 C   0  0  0  0  0  0  0  0  0  0  0  0
  1  4  4  0
  1 22  4  0
  2 20  4  0
  2 27  4  0
  3 12  4  0
  3 23  4  0
  4 25  4  0
  4 28  1  0
  5  8  4  0
  5 17  4  0
  6  7  4  0
  6 16  4  0
  7 18  4  0
  8 27  4  0
  9 13  4  0
  9 23  4  0
 10 11  1  0
 11 14  2  0
 11 27  1  0
 12 19  1  0
 12 24  4  0
 13 24  4  0
 15 18  1  0
 16 25  4  0
 16 26  4  0
 17 20  4  0
 17 28  1  0
 18 21  4  0
 21 26  4  0
 22 26  4  0
M  END
$$$$

 Created by Python create_sdf_string function

 28 30  0  0  0  0  0  0  0  0999 V2000
    5.7174   -8.4529   26.7190 C   0  0  0  0  0  0  0  0  0  0  0  0
    0.3974   -7.0711   27.5149 C   0  0  0  0  0  0  0  0  0  0  0  0
    2.5338   -7.6891   16.0102 C   0  0  0  0  0  0  0  0  0  0  0  0
    4.8690   -7.4380   26.4151 C   0  0  0  0  0  0  0  0  0  0  0  0
    2.3021   -5.6726   26.0378 C   0  0  0  0  0  0  0  0  0  0  0  0
    7.0880   -4.6163   27.0010 C   0  0  0  0  0  0  0  0  0  0  0  0
    8.3117   -4.3698   27.4436 C   0  0  0  0  0  0  0  0  0  0  0  0
    1.1339   -5.0515   26.3541 C   0  0  0  0  0  0  0  0  0  0  0  0
    4.8080   -8.0362   16.7101 C   0  0  0  0  0  0  0  0  0  0  0  0
   -1.2173   -3.9294   26.9717 O   0  0  0  0  0  0  0  0  0  0  0  0
   -1.0025   -5.0942   27.4586 C   0  0  0  0  0  0  0  0  0  0  0  0
    2.2474   -8.9123   16.6273 C   0  0  0  0  0  0  0  0  0  0  0  0
    4.4957   -9.2636   17.3041 C   0  0  0  0  0  0  0  0  0  0  0  0
   -1.8070   -5.6086   28.1920 O   0  0  0  0  0  0  0  0  0  0  0  0
   10.4296   -5.1799   28.3140 C   0  0  0  0  0  0  0  0  0  0  0  0
    6.6017   -5.9004   26.9187 C   0  0  0  0  0  0  0  0  0  0  0  0
    2.4761   -6.9940   26.4111 N   0  0  0  0  0  0  0  0  0  0  0  0
    9.1353   -5.4053   27.8239 C   0  0  0  0  0  0  0  0  0  0  0  0
    0.9922   -9.3232   16.5995 O   0  0  0  0  0  0  0  0  0  0  0  0
    1.5232   -7.6869   27.1182 C   0  0  0  0  0  0  0  0  0  0  0  0
    8.6878   -6.6715   27.7262 N   0  0  0  0  0  0  0  0  0  0  0  0
    6.9911   -8.2423   27.1808 C   0  0  0  0  0  0  0  0  0  0  0  0
    3.8436   -7.2758   16.0578 C   0  0  0  0  0  0  0  0  0  0  0  0
    3.1882   -9.7190   17.2566 C   0  0  0  0  0  0  0  0  0  0  0  0
    5.3488   -6.1737   26.5092 C   0  0  0  0  0  0  0  0  0  0  0  0
    7.4567   -6.9464   27.2858 C   0  0  0  0  0  0  0  0  0  0  0  0
    0.1921   -5.7592   27.1123 C   0  0  0  0  0  0  0  0  0  0  0  0
    3.5517   -7.7407   25.9711 C   0  0  0  0  0  0  0  0  0  0  0  0
  1  4  4  0
  1 22  4  0
  2 20  4  0
  2 27  4  0
  3 12  4  0
  3 23  4  0
  4 25  4  0
  4 28  1  0
  5  8  4  0
  5 17  4  0
  6  7  4  0
  6 16  4  0
  7 18  4  0
  8 27  4  0
  9 13  4  0
  9 23  4  0
 10 11  1  0
 11 14  2  0
 11 27  1  0
 12 19  1  0
 12 24  4  0
 13 24  4  0
 15 18  1  0
 16 25  4  0
 16 26  4  0
 17 20  4  0
 17 28  1  0
 18 21  4  0
 21 26  4  0
 22 26  4  0
M  END
$$$$

 Created by Python create_sdf_string function

 28 30  0  0  0  0  0  0  0  0999 V2000
    5.7174   -8.4529   26.7190 C   0  0  0  0  0  0  0  0  0  0  0  0
    0.3974   -7.0711   27.5149 C   0  0  0  0  0  0  0  0  0  0  0  0
    2.5338   -7.6891   16.0102 C   0  0  0  0  0  0  0  0  0  0  0  0
    4.8690   -7.4380   26.4151 C   0  0  0  0  0  0  0  0  0  0  0  0
    2.3021   -5.6726   26.0378 C   0  0  0  0  0  0  0  0  0  0  0  0
    7.0880   -4.6163   27.0010 C   0  0  0  0  0  0  0  0  0  0  0  0
    8.3117   -4.3698   27.4436 C   0  0  0  0  0  0  0  0  0  0  0  0
    1.1339   -5.0515   26.3541 C   0  0  0  0  0  0  0  0  0  0  0  0
    4.8080   -8.0362   16.7101 C   0  0  0  0  0  0  0  0  0  0  0  0
   -1.2173   -3.9294   26.9717 O   0  0  0  0  0  0  0  0  0  0  0  0
   -1.0025   -5.0942   27.4586 C   0  0  0  0  0  0  0  0  0  0  0  0
    2.2474   -8.9123   16.6273 C   0  0  0  0  0  0  0  0  0  0  0  0
    4.4957   -9.2636   17.3041 C   0  0  0  0  0  0  0  0  0  0  0  0
   -1.8070   -5.6086   28.1920 O   0  0  0  0  0  0  0  0  0  0  0  0
   10.4296   -5.1799   28.3140 C   0  0  0  0  0  0  0  0  0  0  0  0
    6.6017   -5.9004   26.9187 C   0  0  0  0  0  0  0  0  0  0  0  0
    2.4761   -6.9940   26.4111 N   0  0  0  0  0  0  0  0  0  0  0  0
    9.1353   -5.4053   27.8239 C   0  0  0  0  0  0  0  0  0  0  0  0
    0.9922   -9.3232   16.5995 O   0  0  0  0  0  0  0  0  0  0  0  0
    1.5232   -7.6869   27.1182 C   0  0  0  0  0  0  0  0  0  0  0  0
    8.6878   -6.6715   27.7262 N   0  0  0  0  0  0  0  0  0  0  0  0
    6.9911   -8.2423   27.1808 C   0  0  0  0  0  0  0  0  0  0  0  0
    3.8436   -7.2758   16.0578 C   0  0  0  0  0  0  0  0  0  0  0  0
    3.1882   -9.7190   17.2566 C   0  0  0  0  0  0  0  0  0  0  0  0
    5.3488   -6.1737   26.5092 C   0  0  0  0  0  0  0  0  0  0  0  0
    7.4567   -6.9464   27.2858 C   0  0  0  0  0  0  0  0  0  0  0  0
    0.1921   -5.7592   27.1123 C   0  0  0  0  0  0  0  0  0  0  0  0
    3.5517   -7.7407   25.9711 C   0  0  0  0  0  0  0  0  0  0  0  0
  1  4  4  0
  1 22  4  0
  2 20  4  0
  2 27  4  0
  3 12  4  0
  3 23  4  0
  4 25  4  0
  4 28  1  0
  5  8  4  0
  5 17  4  0
  6  7  4  0
  6 16  4  0
  7 18  4  0
  8 27  4  0
  9 13  4  0
  9 23  4  0
 10 11  1  0
 11 14  2  0
 11 27  1  0
 12 19  1  0
 12 24  4  0
 13 24  4  0
 15 18  1  0
 16 25  4  0
 16 26  4  0
 17 20  4  0
 17 28  1  0
 18 21  4  0
 21 26  4  0
 22 26  4  0
M  END
$$$$

 Created by Python create_sdf_string function

 28 30  0  0  0  0  0  0  0  0999 V2000
    5.7174   -8.4529   26.7190 C   0  0  0  0  0  0  0  0  0  0  0  0
    0.3974   -7.0711   27.5149 C   0  0  0  0  0  0  0  0  0  0  0  0
    2.5338   -7.6891   16.0102 C   0  0  0  0  0  0  0  0  0  0  0  0
    4.8690   -7.4380   26.4151 C   0  0  0  0  0  0  0  0  0  0  0  0
    2.3021   -5.6726   26.0378 C   0  0  0  0  0  0  0  0  0  0  0  0
    7.0880   -4.6163   27.0010 C   0  0  0  0  0  0  0  0  0  0  0  0
    8.3117   -4.3698   27.4436 C   0  0  0  0  0  0  0  0  0  0  0  0
    1.1339   -5.0515   26.3541 C   0  0  0  0  0  0  0  0  0  0  0  0
    4.8080   -8.0362   16.7101 C   0  0  0  0  0  0  0  0  0  0  0  0
   -1.2173   -3.9294   26.9717 O   0  0  0  0  0  0  0  0  0  0  0  0
   -1.0025   -5.0942   27.4586 C   0  0  0  0  0  0  0  0  0  0  0  0
    2.2474   -8.9123   16.6273 C   0  0  0  0  0  0  0  0  0  0  0  0
    4.4957   -9.2636   17.3041 C   0  0  0  0  0  0  0  0  0  0  0  0
   -1.8070   -5.6086   28.1920 O   0  0  0  0  0  0  0  0  0  0  0  0
   10.4296   -5.1799   28.3140 C   0  0  0  0  0  0  0  0  0  0  0  0
    6.6017   -5.9004   26.9187 C   0  0  0  0  0  0  0  0  0  0  0  0
    2.4761   -6.9940   26.4111 N   0  0  0  0  0  0  0  0  0  0  0  0
    9.1353   -5.4053   27.8239 C   0  0  0  0  0  0  0  0  0  0  0  0
    0.9922   -9.3232   16.5995 O   0  0  0  0  0  0  0  0  0  0  0  0
    1.5232   -7.6869   27.1182 C   0  0  0  0  0  0  0  0  0  0  0  0
    8.6878   -6.6715   27.7262 N   0  0  0  0  0  0  0  0  0  0  0  0
    6.9911   -8.2423   27.1808 C   0  0  0  0  0  0  0  0  0  0  0  0
    3.8436   -7.2758   16.0578 C   0  0  0  0  0  0  0  0  0  0  0  0
    3.1882   -9.7190   17.2566 C   0  0  0  0  0  0  0  0  0  0  0  0
    5.3488   -6.1737   26.5092 C   0  0  0  0  0  0  0  0  0  0  0  0
    7.4567   -6.9464   27.2858 C   0  0  0  0  0  0  0  0  0  0  0  0
    0.1921   -5.7592   27.1123 C   0  0  0  0  0  0  0  0  0  0  0  0
    3.5517   -7.7407   25.9711 C   0  0  0  0  0  0  0  0  0  0  0  0
  1  4  4  0
  1 22  4  0
  2 20  4  0
  2 27  4  0
  3 12  4  0
  3 23  4  0
  4 25  4  0
  4 28  1  0
  5  8  4  0
  5 17  4  0
  6  7  4  0
  6 16  4  0
  7 18  4  0
  8 27  4  0
  9 13  4  0
  9 23  4  0
 10 11  1  0
 11 14  2  0
 11 27  1  0
 12 19  1  0
 12 24  4  0
 13 24  4  0
 15 18  1  0
 16 25  4  0
 16 26  4  0
 17 20  4  0
 17 28  1  0
 18 21  4  0
 21 26  4  0
 22 26  4  0
M  END
$$$$

 Created by Python create_sdf_string function

 28 30  0  0  0  0  0  0  0  0999 V2000
    5.7174   -8.4529   26.7190 C   0  0  0  0  0  0  0  0  0  0  0  0
    0.3974   -7.0711   27.5149 C   0  0  0  0  0  0  0  0  0  0  0  0
    2.5338   -7.6891   16.0102 C   0  0  0  0  0  0  0  0  0  0  0  0
    4.8690   -7.4380   26.4151 C   0  0  0  0  0  0  0  0  0  0  0  0
    2.3021   -5.6726   26.0378 C   0  0  0  0  0  0  0  0  0  0  0  0
    7.0880   -4.6163   27.0010 C   0  0  0  0  0  0  0  0  0  0  0  0
    8.3117   -4.3698   27.4436 C   0  0  0  0  0  0  0  0  0  0  0  0
    1.1339   -5.0515   26.3541 C   0  0  0  0  0  0  0  0  0  0  0  0
    4.8080   -8.0362   16.7101 C   0  0  0  0  0  0  0  0  0  0  0  0
   -1.2173   -3.9294   26.9717 O   0  0  0  0  0  0  0  0  0  0  0  0
   -1.0025   -5.0942   27.4586 C   0  0  0  0  0  0  0  0  0  0  0  0
    2.2474   -8.9123   16.6273 C   0  0  0  0  0  0  0  0  0  0  0  0
    4.4957   -9.2636   17.3041 C   0  0  0  0  0  0  0  0  0  0  0  0
   -1.8070   -5.6086   28.1920 O   0  0  0  0  0  0  0  0  0  0  0  0
   10.4296   -5.1799   28.3140 C   0  0  0  0  0  0  0  0  0  0  0  0
    6.6017   -5.9004   26.9187 C   0  0  0  0  0  0  0  0  0  0  0  0
    2.4761   -6.9940   26.4111 N   0  0  0  0  0  0  0  0  0  0  0  0
    9.1353   -5.4053   27.8239 C   0  0  0  0  0  0  0  0  0  0  0  0
    0.9922   -9.3232   16.5995 O   0  0  0  0  0  0  0  0  0  0  0  0
    1.5232   -7.6869   27.1182 C   0  0  0  0  0  0  0  0  0  0  0  0
    8.6878   -6.6715   27.7262 N   0  0  0  0  0  0  0  0  0  0  0  0
    6.9911   -8.2423   27.1808 C   0  0  0  0  0  0  0  0  0  0  0  0
    3.8436   -7.2758   16.0578 C   0  0  0  0  0  0  0  0  0  0  0  0
    3.1882   -9.7190   17.2566 C   0  0  0  0  0  0  0  0  0  0  0  0
    5.3488   -6.1737   26.5092 C   0  0  0  0  0  0  0  0  0  0  0  0
    7.4567   -6.9464   27.2858 C   0  0  0  0  0  0  0  0  0  0  0  0
    0.1921   -5.7592   27.1123 C   0  0  0  0  0  0  0  0  0  0  0  0
    3.5517   -7.7407   25.9711 C   0  0  0  0  0  0  0  0  0  0  0  0
  1  4  4  0
  1 22  4  0
  2 20  4  0
  2 27  4  0
  3 12  4  0
  3 23  4  0
  4 25  4  0
  4 28  1  0
  5  8  4  0
  5 17  4  0
  6  7  4  0
  6 16  4  0
  7 18  4  0
  8 27  4  0
  9 13  4  0
  9 23  4  0
 10 11  1  0
 11 14  2  0
 11 27  1  0
 12 19  1  0
 12 24  4  0
 13 24  4  0
 15 18  1  0
 16 25  4  0
 16 26  4  0
 17 20  4  0
 17 28  1  0
 18 21  4  0
 21 26  4  0
 22 26  4  0
M  END
$$$$

 Created by Python create_sdf_string function

 28 30  0  0  0  0  0  0  0  0999 V2000
    5.7174   -8.4529   26.7190 C   0  0  0  0  0  0  0  0  0  0  0  0
    0.3974   -7.0711   27.5149 C   0  0  0  0  0  0  0  0  0  0  0  0
    2.5338   -7.6891   16.0102 C   0  0  0  0  0  0  0  0  0  0  0  0
    4.8690   -7.4380   26.4151 C   0  0  0  0  0  0  0  0  0  0  0  0
    2.3021   -5.6726   26.0378 C   0  0  0  0  0  0  0  0  0  0  0  0
    7.0880   -4.6163   27.0010 C   0  0  0  0  0  0  0  0  0  0  0  0
    8.3117   -4.3698   27.4436 C   0  0  0  0  0  0  0  0  0  0  0  0
    1.1339   -5.0515   26.3541 C   0  0  0  0  0  0  0  0  0  0  0  0
    4.8080   -8.0362   16.7101 C   0  0  0  0  0  0  0  0  0  0  0  0
   -1.2173   -3.9294   26.9717 O   0  0  0  0  0  0  0  0  0  0  0  0
   -1.0025   -5.0942   27.4586 C   0  0  0  0  0  0  0  0  0  0  0  0
    2.2474   -8.9123   16.6273 C   0  0  0  0  0  0  0  0  0  0  0  0
    4.4957   -9.2636   17.3041 C   0  0  0  0  0  0  0  0  0  0  0  0
   -1.8070   -5.6086   28.1920 O   0  0  0  0  0  0  0  0  0  0  0  0
   10.4296   -5.1799   28.3140 C   0  0  0  0  0  0  0  0  0  0  0  0
    6.6017   -5.9004   26.9187 C   0  0  0  0  0  0  0  0  0  0  0  0
    2.4761   -6.9940   26.4111 N   0  0  0  0  0  0  0  0  0  0  0  0
    9.1353   -5.4053   27.8239 C   0  0  0  0  0  0  0  0  0  0  0  0
    0.9922   -9.3232   16.5995 O   0  0  0  0  0  0  0  0  0  0  0  0
    1.5232   -7.6869   27.1182 C   0  0  0  0  0  0  0  0  0  0  0  0
    8.6878   -6.6715   27.7262 N   0  0  0  0  0  0  0  0  0  0  0  0
    6.9911   -8.2423   27.1808 C   0  0  0  0  0  0  0  0  0  0  0  0
    3.8436   -7.2758   16.0578 C   0  0  0  0  0  0  0  0  0  0  0  0
    3.1882   -9.7190   17.2566 C   0  0  0  0  0  0  0  0  0  0  0  0
    5.3488   -6.1737   26.5092 C   0  0  0  0  0  0  0  0  0  0  0  0
    7.4567   -6.9464   27.2858 C   0  0  0  0  0  0  0  0  0  0  0  0
    0.1921   -5.7592   27.1123 C   0  0  0  0  0  0  0  0  0  0  0  0
    3.5517   -7.7407   25.9711 C   0  0  0  0  0  0  0  0  0  0  0  0
  1  4  4  0
  1 22  4  0
  2 20  4  0
  2 27  4  0
  3 12  4  0
  3 23  4  0
  4 25  4  0
  4 28  1  0
  5  8  4  0
  5 17  4  0
  6  7  4  0
  6 16  4  0
  7 18  4  0
  8 27  4  0
  9 13  4  0
  9 23  4  0
 10 11  1  0
 11 14  2  0
 11 27  1  0
 12 19  1  0
 12 24  4  0
 13 24  4  0
 15 18  1  0
 16 25  4  0
 16 26  4  0
 17 20  4  0
 17 28  1  0
 18 21  4  0
 21 26  4  0
 22 26  4  0
M  END
$$$$

 Created by Python create_sdf_string function

 28 30  0  0  0  0  0  0  0  0999 V2000
    5.7174   -8.4529   26.7190 C   0  0  0  0  0  0  0  0  0  0  0  0
    0.3974   -7.0711   27.5149 C   0  0  0  0  0  0  0  0  0  0  0  0
    2.5338   -7.6891   16.0102 C   0  0  0  0  0  0  0  0  0  0  0  0
    4.8690   -7.4380   26.4151 C   0  0  0  0  0  0  0  0  0  0  0  0
    2.3021   -5.6726   26.0378 C   0  0  0  0  0  0  0  0  0  0  0  0
    7.0880   -4.6163   27.0010 C   0  0  0  0  0  0  0  0  0  0  0  0
    8.3117   -4.3698   27.4436 C   0  0  0  0  0  0  0  0  0  0  0  0
    1.1339   -5.0515   26.3541 C   0  0  0  0  0  0  0  0  0  0  0  0
    4.8080   -8.0362   16.7101 C   0  0  0  0  0  0  0  0  0  0  0  0
   -1.2173   -3.9294   26.9717 O   0  0  0  0  0  0  0  0  0  0  0  0
   -1.0025   -5.0942   27.4586 C   0  0  0  0  0  0  0  0  0  0  0  0
    2.2474   -8.9123   16.6273 C   0  0  0  0  0  0  0  0  0  0  0  0
    4.4957   -9.2636   17.3041 C   0  0  0  0  0  0  0  0  0  0  0  0
   -1.8070   -5.6086   28.1920 O   0  0  0  0  0  0  0  0  0  0  0  0
   10.4296   -5.1799   28.3140 C   0  0  0  0  0  0  0  0  0  0  0  0
    6.6017   -5.9004   26.9187 C   0  0  0  0  0  0  0  0  0  0  0  0
    2.4761   -6.9940   26.4111 N   0  0  0  0  0  0  0  0  0  0  0  0
    9.1353   -5.4053   27.8239 C   0  0  0  0  0  0  0  0  0  0  0  0
    0.9922   -9.3232   16.5995 O   0  0  0  0  0  0  0  0  0  0  0  0
    1.5232   -7.6869   27.1182 C   0  0  0  0  0  0  0  0  0  0  0  0
    8.6878   -6.6715   27.7262 N   0  0  0  0  0  0  0  0  0  0  0  0
    6.9911   -8.2423   27.1808 C   0  0  0  0  0  0  0  0  0  0  0  0
    3.8436   -7.2758   16.0578 C   0  0  0  0  0  0  0  0  0  0  0  0
    3.1882   -9.7190   17.2566 C   0  0  0  0  0  0  0  0  0  0  0  0
    5.3488   -6.1737   26.5092 C   0  0  0  0  0  0  0  0  0  0  0  0
    7.4567   -6.9464   27.2858 C   0  0  0  0  0  0  0  0  0  0  0  0
    0.1921   -5.7592   27.1123 C   0  0  0  0  0  0  0  0  0  0  0  0
    3.5517   -7.7407   25.9711 C   0  0  0  0  0  0  0  0  0  0  0  0
  1  4  4  0
  1 22  4  0
  2 20  4  0
  2 27  4  0
  3 12  4  0
  3 23  4  0
  4 25  4  0
  4 28  1  0
  5  8  4  0
  5 17  4  0
  6  7  4  0
  6 16  4  0
  7 18  4  0
  8 27  4  0
  9 13  4  0
  9 23  4  0
 10 11  1  0
 11 14  2  0
 11 27  1  0
 12 19  1  0
 12 24  4  0
 13 24  4  0
 15 18  1  0
 16 25  4  0
 16 26  4  0
 17 20  4  0
 17 28  1  0
 18 21  4  0
 21 26  4  0
 22 26  4  0
M  END
$$$$

 Created by Python create_sdf_string function

 28 30  0  0  0  0  0  0  0  0999 V2000
    5.7174   -8.4529   26.7190 C   0  0  0  0  0  0  0  0  0  0  0  0
    0.3974   -7.0711   27.5149 C   0  0  0  0  0  0  0  0  0  0  0  0
    2.5338   -7.6891   16.0102 C   0  0  0  0  0  0  0  0  0  0  0  0
    4.8690   -7.4380   26.4151 C   0  0  0  0  0  0  0  0  0  0  0  0
    2.3021   -5.6726   26.0378 C   0  0  0  0  0  0  0  0  0  0  0  0
    7.0880   -4.6163   27.0010 C   0  0  0  0  0  0  0  0  0  0  0  0
    8.3117   -4.3698   27.4436 C   0  0  0  0  0  0  0  0  0  0  0  0
    1.1339   -5.0515   26.3541 C   0  0  0  0  0  0  0  0  0  0  0  0
    4.8080   -8.0362   16.7101 C   0  0  0  0  0  0  0  0  0  0  0  0
   -1.2173   -3.9294   26.9717 O   0  0  0  0  0  0  0  0  0  0  0  0
   -1.0025   -5.0942   27.4586 C   0  0  0  0  0  0  0  0  0  0  0  0
    2.2474   -8.9123   16.6273 C   0  0  0  0  0  0  0  0  0  0  0  0
    4.4957   -9.2636   17.3041 C   0  0  0  0  0  0  0  0  0  0  0  0
   -1.8070   -5.6086   28.1920 O   0  0  0  0  0  0  0  0  0  0  0  0
   10.4296   -5.1799   28.3140 C   0  0  0  0  0  0  0  0  0  0  0  0
    6.6017   -5.9004   26.9187 C   0  0  0  0  0  0  0  0  0  0  0  0
    2.4761   -6.9940   26.4111 N   0  0  0  0  0  0  0  0  0  0  0  0
    9.1353   -5.4053   27.8239 C   0  0  0  0  0  0  0  0  0  0  0  0
    0.9922   -9.3232   16.5995 O   0  0  0  0  0  0  0  0  0  0  0  0
    1.5232   -7.6869   27.1182 C   0  0  0  0  0  0  0  0  0  0  0  0
    8.6878   -6.6715   27.7262 N   0  0  0  0  0  0  0  0  0  0  0  0
    6.9911   -8.2423   27.1808 C   0  0  0  0  0  0  0  0  0  0  0  0
    3.8436   -7.2758   16.0578 C   0  0  0  0  0  0  0  0  0  0  0  0
    3.1882   -9.7190   17.2566 C   0  0  0  0  0  0  0  0  0  0  0  0
    5.3488   -6.1737   26.5092 C   0  0  0  0  0  0  0  0  0  0  0  0
    7.4567   -6.9464   27.2858 C   0  0  0  0  0  0  0  0  0  0  0  0
    0.1921   -5.7592   27.1123 C   0  0  0  0  0  0  0  0  0  0  0  0
    3.5517   -7.7407   25.9711 C   0  0  0  0  0  0  0  0  0  0  0  0
  1  4  4  0
  1 22  4  0
  2 20  4  0
  2 27  4  0
  3 12  4  0
  3 23  4  0
  4 25  4  0
  4 28  1  0
  5  8  4  0
  5 17  4  0
  6  7  4  0
  6 16  4  0
  7 18  4  0
  8 27  4  0
  9 13  4  0
  9 23  4  0
 10 11  1  0
 11 14  2  0
 11 27  1  0
 12 19  1  0
 12 24  4  0
 13 24  4  0
 15 18  1  0
 16 25  4  0
 16 26  4  0
 17 20  4  0
 17 28  1  0
 18 21  4  0
 21 26  4  0
 22 26  4  0
M  END
$$$$

 Created by Python create_sdf_string function

 28 30  0  0  0  0  0  0  0  0999 V2000
    5.7174   -8.4529   26.7190 C   0  0  0  0  0  0  0  0  0  0  0  0
    0.3974   -7.0711   27.5149 C   0  0  0  0  0  0  0  0  0  0  0  0
    2.5338   -7.6891   16.0102 C   0  0  0  0  0  0  0  0  0  0  0  0
    4.8690   -7.4380   26.4151 C   0  0  0  0  0  0  0  0  0  0  0  0
    2.3021   -5.6726   26.0378 C   0  0  0  0  0  0  0  0  0  0  0  0
    7.0880   -4.6163   27.0010 C   0  0  0  0  0  0  0  0  0  0  0  0
    8.3117   -4.3698   27.4436 C   0  0  0  0  0  0  0  0  0  0  0  0
    1.1339   -5.0515   26.3541 C   0  0  0  0  0  0  0  0  0  0  0  0
    4.8080   -8.0362   16.7101 C   0  0  0  0  0  0  0  0  0  0  0  0
   -1.2173   -3.9294   26.9717 O   0  0  0  0  0  0  0  0  0  0  0  0
   -1.0025   -5.0942   27.4586 C   0  0  0  0  0  0  0  0  0  0  0  0
    2.2474   -8.9123   16.6273 C   0  0  0  0  0  0  0  0  0  0  0  0
    4.4957   -9.2636   17.3041 C   0  0  0  0  0  0  0  0  0  0  0  0
   -1.8070   -5.6086   28.1920 O   0  0  0  0  0  0  0  0  0  0  0  0
   10.4296   -5.1799   28.3140 C   0  0  0  0  0  0  0  0  0  0  0  0
    6.6017   -5.9004   26.9187 C   0  0  0  0  0  0  0  0  0  0  0  0
    2.4761   -6.9940   26.4111 N   0  0  0  0  0  0  0  0  0  0  0  0
    9.1353   -5.4053   27.8239 C   0  0  0  0  0  0  0  0  0  0  0  0
    0.9922   -9.3232   16.5995 O   0  0  0  0  0  0  0  0  0  0  0  0
    1.5232   -7.6869   27.1182 C   0  0  0  0  0  0  0  0  0  0  0  0
    8.6878   -6.6715   27.7262 N   0  0  0  0  0  0  0  0  0  0  0  0
    6.9911   -8.2423   27.1808 C   0  0  0  0  0  0  0  0  0  0  0  0
    3.8436   -7.2758   16.0578 C   0  0  0  0  0  0  0  0  0  0  0  0
    3.1882   -9.7190   17.2566 C   0  0  0  0  0  0  0  0  0  0  0  0
    5.3488   -6.1737   26.5092 C   0  0  0  0  0  0  0  0  0  0  0  0
    7.4567   -6.9464   27.2858 C   0  0  0  0  0  0  0  0  0  0  0  0
    0.1921   -5.7592   27.1123 C   0  0  0  0  0  0  0  0  0  0  0  0
    3.5517   -7.7407   25.9711 C   0  0  0  0  0  0  0  0  0  0  0  0
  1  4  4  0
  1 22  4  0
  2 20  4  0
  2 27  4  0
  3 12  4  0
  3 23  4  0
  4 25  4  0
  4 28  1  0
  5  8  4  0
  5 17  4  0
  6  7  4  0
  6 16  4  0
  7 18  4  0
  8 27  4  0
  9 13  4  0
  9 23  4  0
 10 11  1  0
 11 14  2  0
 11 27  1  0
 12 19  1  0
 12 24  4  0
 13 24  4  0
 15 18  1  0
 16 25  4  0
 16 26  4  0
 17 20  4  0
 17 28  1  0
 18 21  4  0
 21 26  4  0
 22 26  4  0
M  END
$$$$

 Created by Python create_sdf_string function

 28 30  0  0  0  0  0  0  0  0999 V2000
    5.7174   -8.4529   26.7190 C   0  0  0  0  0  0  0  0  0  0  0  0
    0.3974   -7.0711   27.5149 C   0  0  0  0  0  0  0  0  0  0  0  0
    2.5338   -7.6891   16.0102 C   0  0  0  0  0  0  0  0  0  0  0  0
    4.8690   -7.4380   26.4151 C   0  0  0  0  0  0  0  0  0  0  0  0
    2.3021   -5.6726   26.0378 C   0  0  0  0  0  0  0  0  0  0  0  0
    7.0880   -4.6163   27.0010 C   0  0  0  0  0  0  0  0  0  0  0  0
    8.3117   -4.3698   27.4436 C   0  0  0  0  0  0  0  0  0  0  0  0
    1.1339   -5.0515   26.3541 C   0  0  0  0  0  0  0  0  0  0  0  0
    4.8080   -8.0362   16.7101 C   0  0  0  0  0  0  0  0  0  0  0  0
   -1.2173   -3.9294   26.9717 O   0  0  0  0  0  0  0  0  0  0  0  0
   -1.0025   -5.0942   27.4586 C   0  0  0  0  0  0  0  0  0  0  0  0
    2.2474   -8.9123   16.6273 C   0  0  0  0  0  0  0  0  0  0  0  0
    4.4957   -9.2636   17.3041 C   0  0  0  0  0  0  0  0  0  0  0  0
   -1.8070   -5.6086   28.1920 O   0  0  0  0  0  0  0  0  0  0  0  0
   10.4296   -5.1799   28.3140 C   0  0  0  0  0  0  0  0  0  0  0  0
    6.6017   -5.9004   26.9187 C   0  0  0  0  0  0  0  0  0  0  0  0
    2.4761   -6.9940   26.4111 N   0  0  0  0  0  0  0  0  0  0  0  0
    9.1353   -5.4053   27.8239 C   0  0  0  0  0  0  0  0  0  0  0  0
    0.9922   -9.3232   16.5995 O   0  0  0  0  0  0  0  0  0  0  0  0
    1.5232   -7.6869   27.1182 C   0  0  0  0  0  0  0  0  0  0  0  0
    8.6878   -6.6715   27.7262 N   0  0  0  0  0  0  0  0  0  0  0  0
    6.9911   -8.2423   27.1808 C   0  0  0  0  0  0  0  0  0  0  0  0
    3.8436   -7.2758   16.0578 C   0  0  0  0  0  0  0  0  0  0  0  0
    3.1882   -9.7190   17.2566 C   0  0  0  0  0  0  0  0  0  0  0  0
    5.3488   -6.1737   26.5092 C   0  0  0  0  0  0  0  0  0  0  0  0
    7.4567   -6.9464   27.2858 C   0  0  0  0  0  0  0  0  0  0  0  0
    0.1921   -5.7592   27.1123 C   0  0  0  0  0  0  0  0  0  0  0  0
    3.5517   -7.7407   25.9711 C   0  0  0  0  0  0  0  0  0  0  0  0
  1  4  4  0
  1 22  4  0
  2 20  4  0
  2 27  4  0
  3 12  4  0
  3 23  4  0
  4 25  4  0
  4 28  1  0
  5  8  4  0
  5 17  4  0
  6  7  4  0
  6 16  4  0
  7 18  4  0
  8 27  4  0
  9 13  4  0
  9 23  4  0
 10 11  1  0
 11 14  2  0
 11 27  1  0
 12 19  1  0
 12 24  4  0
 13 24  4  0
 15 18  1  0
 16 25  4  0
 16 26  4  0
 17 20  4  0
 17 28  1  0
 18 21  4  0
 21 26  4  0
 22 26  4  0
M  END
$$$$

 Created by Python create_sdf_string function

 28 30  0  0  0  0  0  0  0  0999 V2000
    5.7174   -8.4529   26.7190 C   0  0  0  0  0  0  0  0  0  0  0  0
    0.3974   -7.0711   27.5149 C   0  0  0  0  0  0  0  0  0  0  0  0
    2.5338   -7.6891   16.0102 C   0  0  0  0  0  0  0  0  0  0  0  0
    4.8690   -7.4380   26.4151 C   0  0  0  0  0  0  0  0  0  0  0  0
    2.3021   -5.6726   26.0378 C   0  0  0  0  0  0  0  0  0  0  0  0
    7.0880   -4.6163   27.0010 C   0  0  0  0  0  0  0  0  0  0  0  0
    8.3117   -4.3698   27.4436 C   0  0  0  0  0  0  0  0  0  0  0  0
    1.1339   -5.0515   26.3541 C   0  0  0  0  0  0  0  0  0  0  0  0
    4.8080   -8.0362   16.7101 C   0  0  0  0  0  0  0  0  0  0  0  0
   -1.2173   -3.9294   26.9717 O   0  0  0  0  0  0  0  0  0  0  0  0
   -1.0025   -5.0942   27.4586 C   0  0  0  0  0  0  0  0  0  0  0  0
    2.2474   -8.9123   16.6273 C   0  0  0  0  0  0  0  0  0  0  0  0
    4.4957   -9.2636   17.3041 C   0  0  0  0  0  0  0  0  0  0  0  0
   -1.8070   -5.6086   28.1920 O   0  0  0  0  0  0  0  0  0  0  0  0
   10.4296   -5.1799   28.3140 C   0  0  0  0  0  0  0  0  0  0  0  0
    6.6017   -5.9004   26.9187 C   0  0  0  0  0  0  0  0  0  0  0  0
    2.4761   -6.9940   26.4111 N   0  0  0  0  0  0  0  0  0  0  0  0
    9.1353   -5.4053   27.8239 C   0  0  0  0  0  0  0  0  0  0  0  0
    0.9922   -9.3232   16.5995 O   0  0  0  0  0  0  0  0  0  0  0  0
    1.5232   -7.6869   27.1182 C   0  0  0  0  0  0  0  0  0  0  0  0
    8.6878   -6.6715   27.7262 N   0  0  0  0  0  0  0  0  0  0  0  0
    6.9911   -8.2423   27.1808 C   0  0  0  0  0  0  0  0  0  0  0  0
    3.8436   -7.2758   16.0578 C   0  0  0  0  0  0  0  0  0  0  0  0
    3.1882   -9.7190   17.2566 C   0  0  0  0  0  0  0  0  0  0  0  0
    5.3488   -6.1737   26.5092 C   0  0  0  0  0  0  0  0  0  0  0  0
    7.4567   -6.9464   27.2858 C   0  0  0  0  0  0  0  0  0  0  0  0
    0.1921   -5.7592   27.1123 C   0  0  0  0  0  0  0  0  0  0  0  0
    3.5517   -7.7407   25.9711 C   0  0  0  0  0  0  0  0  0  0  0  0
  1  4  4  0
  1 22  4  0
  2 20  4  0
  2 27  4  0
  3 12  4  0
  3 23  4  0
  4 25  4  0
  4 28  1  0
  5  8  4  0
  5 17  4  0
  6  7  4  0
  6 16  4  0
  7 18  4  0
  8 27  4  0
  9 13  4  0
  9 23  4  0
 10 11  1  0
 11 14  2  0
 11 27  1  0
 12 19  1  0
 12 24  4  0
 13 24  4  0
 15 18  1  0
 16 25  4  0
 16 26  4  0
 17 20  4  0
 17 28  1  0
 18 21  4  0
 21 26  4  0
 22 26  4  0
M  END
$$$$

 Created by Python create_sdf_string function

 28 30  0  0  0  0  0  0  0  0999 V2000
    5.7174   -8.4529   26.7190 C   0  0  0  0  0  0  0  0  0  0  0  0
    0.3974   -7.0711   27.5149 C   0  0  0  0  0  0  0  0  0  0  0  0
    2.5338   -7.6891   16.0102 C   0  0  0  0  0  0  0  0  0  0  0  0
    4.8690   -7.4380   26.4151 C   0  0  0  0  0  0  0  0  0  0  0  0
    2.3021   -5.6726   26.0378 C   0  0  0  0  0  0  0  0  0  0  0  0
    7.0880   -4.6163   27.0010 C   0  0  0  0  0  0  0  0  0  0  0  0
    8.3117   -4.3698   27.4436 C   0  0  0  0  0  0  0  0  0  0  0  0
    1.1339   -5.0515   26.3541 C   0  0  0  0  0  0  0  0  0  0  0  0
    4.8080   -8.0362   16.7101 C   0  0  0  0  0  0  0  0  0  0  0  0
   -1.2173   -3.9294   26.9717 O   0  0  0  0  0  0  0  0  0  0  0  0
   -1.0025   -5.0942   27.4586 C   0  0  0  0  0  0  0  0  0  0  0  0
    2.2474   -8.9123   16.6273 C   0  0  0  0  0  0  0  0  0  0  0  0
    4.4957   -9.2636   17.3041 C   0  0  0  0  0  0  0  0  0  0  0  0
   -1.8070   -5.6086   28.1920 O   0  0  0  0  0  0  0  0  0  0  0  0
   10.4296   -5.1799   28.3140 C   0  0  0  0  0  0  0  0  0  0  0  0
    6.6017   -5.9004   26.9187 C   0  0  0  0  0  0  0  0  0  0  0  0
    2.4761   -6.9940   26.4111 N   0  0  0  0  0  0  0  0  0  0  0  0
    9.1353   -5.4053   27.8239 C   0  0  0  0  0  0  0  0  0  0  0  0
    0.9922   -9.3232   16.5995 O   0  0  0  0  0  0  0  0  0  0  0  0
    1.5232   -7.6869   27.1182 C   0  0  0  0  0  0  0  0  0  0  0  0
    8.6878   -6.6715   27.7262 N   0  0  0  0  0  0  0  0  0  0  0  0
    6.9911   -8.2423   27.1808 C   0  0  0  0  0  0  0  0  0  0  0  0
    3.8436   -7.2758   16.0578 C   0  0  0  0  0  0  0  0  0  0  0  0
    3.1882   -9.7190   17.2566 C   0  0  0  0  0  0  0  0  0  0  0  0
    5.3488   -6.1737   26.5092 C   0  0  0  0  0  0  0  0  0  0  0  0
    7.4567   -6.9464   27.2858 C   0  0  0  0  0  0  0  0  0  0  0  0
    0.1921   -5.7592   27.1123 C   0  0  0  0  0  0  0  0  0  0  0  0
    3.5517   -7.7407   25.9711 C   0  0  0  0  0  0  0  0  0  0  0  0
  1  4  4  0
  1 22  4  0
  2 20  4  0
  2 27  4  0
  3 12  4  0
  3 23  4  0
  4 25  4  0
  4 28  1  0
  5  8  4  0
  5 17  4  0
  6  7  4  0
  6 16  4  0
  7 18  4  0
  8 27  4  0
  9 13  4  0
  9 23  4  0
 10 11  1  0
 11 14  2  0
 11 27  1  0
 12 19  1  0
 12 24  4  0
 13 24  4  0
 15 18  1  0
 16 25  4  0
 16 26  4  0
 17 20  4  0
 17 28  1  0
 18 21  4  0
 21 26  4  0
 22 26  4  0
M  END
$$$$

 Created by Python create_sdf_string function

 28 30  0  0  0  0  0  0  0  0999 V2000
    5.7174   -8.4529   26.7190 C   0  0  0  0  0  0  0  0  0  0  0  0
    0.3974   -7.0711   27.5149 C   0  0  0  0  0  0  0  0  0  0  0  0
    2.5338   -7.6891   16.0102 C   0  0  0  0  0  0  0  0  0  0  0  0
    4.8690   -7.4380   26.4151 C   0  0  0  0  0  0  0  0  0  0  0  0
    2.3021   -5.6726   26.0378 C   0  0  0  0  0  0  0  0  0  0  0  0
    7.0880   -4.6163   27.0010 C   0  0  0  0  0  0  0  0  0  0  0  0
    8.3117   -4.3698   27.4436 C   0  0  0  0  0  0  0  0  0  0  0  0
    1.1339   -5.0515   26.3541 C   0  0  0  0  0  0  0  0  0  0  0  0
    4.8080   -8.0362   16.7101 C   0  0  0  0  0  0  0  0  0  0  0  0
   -1.2173   -3.9294   26.9717 O   0  0  0  0  0  0  0  0  0  0  0  0
   -1.0025   -5.0942   27.4586 C   0  0  0  0  0  0  0  0  0  0  0  0
    2.2474   -8.9123   16.6273 C   0  0  0  0  0  0  0  0  0  0  0  0
    4.4957   -9.2636   17.3041 C   0  0  0  0  0  0  0  0  0  0  0  0
   -1.8070   -5.6086   28.1920 O   0  0  0  0  0  0  0  0  0  0  0  0
   10.4296   -5.1799   28.3140 C   0  0  0  0  0  0  0  0  0  0  0  0
    6.6017   -5.9004   26.9187 C   0  0  0  0  0  0  0  0  0  0  0  0
    2.4761   -6.9940   26.4111 N   0  0  0  0  0  0  0  0  0  0  0  0
    9.1353   -5.4053   27.8239 C   0  0  0  0  0  0  0  0  0  0  0  0
    0.9922   -9.3232   16.5995 O   0  0  0  0  0  0  0  0  0  0  0  0
    1.5232   -7.6869   27.1182 C   0  0  0  0  0  0  0  0  0  0  0  0
    8.6878   -6.6715   27.7262 N   0  0  0  0  0  0  0  0  0  0  0  0
    6.9911   -8.2423   27.1808 C   0  0  0  0  0  0  0  0  0  0  0  0
    3.8436   -7.2758   16.0578 C   0  0  0  0  0  0  0  0  0  0  0  0
    3.1882   -9.7190   17.2566 C   0  0  0  0  0  0  0  0  0  0  0  0
    5.3488   -6.1737   26.5092 C   0  0  0  0  0  0  0  0  0  0  0  0
    7.4567   -6.9464   27.2858 C   0  0  0  0  0  0  0  0  0  0  0  0
    0.1921   -5.7592   27.1123 C   0  0  0  0  0  0  0  0  0  0  0  0
    3.5517   -7.7407   25.9711 C   0  0  0  0  0  0  0  0  0  0  0  0
  1  4  4  0
  1 22  4  0
  2 20  4  0
  2 27  4  0
  3 12  4  0
  3 23  4  0
  4 25  4  0
  4 28  1  0
  5  8  4  0
  5 17  4  0
  6  7  4  0
  6 16  4  0
  7 18  4  0
  8 27  4  0
  9 13  4  0
  9 23  4  0
 10 11  1  0
 11 14  2  0
 11 27  1  0
 12 19  1  0
 12 24  4  0
 13 24  4  0
 15 18  1  0
 16 25  4  0
 16 26  4  0
 17 20  4  0
 17 28  1  0
 18 21  4  0
 21 26  4  0
 22 26  4  0
M  END
$$$$

 Created by Python create_sdf_string function

 28 30  0  0  0  0  0  0  0  0999 V2000
    5.7174   -8.4529   26.7190 C   0  0  0  0  0  0  0  0  0  0  0  0
    0.3974   -7.0711   27.5149 C   0  0  0  0  0  0  0  0  0  0  0  0
    2.5338   -7.6891   16.0102 C   0  0  0  0  0  0  0  0  0  0  0  0
    4.8690   -7.4380   26.4151 C   0  0  0  0  0  0  0  0  0  0  0  0
    2.3021   -5.6726   26.0378 C   0  0  0  0  0  0  0  0  0  0  0  0
    7.0880   -4.6163   27.0010 C   0  0  0  0  0  0  0  0  0  0  0  0
    8.3117   -4.3698   27.4436 C   0  0  0  0  0  0  0  0  0  0  0  0
    1.1339   -5.0515   26.3541 C   0  0  0  0  0  0  0  0  0  0  0  0
    4.8080   -8.0362   16.7101 C   0  0  0  0  0  0  0  0  0  0  0  0
   -1.2173   -3.9294   26.9717 O   0  0  0  0  0  0  0  0  0  0  0  0
   -1.0025   -5.0942   27.4586 C   0  0  0  0  0  0  0  0  0  0  0  0
    2.2474   -8.9123   16.6273 C   0  0  0  0  0  0  0  0  0  0  0  0
    4.4957   -9.2636   17.3041 C   0  0  0  0  0  0  0  0  0  0  0  0
   -1.8070   -5.6086   28.1920 O   0  0  0  0  0  0  0  0  0  0  0  0
   10.4296   -5.1799   28.3140 C   0  0  0  0  0  0  0  0  0  0  0  0
    6.6017   -5.9004   26.9187 C   0  0  0  0  0  0  0  0  0  0  0  0
    2.4761   -6.9940   26.4111 N   0  0  0  0  0  0  0  0  0  0  0  0
    9.1353   -5.4053   27.8239 C   0  0  0  0  0  0  0  0  0  0  0  0
    0.9922   -9.3232   16.5995 O   0  0  0  0  0  0  0  0  0  0  0  0
    1.5232   -7.6869   27.1182 C   0  0  0  0  0  0  0  0  0  0  0  0
    8.6878   -6.6715   27.7262 N   0  0  0  0  0  0  0  0  0  0  0  0
    6.9911   -8.2423   27.1808 C   0  0  0  0  0  0  0  0  0  0  0  0
    3.8436   -7.2758   16.0578 C   0  0  0  0  0  0  0  0  0  0  0  0
    3.1882   -9.7190   17.2566 C   0  0  0  0  0  0  0  0  0  0  0  0
    5.3488   -6.1737   26.5092 C   0  0  0  0  0  0  0  0  0  0  0  0
    7.4567   -6.9464   27.2858 C   0  0  0  0  0  0  0  0  0  0  0  0
    0.1921   -5.7592   27.1123 C   0  0  0  0  0  0  0  0  0  0  0  0
    3.5517   -7.7407   25.9711 C   0  0  0  0  0  0  0  0  0  0  0  0
  1  4  4  0
  1 22  4  0
  2 20  4  0
  2 27  4  0
  3 12  4  0
  3 23  4  0
  4 25  4  0
  4 28  1  0
  5  8  4  0
  5 17  4  0
  6  7  4  0
  6 16  4  0
  7 18  4  0
  8 27  4  0
  9 13  4  0
  9 23  4  0
 10 11  1  0
 11 14  2  0
 11 27  1  0
 12 19  1  0
 12 24  4  0
 13 24  4  0
 15 18  1  0
 16 25  4  0
 16 26  4  0
 17 20  4  0
 17 28  1  0
 18 21  4  0
 21 26  4  0
 22 26  4  0
M  END
$$$$

 Created by Python create_sdf_string function

 28 30  0  0  0  0  0  0  0  0999 V2000
    5.7174   -8.4529   26.7190 C   0  0  0  0  0  0  0  0  0  0  0  0
    0.3974   -7.0711   27.5149 C   0  0  0  0  0  0  0  0  0  0  0  0
    2.5338   -7.6891   16.0102 C   0  0  0  0  0  0  0  0  0  0  0  0
    4.8690   -7.4380   26.4151 C   0  0  0  0  0  0  0  0  0  0  0  0
    2.3021   -5.6726   26.0378 C   0  0  0  0  0  0  0  0  0  0  0  0
    7.0880   -4.6163   27.0010 C   0  0  0  0  0  0  0  0  0  0  0  0
    8.3117   -4.3698   27.4436 C   0  0  0  0  0  0  0  0  0  0  0  0
    1.1339   -5.0515   26.3541 C   0  0  0  0  0  0  0  0  0  0  0  0
    4.8080   -8.0362   16.7101 C   0  0  0  0  0  0  0  0  0  0  0  0
   -1.2173   -3.9294   26.9717 O   0  0  0  0  0  0  0  0  0  0  0  0
   -1.0025   -5.0942   27.4586 C   0  0  0  0  0  0  0  0  0  0  0  0
    2.2474   -8.9123   16.6273 C   0  0  0  0  0  0  0  0  0  0  0  0
    4.4957   -9.2636   17.3041 C   0  0  0  0  0  0  0  0  0  0  0  0
   -1.8070   -5.6086   28.1920 O   0  0  0  0  0  0  0  0  0  0  0  0
   10.4296   -5.1799   28.3140 C   0  0  0  0  0  0  0  0  0  0  0  0
    6.6017   -5.9004   26.9187 C   0  0  0  0  0  0  0  0  0  0  0  0
    2.4761   -6.9940   26.4111 N   0  0  0  0  0  0  0  0  0  0  0  0
    9.1353   -5.4053   27.8239 C   0  0  0  0  0  0  0  0  0  0  0  0
    0.9922   -9.3232   16.5995 O   0  0  0  0  0  0  0  0  0  0  0  0
    1.5232   -7.6869   27.1182 C   0  0  0  0  0  0  0  0  0  0  0  0
    8.6878   -6.6715   27.7262 N   0  0  0  0  0  0  0  0  0  0  0  0
    6.9911   -8.2423   27.1808 C   0  0  0  0  0  0  0  0  0  0  0  0
    3.8436   -7.2758   16.0578 C   0  0  0  0  0  0  0  0  0  0  0  0
    3.1882   -9.7190   17.2566 C   0  0  0  0  0  0  0  0  0  0  0  0
    5.3488   -6.1737   26.5092 C   0  0  0  0  0  0  0  0  0  0  0  0
    7.4567   -6.9464   27.2858 C   0  0  0  0  0  0  0  0  0  0  0  0
    0.1921   -5.7592   27.1123 C   0  0  0  0  0  0  0  0  0  0  0  0
    3.5517   -7.7407   25.9711 C   0  0  0  0  0  0  0  0  0  0  0  0
  1  4  4  0
  1 22  4  0
  2 20  4  0
  2 27  4  0
  3 12  4  0
  3 23  4  0
  4 25  4  0
  4 28  1  0
  5  8  4  0
  5 17  4  0
  6  7  4  0
  6 16  4  0
  7 18  4  0
  8 27  4  0
  9 13  4  0
  9 23  4  0
 10 11  1  0
 11 14  2  0
 11 27  1  0
 12 19  1  0
 12 24  4  0
 13 24  4  0
 15 18  1  0
 16 25  4  0
 16 26  4  0
 17 20  4  0
 17 28  1  0
 18 21  4  0
 21 26  4  0
 22 26  4  0
M  END
$$$$

 Created by Python create_sdf_string function

 28 30  0  0  0  0  0  0  0  0999 V2000
    5.7174   -8.4529   26.7190 C   0  0  0  0  0  0  0  0  0  0  0  0
    0.3974   -7.0711   27.5149 C   0  0  0  0  0  0  0  0  0  0  0  0
    2.5338   -7.6891   16.0102 C   0  0  0  0  0  0  0  0  0  0  0  0
    4.8690   -7.4380   26.4151 C   0  0  0  0  0  0  0  0  0  0  0  0
    2.3021   -5.6726   26.0378 C   0  0  0  0  0  0  0  0  0  0  0  0
    7.0880   -4.6163   27.0010 C   0  0  0  0  0  0  0  0  0  0  0  0
    8.3117   -4.3698   27.4436 C   0  0  0  0  0  0  0  0  0  0  0  0
    1.1339   -5.0515   26.3541 C   0  0  0  0  0  0  0  0  0  0  0  0
    4.8080   -8.0362   16.7101 C   0  0  0  0  0  0  0  0  0  0  0  0
   -1.2173   -3.9294   26.9717 O   0  0  0  0  0  0  0  0  0  0  0  0
   -1.0025   -5.0942   27.4586 C   0  0  0  0  0  0  0  0  0  0  0  0
    2.2474   -8.9123   16.6273 C   0  0  0  0  0  0  0  0  0  0  0  0
    4.4957   -9.2636   17.3041 C   0  0  0  0  0  0  0  0  0  0  0  0
   -1.8070   -5.6086   28.1920 O   0  0  0  0  0  0  0  0  0  0  0  0
   10.4296   -5.1799   28.3140 C   0  0  0  0  0  0  0  0  0  0  0  0
    6.6017   -5.9004   26.9187 C   0  0  0  0  0  0  0  0  0  0  0  0
    2.4761   -6.9940   26.4111 N   0  0  0  0  0  0  0  0  0  0  0  0
    9.1353   -5.4053   27.8239 C   0  0  0  0  0  0  0  0  0  0  0  0
    0.9922   -9.3232   16.5995 O   0  0  0  0  0  0  0  0  0  0  0  0
    1.5232   -7.6869   27.1182 C   0  0  0  0  0  0  0  0  0  0  0  0
    8.6878   -6.6715   27.7262 N   0  0  0  0  0  0  0  0  0  0  0  0
    6.9911   -8.2423   27.1808 C   0  0  0  0  0  0  0  0  0  0  0  0
    3.8436   -7.2758   16.0578 C   0  0  0  0  0  0  0  0  0  0  0  0
    3.1882   -9.7190   17.2566 C   0  0  0  0  0  0  0  0  0  0  0  0
    5.3488   -6.1737   26.5092 C   0  0  0  0  0  0  0  0  0  0  0  0
    7.4567   -6.9464   27.2858 C   0  0  0  0  0  0  0  0  0  0  0  0
    0.1921   -5.7592   27.1123 C   0  0  0  0  0  0  0  0  0  0  0  0
    3.5517   -7.7407   25.9711 C   0  0  0  0  0  0  0  0  0  0  0  0
  1  4  4  0
  1 22  4  0
  2 20  4  0
  2 27  4  0
  3 12  4  0
  3 23  4  0
  4 25  4  0
  4 28  1  0
  5  8  4  0
  5 17  4  0
  6  7  4  0
  6 16  4  0
  7 18  4  0
  8 27  4  0
  9 13  4  0
  9 23  4  0
 10 11  1  0
 11 14  2  0
 11 27  1  0
 12 19  1  0
 12 24  4  0
 13 24  4  0
 15 18  1  0
 16 25  4  0
 16 26  4  0
 17 20  4  0
 17 28  1  0
 18 21  4  0
 21 26  4  0
 22 26  4  0
M  END
$$$$

 Created by Python create_sdf_string function

 28 30  0  0  0  0  0  0  0  0999 V2000
    5.7174   -8.4529   26.7190 C   0  0  0  0  0  0  0  0  0  0  0  0
    0.3974   -7.0711   27.5149 C   0  0  0  0  0  0  0  0  0  0  0  0
    2.5338   -7.6891   16.0102 C   0  0  0  0  0  0  0  0  0  0  0  0
    4.8690   -7.4380   26.4151 C   0  0  0  0  0  0  0  0  0  0  0  0
    2.3021   -5.6726   26.0378 C   0  0  0  0  0  0  0  0  0  0  0  0
    7.0880   -4.6163   27.0010 C   0  0  0  0  0  0  0  0  0  0  0  0
    8.3117   -4.3698   27.4436 C   0  0  0  0  0  0  0  0  0  0  0  0
    1.1339   -5.0515   26.3541 C   0  0  0  0  0  0  0  0  0  0  0  0
    4.8080   -8.0362   16.7101 C   0  0  0  0  0  0  0  0  0  0  0  0
   -1.2173   -3.9294   26.9717 O   0  0  0  0  0  0  0  0  0  0  0  0
   -1.0025   -5.0942   27.4586 C   0  0  0  0  0  0  0  0  0  0  0  0
    2.2474   -8.9123   16.6273 C   0  0  0  0  0  0  0  0  0  0  0  0
    4.4957   -9.2636   17.3041 C   0  0  0  0  0  0  0  0  0  0  0  0
   -1.8070   -5.6086   28.1920 O   0  0  0  0  0  0  0  0  0  0  0  0
   10.4296   -5.1799   28.3140 C   0  0  0  0  0  0  0  0  0  0  0  0
    6.6017   -5.9004   26.9187 C   0  0  0  0  0  0  0  0  0  0  0  0
    2.4761   -6.9940   26.4111 N   0  0  0  0  0  0  0  0  0  0  0  0
    9.1353   -5.4053   27.8239 C   0  0  0  0  0  0  0  0  0  0  0  0
    0.9922   -9.3232   16.5995 O   0  0  0  0  0  0  0  0  0  0  0  0
    1.5232   -7.6869   27.1182 C   0  0  0  0  0  0  0  0  0  0  0  0
    8.6878   -6.6715   27.7262 N   0  0  0  0  0  0  0  0  0  0  0  0
    6.9911   -8.2423   27.1808 C   0  0  0  0  0  0  0  0  0  0  0  0
    3.8436   -7.2758   16.0578 C   0  0  0  0  0  0  0  0  0  0  0  0
    3.1882   -9.7190   17.2566 C   0  0  0  0  0  0  0  0  0  0  0  0
    5.3488   -6.1737   26.5092 C   0  0  0  0  0  0  0  0  0  0  0  0
    7.4567   -6.9464   27.2858 C   0  0  0  0  0  0  0  0  0  0  0  0
    0.1921   -5.7592   27.1123 C   0  0  0  0  0  0  0  0  0  0  0  0
    3.5517   -7.7407   25.9711 C   0  0  0  0  0  0  0  0  0  0  0  0
  1  4  4  0
  1 22  4  0
  2 20  4  0
  2 27  4  0
  3 12  4  0
  3 23  4  0
  4 25  4  0
  4 28  1  0
  5  8  4  0
  5 17  4  0
  6  7  4  0
  6 16  4  0
  7 18  4  0
  8 27  4  0
  9 13  4  0
  9 23  4  0
 10 11  1  0
 11 14  2  0
 11 27  1  0
 12 19  1  0
 12 24  4  0
 13 24  4  0
 15 18  1  0
 16 25  4  0
 16 26  4  0
 17 20  4  0
 17 28  1  0
 18 21  4  0
 21 26  4  0
 22 26  4  0
M  END
$$$$

 Created by Python create_sdf_string function

 28 30  0  0  0  0  0  0  0  0999 V2000
    5.7174   -8.4529   26.7190 C   0  0  0  0  0  0  0  0  0  0  0  0
    0.3974   -7.0711   27.5149 C   0  0  0  0  0  0  0  0  0  0  0  0
    2.5338   -7.6891   16.0102 C   0  0  0  0  0  0  0  0  0  0  0  0
    4.8690   -7.4380   26.4151 C   0  0  0  0  0  0  0  0  0  0  0  0
    2.3021   -5.6726   26.0378 C   0  0  0  0  0  0  0  0  0  0  0  0
    7.0880   -4.6163   27.0010 C   0  0  0  0  0  0  0  0  0  0  0  0
    8.3117   -4.3698   27.4436 C   0  0  0  0  0  0  0  0  0  0  0  0
    1.1339   -5.0515   26.3541 C   0  0  0  0  0  0  0  0  0  0  0  0
    4.8080   -8.0362   16.7101 C   0  0  0  0  0  0  0  0  0  0  0  0
   -1.2173   -3.9294   26.9717 O   0  0  0  0  0  0  0  0  0  0  0  0
   -1.0025   -5.0942   27.4586 C   0  0  0  0  0  0  0  0  0  0  0  0
    2.2474   -8.9123   16.6273 C   0  0  0  0  0  0  0  0  0  0  0  0
    4.4957   -9.2636   17.3041 C   0  0  0  0  0  0  0  0  0  0  0  0
   -1.8070   -5.6086   28.1920 O   0  0  0  0  0  0  0  0  0  0  0  0
   10.4296   -5.1799   28.3140 C   0  0  0  0  0  0  0  0  0  0  0  0
    6.6017   -5.9004   26.9187 C   0  0  0  0  0  0  0  0  0  0  0  0
    2.4761   -6.9940   26.4111 N   0  0  0  0  0  0  0  0  0  0  0  0
    9.1353   -5.4053   27.8239 C   0  0  0  0  0  0  0  0  0  0  0  0
    0.9922   -9.3232   16.5995 O   0  0  0  0  0  0  0  0  0  0  0  0
    1.5232   -7.6869   27.1182 C   0  0  0  0  0  0  0  0  0  0  0  0
    8.6878   -6.6715   27.7262 N   0  0  0  0  0  0  0  0  0  0  0  0
    6.9911   -8.2423   27.1808 C   0  0  0  0  0  0  0  0  0  0  0  0
    3.8436   -7.2758   16.0578 C   0  0  0  0  0  0  0  0  0  0  0  0
    3.1882   -9.7190   17.2566 C   0  0  0  0  0  0  0  0  0  0  0  0
    5.3488   -6.1737   26.5092 C   0  0  0  0  0  0  0  0  0  0  0  0
    7.4567   -6.9464   27.2858 C   0  0  0  0  0  0  0  0  0  0  0  0
    0.1921   -5.7592   27.1123 C   0  0  0  0  0  0  0  0  0  0  0  0
    3.5517   -7.7407   25.9711 C   0  0  0  0  0  0  0  0  0  0  0  0
  1  4  4  0
  1 22  4  0
  2 20  4  0
  2 27  4  0
  3 12  4  0
  3 23  4  0
  4 25  4  0
  4 28  1  0
  5  8  4  0
  5 17  4  0
  6  7  4  0
  6 16  4  0
  7 18  4  0
  8 27  4  0
  9 13  4  0
  9 23  4  0
 10 11  1  0
 11 14  2  0
 11 27  1  0
 12 19  1  0
 12 24  4  0
 13 24  4  0
 15 18  1  0
 16 25  4  0
 16 26  4  0
 17 20  4  0
 17 28  1  0
 18 21  4  0
 21 26  4  0
 22 26  4  0
M  END
$$$$

 Created by Python create_sdf_string function

 28 30  0  0  0  0  0  0  0  0999 V2000
    5.7174   -8.4529   26.7190 C   0  0  0  0  0  0  0  0  0  0  0  0
    0.3974   -7.0711   27.5149 C   0  0  0  0  0  0  0  0  0  0  0  0
    2.5338   -7.6891   16.0102 C   0  0  0  0  0  0  0  0  0  0  0  0
    4.8690   -7.4380   26.4151 C   0  0  0  0  0  0  0  0  0  0  0  0
    2.3021   -5.6726   26.0378 C   0  0  0  0  0  0  0  0  0  0  0  0
    7.0880   -4.6163   27.0010 C   0  0  0  0  0  0  0  0  0  0  0  0
    8.3117   -4.3698   27.4436 C   0  0  0  0  0  0  0  0  0  0  0  0
    1.1339   -5.0515   26.3541 C   0  0  0  0  0  0  0  0  0  0  0  0
    4.8080   -8.0362   16.7101 C   0  0  0  0  0  0  0  0  0  0  0  0
   -1.2173   -3.9294   26.9717 O   0  0  0  0  0  0  0  0  0  0  0  0
   -1.0025   -5.0942   27.4586 C   0  0  0  0  0  0  0  0  0  0  0  0
    2.2474   -8.9123   16.6273 C   0  0  0  0  0  0  0  0  0  0  0  0
    4.4957   -9.2636   17.3041 C   0  0  0  0  0  0  0  0  0  0  0  0
   -1.8070   -5.6086   28.1920 O   0  0  0  0  0  0  0  0  0  0  0  0
   10.4296   -5.1799   28.3140 C   0  0  0  0  0  0  0  0  0  0  0  0
    6.6017   -5.9004   26.9187 C   0  0  0  0  0  0  0  0  0  0  0  0
    2.4761   -6.9940   26.4111 N   0  0  0  0  0  0  0  0  0  0  0  0
    9.1353   -5.4053   27.8239 C   0  0  0  0  0  0  0  0  0  0  0  0
    0.9922   -9.3232   16.5995 O   0  0  0  0  0  0  0  0  0  0  0  0
    1.5232   -7.6869   27.1182 C   0  0  0  0  0  0  0  0  0  0  0  0
    8.6878   -6.6715   27.7262 N   0  0  0  0  0  0  0  0  0  0  0  0
    6.9911   -8.2423   27.1808 C   0  0  0  0  0  0  0  0  0  0  0  0
    3.8436   -7.2758   16.0578 C   0  0  0  0  0  0  0  0  0  0  0  0
    3.1882   -9.7190   17.2566 C   0  0  0  0  0  0  0  0  0  0  0  0
    5.3488   -6.1737   26.5092 C   0  0  0  0  0  0  0  0  0  0  0  0
    7.4567   -6.9464   27.2858 C   0  0  0  0  0  0  0  0  0  0  0  0
    0.1921   -5.7592   27.1123 C   0  0  0  0  0  0  0  0  0  0  0  0
    3.5517   -7.7407   25.9711 C   0  0  0  0  0  0  0  0  0  0  0  0
  1  4  4  0
  1 22  4  0
  2 20  4  0
  2 27  4  0
  3 12  4  0
  3 23  4  0
  4 25  4  0
  4 28  1  0
  5  8  4  0
  5 17  4  0
  6  7  4  0
  6 16  4  0
  7 18  4  0
  8 27  4  0
  9 13  4  0
  9 23  4  0
 10 11  1  0
 11 14  2  0
 11 27  1  0
 12 19  1  0
 12 24  4  0
 13 24  4  0
 15 18  1  0
 16 25  4  0
 16 26  4  0
 17 20  4  0
 17 28  1  0
 18 21  4  0
 21 26  4  0
 22 26  4  0
M  END
$$$$

 Created by Python create_sdf_string function

 28 30  0  0  0  0  0  0  0  0999 V2000
    5.7174   -8.4529   26.7190 C   0  0  0  0  0  0  0  0  0  0  0  0
    0.3974   -7.0711   27.5149 C   0  0  0  0  0  0  0  0  0  0  0  0
    2.5338   -7.6891   16.0102 C   0  0  0  0  0  0  0  0  0  0  0  0
    4.8690   -7.4380   26.4151 C   0  0  0  0  0  0  0  0  0  0  0  0
    2.3021   -5.6726   26.0378 C   0  0  0  0  0  0  0  0  0  0  0  0
    7.0880   -4.6163   27.0010 C   0  0  0  0  0  0  0  0  0  0  0  0
    8.3117   -4.3698   27.4436 C   0  0  0  0  0  0  0  0  0  0  0  0
    1.1339   -5.0515   26.3541 C   0  0  0  0  0  0  0  0  0  0  0  0
    4.8080   -8.0362   16.7101 C   0  0  0  0  0  0  0  0  0  0  0  0
   -1.2173   -3.9294   26.9717 O   0  0  0  0  0  0  0  0  0  0  0  0
   -1.0025   -5.0942   27.4586 C   0  0  0  0  0  0  0  0  0  0  0  0
    2.2474   -8.9123   16.6273 C   0  0  0  0  0  0  0  0  0  0  0  0
    4.4957   -9.2636   17.3041 C   0  0  0  0  0  0  0  0  0  0  0  0
   -1.8070   -5.6086   28.1920 O   0  0  0  0  0  0  0  0  0  0  0  0
   10.4296   -5.1799   28.3140 C   0  0  0  0  0  0  0  0  0  0  0  0
    6.6017   -5.9004   26.9187 C   0  0  0  0  0  0  0  0  0  0  0  0
    2.4761   -6.9940   26.4111 N   0  0  0  0  0  0  0  0  0  0  0  0
    9.1353   -5.4053   27.8239 C   0  0  0  0  0  0  0  0  0  0  0  0
    0.9922   -9.3232   16.5995 O   0  0  0  0  0  0  0  0  0  0  0  0
    1.5232   -7.6869   27.1182 C   0  0  0  0  0  0  0  0  0  0  0  0
    8.6878   -6.6715   27.7262 N   0  0  0  0  0  0  0  0  0  0  0  0
    6.9911   -8.2423   27.1808 C   0  0  0  0  0  0  0  0  0  0  0  0
    3.8436   -7.2758   16.0578 C   0  0  0  0  0  0  0  0  0  0  0  0
    3.1882   -9.7190   17.2566 C   0  0  0  0  0  0  0  0  0  0  0  0
    5.3488   -6.1737   26.5092 C   0  0  0  0  0  0  0  0  0  0  0  0
    7.4567   -6.9464   27.2858 C   0  0  0  0  0  0  0  0  0  0  0  0
    0.1921   -5.7592   27.1123 C   0  0  0  0  0  0  0  0  0  0  0  0
    3.5517   -7.7407   25.9711 C   0  0  0  0  0  0  0  0  0  0  0  0
  1  4  4  0
  1 22  4  0
  2 20  4  0
  2 27  4  0
  3 12  4  0
  3 23  4  0
  4 25  4  0
  4 28  1  0
  5  8  4  0
  5 17  4  0
  6  7  4  0
  6 16  4  0
  7 18  4  0
  8 27  4  0
  9 13  4  0
  9 23  4  0
 10 11  1  0
 11 14  2  0
 11 27  1  0
 12 19  1  0
 12 24  4  0
 13 24  4  0
 15 18  1  0
 16 25  4  0
 16 26  4  0
 17 20  4  0
 17 28  1  0
 18 21  4  0
 21 26  4  0
 22 26  4  0
M  END
$$$$

 Created by Python create_sdf_string function

 28 30  0  0  0  0  0  0  0  0999 V2000
    5.7174   -8.4529   26.7190 C   0  0  0  0  0  0  0  0  0  0  0  0
    0.3974   -7.0711   27.5149 C   0  0  0  0  0  0  0  0  0  0  0  0
    2.5338   -7.6891   16.0102 C   0  0  0  0  0  0  0  0  0  0  0  0
    4.8690   -7.4380   26.4151 C   0  0  0  0  0  0  0  0  0  0  0  0
    2.3021   -5.6726   26.0378 C   0  0  0  0  0  0  0  0  0  0  0  0
    7.0880   -4.6163   27.0010 C   0  0  0  0  0  0  0  0  0  0  0  0
    8.3117   -4.3698   27.4436 C   0  0  0  0  0  0  0  0  0  0  0  0
    1.1339   -5.0515   26.3541 C   0  0  0  0  0  0  0  0  0  0  0  0
    4.8080   -8.0362   16.7101 C   0  0  0  0  0  0  0  0  0  0  0  0
   -1.2173   -3.9294   26.9717 O   0  0  0  0  0  0  0  0  0  0  0  0
   -1.0025   -5.0942   27.4586 C   0  0  0  0  0  0  0  0  0  0  0  0
    2.2474   -8.9123   16.6273 C   0  0  0  0  0  0  0  0  0  0  0  0
    4.4957   -9.2636   17.3041 C   0  0  0  0  0  0  0  0  0  0  0  0
   -1.8070   -5.6086   28.1920 O   0  0  0  0  0  0  0  0  0  0  0  0
   10.4296   -5.1799   28.3140 C   0  0  0  0  0  0  0  0  0  0  0  0
    6.6017   -5.9004   26.9187 C   0  0  0  0  0  0  0  0  0  0  0  0
    2.4761   -6.9940   26.4111 N   0  0  0  0  0  0  0  0  0  0  0  0
    9.1353   -5.4053   27.8239 C   0  0  0  0  0  0  0  0  0  0  0  0
    0.9922   -9.3232   16.5995 O   0  0  0  0  0  0  0  0  0  0  0  0
    1.5232   -7.6869   27.1182 C   0  0  0  0  0  0  0  0  0  0  0  0
    8.6878   -6.6715   27.7262 N   0  0  0  0  0  0  0  0  0  0  0  0
    6.9911   -8.2423   27.1808 C   0  0  0  0  0  0  0  0  0  0  0  0
    3.8436   -7.2758   16.0578 C   0  0  0  0  0  0  0  0  0  0  0  0
    3.1882   -9.7190   17.2566 C   0  0  0  0  0  0  0  0  0  0  0  0
    5.3488   -6.1737   26.5092 C   0  0  0  0  0  0  0  0  0  0  0  0
    7.4567   -6.9464   27.2858 C   0  0  0  0  0  0  0  0  0  0  0  0
    0.1921   -5.7592   27.1123 C   0  0  0  0  0  0  0  0  0  0  0  0
    3.5517   -7.7407   25.9711 C   0  0  0  0  0  0  0  0  0  0  0  0
  1  4  4  0
  1 22  4  0
  2 20  4  0
  2 27  4  0
  3 12  4  0
  3 23  4  0
  4 25  4  0
  4 28  1  0
  5  8  4  0
  5 17  4  0
  6  7  4  0
  6 16  4  0
  7 18  4  0
  8 27  4  0
  9 13  4  0
  9 23  4  0
 10 11  1  0
 11 14  2  0
 11 27  1  0
 12 19  1  0
 12 24  4  0
 13 24  4  0
 15 18  1  0
 16 25  4  0
 16 26  4  0
 17 20  4  0
 17 28  1  0
 18 21  4  0
 21 26  4  0
 22 26  4  0
M  END
$$$$

 Created by Python create_sdf_string function

 28 30  0  0  0  0  0  0  0  0999 V2000
    5.7174   -8.4529   26.7190 C   0  0  0  0  0  0  0  0  0  0  0  0
    0.3974   -7.0711   27.5149 C   0  0  0  0  0  0  0  0  0  0  0  0
    2.5338   -7.6891   16.0102 C   0  0  0  0  0  0  0  0  0  0  0  0
    4.8690   -7.4380   26.4151 C   0  0  0  0  0  0  0  0  0  0  0  0
    2.3021   -5.6726   26.0378 C   0  0  0  0  0  0  0  0  0  0  0  0
    7.0880   -4.6163   27.0010 C   0  0  0  0  0  0  0  0  0  0  0  0
    8.3117   -4.3698   27.4436 C   0  0  0  0  0  0  0  0  0  0  0  0
    1.1339   -5.0515   26.3541 C   0  0  0  0  0  0  0  0  0  0  0  0
    4.8080   -8.0362   16.7101 C   0  0  0  0  0  0  0  0  0  0  0  0
   -1.2173   -3.9294   26.9717 O   0  0  0  0  0  0  0  0  0  0  0  0
   -1.0025   -5.0942   27.4586 C   0  0  0  0  0  0  0  0  0  0  0  0
    2.2474   -8.9123   16.6273 C   0  0  0  0  0  0  0  0  0  0  0  0
    4.4957   -9.2636   17.3041 C   0  0  0  0  0  0  0  0  0  0  0  0
   -1.8070   -5.6086   28.1920 O   0  0  0  0  0  0  0  0  0  0  0  0
   10.4296   -5.1799   28.3140 C   0  0  0  0  0  0  0  0  0  0  0  0
    6.6017   -5.9004   26.9187 C   0  0  0  0  0  0  0  0  0  0  0  0
    2.4761   -6.9940   26.4111 N   0  0  0  0  0  0  0  0  0  0  0  0
    9.1353   -5.4053   27.8239 C   0  0  0  0  0  0  0  0  0  0  0  0
    0.9922   -9.3232   16.5995 O   0  0  0  0  0  0  0  0  0  0  0  0
    1.5232   -7.6869   27.1182 C   0  0  0  0  0  0  0  0  0  0  0  0
    8.6878   -6.6715   27.7262 N   0  0  0  0  0  0  0  0  0  0  0  0
    6.9911   -8.2423   27.1808 C   0  0  0  0  0  0  0  0  0  0  0  0
    3.8436   -7.2758   16.0578 C   0  0  0  0  0  0  0  0  0  0  0  0
    3.1882   -9.7190   17.2566 C   0  0  0  0  0  0  0  0  0  0  0  0
    5.3488   -6.1737   26.5092 C   0  0  0  0  0  0  0  0  0  0  0  0
    7.4567   -6.9464   27.2858 C   0  0  0  0  0  0  0  0  0  0  0  0
    0.1921   -5.7592   27.1123 C   0  0  0  0  0  0  0  0  0  0  0  0
    3.5517   -7.7407   25.9711 C   0  0  0  0  0  0  0  0  0  0  0  0
  1  4  4  0
  1 22  4  0
  2 20  4  0
  2 27  4  0
  3 12  4  0
  3 23  4  0
  4 25  4  0
  4 28  1  0
  5  8  4  0
  5 17  4  0
  6  7  4  0
  6 16  4  0
  7 18  4  0
  8 27  4  0
  9 13  4  0
  9 23  4  0
 10 11  1  0
 11 14  2  0
 11 27  1  0
 12 19  1  0
 12 24  4  0
 13 24  4  0
 15 18  1  0
 16 25  4  0
 16 26  4  0
 17 20  4  0
 17 28  1  0
 18 21  4  0
 21 26  4  0
 22 26  4  0
M  END
$$$$

 Created by Python create_sdf_string function

 28 30  0  0  0  0  0  0  0  0999 V2000
    5.7174   -8.4529   26.7190 C   0  0  0  0  0  0  0  0  0  0  0  0
    0.3974   -7.0711   27.5149 C   0  0  0  0  0  0  0  0  0  0  0  0
    2.5338   -7.6891   16.0102 C   0  0  0  0  0  0  0  0  0  0  0  0
    4.8690   -7.4380   26.4151 C   0  0  0  0  0  0  0  0  0  0  0  0
    2.3021   -5.6726   26.0378 C   0  0  0  0  0  0  0  0  0  0  0  0
    7.0880   -4.6163   27.0010 C   0  0  0  0  0  0  0  0  0  0  0  0
    8.3117   -4.3698   27.4436 C   0  0  0  0  0  0  0  0  0  0  0  0
    1.1339   -5.0515   26.3541 C   0  0  0  0  0  0  0  0  0  0  0  0
    4.8080   -8.0362   16.7101 C   0  0  0  0  0  0  0  0  0  0  0  0
   -1.2173   -3.9294   26.9717 O   0  0  0  0  0  0  0  0  0  0  0  0
   -1.0025   -5.0942   27.4586 C   0  0  0  0  0  0  0  0  0  0  0  0
    2.2474   -8.9123   16.6273 C   0  0  0  0  0  0  0  0  0  0  0  0
    4.4957   -9.2636   17.3041 C   0  0  0  0  0  0  0  0  0  0  0  0
   -1.8070   -5.6086   28.1920 O   0  0  0  0  0  0  0  0  0  0  0  0
   10.4296   -5.1799   28.3140 C   0  0  0  0  0  0  0  0  0  0  0  0
    6.6017   -5.9004   26.9187 C   0  0  0  0  0  0  0  0  0  0  0  0
    2.4761   -6.9940   26.4111 N   0  0  0  0  0  0  0  0  0  0  0  0
    9.1353   -5.4053   27.8239 C   0  0  0  0  0  0  0  0  0  0  0  0
    0.9922   -9.3232   16.5995 O   0  0  0  0  0  0  0  0  0  0  0  0
    1.5232   -7.6869   27.1182 C   0  0  0  0  0  0  0  0  0  0  0  0
    8.6878   -6.6715   27.7262 N   0  0  0  0  0  0  0  0  0  0  0  0
    6.9911   -8.2423   27.1808 C   0  0  0  0  0  0  0  0  0  0  0  0
    3.8436   -7.2758   16.0578 C   0  0  0  0  0  0  0  0  0  0  0  0
    3.1882   -9.7190   17.2566 C   0  0  0  0  0  0  0  0  0  0  0  0
    5.3488   -6.1737   26.5092 C   0  0  0  0  0  0  0  0  0  0  0  0
    7.4567   -6.9464   27.2858 C   0  0  0  0  0  0  0  0  0  0  0  0
    0.1921   -5.7592   27.1123 C   0  0  0  0  0  0  0  0  0  0  0  0
    3.5517   -7.7407   25.9711 C   0  0  0  0  0  0  0  0  0  0  0  0
  1  4  4  0
  1 22  4  0
  2 20  4  0
  2 27  4  0
  3 12  4  0
  3 23  4  0
  4 25  4  0
  4 28  1  0
  5  8  4  0
  5 17  4  0
  6  7  4  0
  6 16  4  0
  7 18  4  0
  8 27  4  0
  9 13  4  0
  9 23  4  0
 10 11  1  0
 11 14  2  0
 11 27  1  0
 12 19  1  0
 12 24  4  0
 13 24  4  0
 15 18  1  0
 16 25  4  0
 16 26  4  0
 17 20  4  0
 17 28  1  0
 18 21  4  0
 21 26  4  0
 22 26  4  0
M  END
$$$$

 Created by Python create_sdf_string function

 28 30  0  0  0  0  0  0  0  0999 V2000
    5.7174   -8.4529   26.7190 C   0  0  0  0  0  0  0  0  0  0  0  0
    0.3974   -7.0711   27.5149 C   0  0  0  0  0  0  0  0  0  0  0  0
    2.5338   -7.6891   16.0102 C   0  0  0  0  0  0  0  0  0  0  0  0
    4.8690   -7.4380   26.4151 C   0  0  0  0  0  0  0  0  0  0  0  0
    2.3021   -5.6726   26.0378 C   0  0  0  0  0  0  0  0  0  0  0  0
    7.0880   -4.6163   27.0010 C   0  0  0  0  0  0  0  0  0  0  0  0
    8.3117   -4.3698   27.4436 C   0  0  0  0  0  0  0  0  0  0  0  0
    1.1339   -5.0515   26.3541 C   0  0  0  0  0  0  0  0  0  0  0  0
    4.8080   -8.0362   16.7101 C   0  0  0  0  0  0  0  0  0  0  0  0
   -1.2173   -3.9294   26.9717 O   0  0  0  0  0  0  0  0  0  0  0  0
   -1.0025   -5.0942   27.4586 C   0  0  0  0  0  0  0  0  0  0  0  0
    2.2474   -8.9123   16.6273 C   0  0  0  0  0  0  0  0  0  0  0  0
    4.4957   -9.2636   17.3041 C   0  0  0  0  0  0  0  0  0  0  0  0
   -1.8070   -5.6086   28.1920 O   0  0  0  0  0  0  0  0  0  0  0  0
   10.4296   -5.1799   28.3140 C   0  0  0  0  0  0  0  0  0  0  0  0
    6.6017   -5.9004   26.9187 C   0  0  0  0  0  0  0  0  0  0  0  0
    2.4761   -6.9940   26.4111 N   0  0  0  0  0  0  0  0  0  0  0  0
    9.1353   -5.4053   27.8239 C   0  0  0  0  0  0  0  0  0  0  0  0
    0.9922   -9.3232   16.5995 O   0  0  0  0  0  0  0  0  0  0  0  0
    1.5232   -7.6869   27.1182 C   0  0  0  0  0  0  0  0  0  0  0  0
    8.6878   -6.6715   27.7262 N   0  0  0  0  0  0  0  0  0  0  0  0
    6.9911   -8.2423   27.1808 C   0  0  0  0  0  0  0  0  0  0  0  0
    3.8436   -7.2758   16.0578 C   0  0  0  0  0  0  0  0  0  0  0  0
    3.1882   -9.7190   17.2566 C   0  0  0  0  0  0  0  0  0  0  0  0
    5.3488   -6.1737   26.5092 C   0  0  0  0  0  0  0  0  0  0  0  0
    7.4567   -6.9464   27.2858 C   0  0  0  0  0  0  0  0  0  0  0  0
    0.1921   -5.7592   27.1123 C   0  0  0  0  0  0  0  0  0  0  0  0
    3.5517   -7.7407   25.9711 C   0  0  0  0  0  0  0  0  0  0  0  0
  1  4  4  0
  1 22  4  0
  2 20  4  0
  2 27  4  0
  3 12  4  0
  3 23  4  0
  4 25  4  0
  4 28  1  0
  5  8  4  0
  5 17  4  0
  6  7  4  0
  6 16  4  0
  7 18  4  0
  8 27  4  0
  9 13  4  0
  9 23  4  0
 10 11  1  0
 11 14  2  0
 11 27  1  0
 12 19  1  0
 12 24  4  0
 13 24  4  0
 15 18  1  0
 16 25  4  0
 16 26  4  0
 17 20  4  0
 17 28  1  0
 18 21  4  0
 21 26  4  0
 22 26  4  0
M  END
$$$$

 Created by Python create_sdf_string function

 28 30  0  0  0  0  0  0  0  0999 V2000
    5.7174   -8.4529   26.7190 C   0  0  0  0  0  0  0  0  0  0  0  0
    0.3974   -7.0711   27.5149 C   0  0  0  0  0  0  0  0  0  0  0  0
    2.5338   -7.6891   16.0102 C   0  0  0  0  0  0  0  0  0  0  0  0
    4.8690   -7.4380   26.4151 C   0  0  0  0  0  0  0  0  0  0  0  0
    2.3021   -5.6726   26.0378 C   0  0  0  0  0  0  0  0  0  0  0  0
    7.0880   -4.6163   27.0010 C   0  0  0  0  0  0  0  0  0  0  0  0
    8.3117   -4.3698   27.4436 C   0  0  0  0  0  0  0  0  0  0  0  0
    1.1339   -5.0515   26.3541 C   0  0  0  0  0  0  0  0  0  0  0  0
    4.8080   -8.0362   16.7101 C   0  0  0  0  0  0  0  0  0  0  0  0
   -1.2173   -3.9294   26.9717 O   0  0  0  0  0  0  0  0  0  0  0  0
   -1.0025   -5.0942   27.4586 C   0  0  0  0  0  0  0  0  0  0  0  0
    2.2474   -8.9123   16.6273 C   0  0  0  0  0  0  0  0  0  0  0  0
    4.4957   -9.2636   17.3041 C   0  0  0  0  0  0  0  0  0  0  0  0
   -1.8070   -5.6086   28.1920 O   0  0  0  0  0  0  0  0  0  0  0  0
   10.4296   -5.1799   28.3140 C   0  0  0  0  0  0  0  0  0  0  0  0
    6.6017   -5.9004   26.9187 C   0  0  0  0  0  0  0  0  0  0  0  0
    2.4761   -6.9940   26.4111 N   0  0  0  0  0  0  0  0  0  0  0  0
    9.1353   -5.4053   27.8239 C   0  0  0  0  0  0  0  0  0  0  0  0
    0.9922   -9.3232   16.5995 O   0  0  0  0  0  0  0  0  0  0  0  0
    1.5232   -7.6869   27.1182 C   0  0  0  0  0  0  0  0  0  0  0  0
    8.6878   -6.6715   27.7262 N   0  0  0  0  0  0  0  0  0  0  0  0
    6.9911   -8.2423   27.1808 C   0  0  0  0  0  0  0  0  0  0  0  0
    3.8436   -7.2758   16.0578 C   0  0  0  0  0  0  0  0  0  0  0  0
    3.1882   -9.7190   17.2566 C   0  0  0  0  0  0  0  0  0  0  0  0
    5.3488   -6.1737   26.5092 C   0  0  0  0  0  0  0  0  0  0  0  0
    7.4567   -6.9464   27.2858 C   0  0  0  0  0  0  0  0  0  0  0  0
    0.1921   -5.7592   27.1123 C   0  0  0  0  0  0  0  0  0  0  0  0
    3.5517   -7.7407   25.9711 C   0  0  0  0  0  0  0  0  0  0  0  0
  1  4  4  0
  1 22  4  0
  2 20  4  0
  2 27  4  0
  3 12  4  0
  3 23  4  0
  4 25  4  0
  4 28  1  0
  5  8  4  0
  5 17  4  0
  6  7  4  0
  6 16  4  0
  7 18  4  0
  8 27  4  0
  9 13  4  0
  9 23  4  0
 10 11  1  0
 11 14  2  0
 11 27  1  0
 12 19  1  0
 12 24  4  0
 13 24  4  0
 15 18  1  0
 16 25  4  0
 16 26  4  0
 17 20  4  0
 17 28  1  0
 18 21  4  0
 21 26  4  0
 22 26  4  0
M  END
$$$$

 Created by Python create_sdf_string function

 28 30  0  0  0  0  0  0  0  0999 V2000
    5.7174   -8.4529   26.7190 C   0  0  0  0  0  0  0  0  0  0  0  0
    0.3974   -7.0711   27.5149 C   0  0  0  0  0  0  0  0  0  0  0  0
    2.5338   -7.6891   16.0102 C   0  0  0  0  0  0  0  0  0  0  0  0
    4.8690   -7.4380   26.4151 C   0  0  0  0  0  0  0  0  0  0  0  0
    2.3021   -5.6726   26.0378 C   0  0  0  0  0  0  0  0  0  0  0  0
    7.0880   -4.6163   27.0010 C   0  0  0  0  0  0  0  0  0  0  0  0
    8.3117   -4.3698   27.4436 C   0  0  0  0  0  0  0  0  0  0  0  0
    1.1339   -5.0515   26.3541 C   0  0  0  0  0  0  0  0  0  0  0  0
    4.8080   -8.0362   16.7101 C   0  0  0  0  0  0  0  0  0  0  0  0
   -1.2173   -3.9294   26.9717 O   0  0  0  0  0  0  0  0  0  0  0  0
   -1.0025   -5.0942   27.4586 C   0  0  0  0  0  0  0  0  0  0  0  0
    2.2474   -8.9123   16.6273 C   0  0  0  0  0  0  0  0  0  0  0  0
    4.4957   -9.2636   17.3041 C   0  0  0  0  0  0  0  0  0  0  0  0
   -1.8070   -5.6086   28.1920 O   0  0  0  0  0  0  0  0  0  0  0  0
   10.4296   -5.1799   28.3140 C   0  0  0  0  0  0  0  0  0  0  0  0
    6.6017   -5.9004   26.9187 C   0  0  0  0  0  0  0  0  0  0  0  0
    2.4761   -6.9940   26.4111 N   0  0  0  0  0  0  0  0  0  0  0  0
    9.1353   -5.4053   27.8239 C   0  0  0  0  0  0  0  0  0  0  0  0
    0.9922   -9.3232   16.5995 O   0  0  0  0  0  0  0  0  0  0  0  0
    1.5232   -7.6869   27.1182 C   0  0  0  0  0  0  0  0  0  0  0  0
    8.6878   -6.6715   27.7262 N   0  0  0  0  0  0  0  0  0  0  0  0
    6.9911   -8.2423   27.1808 C   0  0  0  0  0  0  0  0  0  0  0  0
    3.8436   -7.2758   16.0578 C   0  0  0  0  0  0  0  0  0  0  0  0
    3.1882   -9.7190   17.2566 C   0  0  0  0  0  0  0  0  0  0  0  0
    5.3488   -6.1737   26.5092 C   0  0  0  0  0  0  0  0  0  0  0  0
    7.4567   -6.9464   27.2858 C   0  0  0  0  0  0  0  0  0  0  0  0
    0.1921   -5.7592   27.1123 C   0  0  0  0  0  0  0  0  0  0  0  0
    3.5517   -7.7407   25.9711 C   0  0  0  0  0  0  0  0  0  0  0  0
  1  4  4  0
  1 22  4  0
  2 20  4  0
  2 27  4  0
  3 12  4  0
  3 23  4  0
  4 25  4  0
  4 28  1  0
  5  8  4  0
  5 17  4  0
  6  7  4  0
  6 16  4  0
  7 18  4  0
  8 27  4  0
  9 13  4  0
  9 23  4  0
 10 11  1  0
 11 14  2  0
 11 27  1  0
 12 19  1  0
 12 24  4  0
 13 24  4  0
 15 18  1  0
 16 25  4  0
 16 26  4  0
 17 20  4  0
 17 28  1  0
 18 21  4  0
 21 26  4  0
 22 26  4  0
M  END
$$$$

 Created by Python create_sdf_string function

 28 30  0  0  0  0  0  0  0  0999 V2000
    5.7174   -8.4529   26.7190 C   0  0  0  0  0  0  0  0  0  0  0  0
    0.3974   -7.0711   27.5149 C   0  0  0  0  0  0  0  0  0  0  0  0
    2.5338   -7.6891   16.0102 C   0  0  0  0  0  0  0  0  0  0  0  0
    4.8690   -7.4380   26.4151 C   0  0  0  0  0  0  0  0  0  0  0  0
    2.3021   -5.6726   26.0378 C   0  0  0  0  0  0  0  0  0  0  0  0
    7.0880   -4.6163   27.0010 C   0  0  0  0  0  0  0  0  0  0  0  0
    8.3117   -4.3698   27.4436 C   0  0  0  0  0  0  0  0  0  0  0  0
    1.1339   -5.0515   26.3541 C   0  0  0  0  0  0  0  0  0  0  0  0
    4.8080   -8.0362   16.7101 C   0  0  0  0  0  0  0  0  0  0  0  0
   -1.2173   -3.9294   26.9717 O   0  0  0  0  0  0  0  0  0  0  0  0
   -1.0025   -5.0942   27.4586 C   0  0  0  0  0  0  0  0  0  0  0  0
    2.2474   -8.9123   16.6273 C   0  0  0  0  0  0  0  0  0  0  0  0
    4.4957   -9.2636   17.3041 C   0  0  0  0  0  0  0  0  0  0  0  0
   -1.8070   -5.6086   28.1920 O   0  0  0  0  0  0  0  0  0  0  0  0
   10.4296   -5.1799   28.3140 C   0  0  0  0  0  0  0  0  0  0  0  0
    6.6017   -5.9004   26.9187 C   0  0  0  0  0  0  0  0  0  0  0  0
    2.4761   -6.9940   26.4111 N   0  0  0  0  0  0  0  0  0  0  0  0
    9.1353   -5.4053   27.8239 C   0  0  0  0  0  0  0  0  0  0  0  0
    0.9922   -9.3232   16.5995 O   0  0  0  0  0  0  0  0  0  0  0  0
    1.5232   -7.6869   27.1182 C   0  0  0  0  0  0  0  0  0  0  0  0
    8.6878   -6.6715   27.7262 N   0  0  0  0  0  0  0  0  0  0  0  0
    6.9911   -8.2423   27.1808 C   0  0  0  0  0  0  0  0  0  0  0  0
    3.8436   -7.2758   16.0578 C   0  0  0  0  0  0  0  0  0  0  0  0
    3.1882   -9.7190   17.2566 C   0  0  0  0  0  0  0  0  0  0  0  0
    5.3488   -6.1737   26.5092 C   0  0  0  0  0  0  0  0  0  0  0  0
    7.4567   -6.9464   27.2858 C   0  0  0  0  0  0  0  0  0  0  0  0
    0.1921   -5.7592   27.1123 C   0  0  0  0  0  0  0  0  0  0  0  0
    3.5517   -7.7407   25.9711 C   0  0  0  0  0  0  0  0  0  0  0  0
  1  4  4  0
  1 22  4  0
  2 20  4  0
  2 27  4  0
  3 12  4  0
  3 23  4  0
  4 25  4  0
  4 28  1  0
  5  8  4  0
  5 17  4  0
  6  7  4  0
  6 16  4  0
  7 18  4  0
  8 27  4  0
  9 13  4  0
  9 23  4  0
 10 11  1  0
 11 14  2  0
 11 27  1  0
 12 19  1  0
 12 24  4  0
 13 24  4  0
 15 18  1  0
 16 25  4  0
 16 26  4  0
 17 20  4  0
 17 28  1  0
 18 21  4  0
 21 26  4  0
 22 26  4  0
M  END
$$$$

 Created by Python create_sdf_string function

 28 30  0  0  0  0  0  0  0  0999 V2000
    5.7174   -8.4529   26.7190 C   0  0  0  0  0  0  0  0  0  0  0  0
    0.3974   -7.0711   27.5149 C   0  0  0  0  0  0  0  0  0  0  0  0
    2.5338   -7.6891   16.0102 C   0  0  0  0  0  0  0  0  0  0  0  0
    4.8690   -7.4380   26.4151 C   0  0  0  0  0  0  0  0  0  0  0  0
    2.3021   -5.6726   26.0378 C   0  0  0  0  0  0  0  0  0  0  0  0
    7.0880   -4.6163   27.0010 C   0  0  0  0  0  0  0  0  0  0  0  0
    8.3117   -4.3698   27.4436 C   0  0  0  0  0  0  0  0  0  0  0  0
    1.1339   -5.0515   26.3541 C   0  0  0  0  0  0  0  0  0  0  0  0
    4.8080   -8.0362   16.7101 C   0  0  0  0  0  0  0  0  0  0  0  0
   -1.2173   -3.9294   26.9717 O   0  0  0  0  0  0  0  0  0  0  0  0
   -1.0025   -5.0942   27.4586 C   0  0  0  0  0  0  0  0  0  0  0  0
    2.2474   -8.9123   16.6273 C   0  0  0  0  0  0  0  0  0  0  0  0
    4.4957   -9.2636   17.3041 C   0  0  0  0  0  0  0  0  0  0  0  0
   -1.8070   -5.6086   28.1920 O   0  0  0  0  0  0  0  0  0  0  0  0
   10.4296   -5.1799   28.3140 C   0  0  0  0  0  0  0  0  0  0  0  0
    6.6017   -5.9004   26.9187 C   0  0  0  0  0  0  0  0  0  0  0  0
    2.4761   -6.9940   26.4111 N   0  0  0  0  0  0  0  0  0  0  0  0
    9.1353   -5.4053   27.8239 C   0  0  0  0  0  0  0  0  0  0  0  0
    0.9922   -9.3232   16.5995 O   0  0  0  0  0  0  0  0  0  0  0  0
    1.5232   -7.6869   27.1182 C   0  0  0  0  0  0  0  0  0  0  0  0
    8.6878   -6.6715   27.7262 N   0  0  0  0  0  0  0  0  0  0  0  0
    6.9911   -8.2423   27.1808 C   0  0  0  0  0  0  0  0  0  0  0  0
    3.8436   -7.2758   16.0578 C   0  0  0  0  0  0  0  0  0  0  0  0
    3.1882   -9.7190   17.2566 C   0  0  0  0  0  0  0  0  0  0  0  0
    5.3488   -6.1737   26.5092 C   0  0  0  0  0  0  0  0  0  0  0  0
    7.4567   -6.9464   27.2858 C   0  0  0  0  0  0  0  0  0  0  0  0
    0.1921   -5.7592   27.1123 C   0  0  0  0  0  0  0  0  0  0  0  0
    3.5517   -7.7407   25.9711 C   0  0  0  0  0  0  0  0  0  0  0  0
  1  4  4  0
  1 22  4  0
  2 20  4  0
  2 27  4  0
  3 12  4  0
  3 23  4  0
  4 25  4  0
  4 28  1  0
  5  8  4  0
  5 17  4  0
  6  7  4  0
  6 16  4  0
  7 18  4  0
  8 27  4  0
  9 13  4  0
  9 23  4  0
 10 11  1  0
 11 14  2  0
 11 27  1  0
 12 19  1  0
 12 24  4  0
 13 24  4  0
 15 18  1  0
 16 25  4  0
 16 26  4  0
 17 20  4  0
 17 28  1  0
 18 21  4  0
 21 26  4  0
 22 26  4  0
M  END
$$$$

 Created by Python create_sdf_string function

 28 30  0  0  0  0  0  0  0  0999 V2000
    5.7174   -8.4529   26.7190 C   0  0  0  0  0  0  0  0  0  0  0  0
    0.3974   -7.0711   27.5149 C   0  0  0  0  0  0  0  0  0  0  0  0
    2.5338   -7.6891   16.0102 C   0  0  0  0  0  0  0  0  0  0  0  0
    4.8690   -7.4380   26.4151 C   0  0  0  0  0  0  0  0  0  0  0  0
    2.3021   -5.6726   26.0378 C   0  0  0  0  0  0  0  0  0  0  0  0
    7.0880   -4.6163   27.0010 C   0  0  0  0  0  0  0  0  0  0  0  0
    8.3117   -4.3698   27.4436 C   0  0  0  0  0  0  0  0  0  0  0  0
    1.1339   -5.0515   26.3541 C   0  0  0  0  0  0  0  0  0  0  0  0
    4.8080   -8.0362   16.7101 C   0  0  0  0  0  0  0  0  0  0  0  0
   -1.2173   -3.9294   26.9717 O   0  0  0  0  0  0  0  0  0  0  0  0
   -1.0025   -5.0942   27.4586 C   0  0  0  0  0  0  0  0  0  0  0  0
    2.2474   -8.9123   16.6273 C   0  0  0  0  0  0  0  0  0  0  0  0
    4.4957   -9.2636   17.3041 C   0  0  0  0  0  0  0  0  0  0  0  0
   -1.8070   -5.6086   28.1920 O   0  0  0  0  0  0  0  0  0  0  0  0
   10.4296   -5.1799   28.3140 C   0  0  0  0  0  0  0  0  0  0  0  0
    6.6017   -5.9004   26.9187 C   0  0  0  0  0  0  0  0  0  0  0  0
    2.4761   -6.9940   26.4111 N   0  0  0  0  0  0  0  0  0  0  0  0
    9.1353   -5.4053   27.8239 C   0  0  0  0  0  0  0  0  0  0  0  0
    0.9922   -9.3232   16.5995 O   0  0  0  0  0  0  0  0  0  0  0  0
    1.5232   -7.6869   27.1182 C   0  0  0  0  0  0  0  0  0  0  0  0
    8.6878   -6.6715   27.7262 N   0  0  0  0  0  0  0  0  0  0  0  0
    6.9911   -8.2423   27.1808 C   0  0  0  0  0  0  0  0  0  0  0  0
    3.8436   -7.2758   16.0578 C   0  0  0  0  0  0  0  0  0  0  0  0
    3.1882   -9.7190   17.2566 C   0  0  0  0  0  0  0  0  0  0  0  0
    5.3488   -6.1737   26.5092 C   0  0  0  0  0  0  0  0  0  0  0  0
    7.4567   -6.9464   27.2858 C   0  0  0  0  0  0  0  0  0  0  0  0
    0.1921   -5.7592   27.1123 C   0  0  0  0  0  0  0  0  0  0  0  0
    3.5517   -7.7407   25.9711 C   0  0  0  0  0  0  0  0  0  0  0  0
  1  4  4  0
  1 22  4  0
  2 20  4  0
  2 27  4  0
  3 12  4  0
  3 23  4  0
  4 25  4  0
  4 28  1  0
  5  8  4  0
  5 17  4  0
  6  7  4  0
  6 16  4  0
  7 18  4  0
  8 27  4  0
  9 13  4  0
  9 23  4  0
 10 11  1  0
 11 14  2  0
 11 27  1  0
 12 19  1  0
 12 24  4  0
 13 24  4  0
 15 18  1  0
 16 25  4  0
 16 26  4  0
 17 20  4  0
 17 28  1  0
 18 21  4  0
 21 26  4  0
 22 26  4  0
M  END
$$$$

 Created by Python create_sdf_string function

 28 30  0  0  0  0  0  0  0  0999 V2000
    5.7174   -8.4529   26.7190 C   0  0  0  0  0  0  0  0  0  0  0  0
    0.3974   -7.0711   27.5149 C   0  0  0  0  0  0  0  0  0  0  0  0
    2.5338   -7.6891   16.0102 C   0  0  0  0  0  0  0  0  0  0  0  0
    4.8690   -7.4380   26.4151 C   0  0  0  0  0  0  0  0  0  0  0  0
    2.3021   -5.6726   26.0378 C   0  0  0  0  0  0  0  0  0  0  0  0
    7.0880   -4.6163   27.0010 C   0  0  0  0  0  0  0  0  0  0  0  0
    8.3117   -4.3698   27.4436 C   0  0  0  0  0  0  0  0  0  0  0  0
    1.1339   -5.0515   26.3541 C   0  0  0  0  0  0  0  0  0  0  0  0
    4.8080   -8.0362   16.7101 C   0  0  0  0  0  0  0  0  0  0  0  0
   -1.2173   -3.9294   26.9717 O   0  0  0  0  0  0  0  0  0  0  0  0
   -1.0025   -5.0942   27.4586 C   0  0  0  0  0  0  0  0  0  0  0  0
    2.2474   -8.9123   16.6273 C   0  0  0  0  0  0  0  0  0  0  0  0
    4.4957   -9.2636   17.3041 C   0  0  0  0  0  0  0  0  0  0  0  0
   -1.8070   -5.6086   28.1920 O   0  0  0  0  0  0  0  0  0  0  0  0
   10.4296   -5.1799   28.3140 C   0  0  0  0  0  0  0  0  0  0  0  0
    6.6017   -5.9004   26.9187 C   0  0  0  0  0  0  0  0  0  0  0  0
    2.4761   -6.9940   26.4111 N   0  0  0  0  0  0  0  0  0  0  0  0
    9.1353   -5.4053   27.8239 C   0  0  0  0  0  0  0  0  0  0  0  0
    0.9922   -9.3232   16.5995 O   0  0  0  0  0  0  0  0  0  0  0  0
    1.5232   -7.6869   27.1182 C   0  0  0  0  0  0  0  0  0  0  0  0
    8.6878   -6.6715   27.7262 N   0  0  0  0  0  0  0  0  0  0  0  0
    6.9911   -8.2423   27.1808 C   0  0  0  0  0  0  0  0  0  0  0  0
    3.8436   -7.2758   16.0578 C   0  0  0  0  0  0  0  0  0  0  0  0
    3.1882   -9.7190   17.2566 C   0  0  0  0  0  0  0  0  0  0  0  0
    5.3488   -6.1737   26.5092 C   0  0  0  0  0  0  0  0  0  0  0  0
    7.4567   -6.9464   27.2858 C   0  0  0  0  0  0  0  0  0  0  0  0
    0.1921   -5.7592   27.1123 C   0  0  0  0  0  0  0  0  0  0  0  0
    3.5517   -7.7407   25.9711 C   0  0  0  0  0  0  0  0  0  0  0  0
  1  4  4  0
  1 22  4  0
  2 20  4  0
  2 27  4  0
  3 12  4  0
  3 23  4  0
  4 25  4  0
  4 28  1  0
  5  8  4  0
  5 17  4  0
  6  7  4  0
  6 16  4  0
  7 18  4  0
  8 27  4  0
  9 13  4  0
  9 23  4  0
 10 11  1  0
 11 14  2  0
 11 27  1  0
 12 19  1  0
 12 24  4  0
 13 24  4  0
 15 18  1  0
 16 25  4  0
 16 26  4  0
 17 20  4  0
 17 28  1  0
 18 21  4  0
 21 26  4  0
 22 26  4  0
M  END
$$$$

 Created by Python create_sdf_string function

 28 30  0  0  0  0  0  0  0  0999 V2000
    5.7174   -8.4529   26.7190 C   0  0  0  0  0  0  0  0  0  0  0  0
    0.3974   -7.0711   27.5149 C   0  0  0  0  0  0  0  0  0  0  0  0
    2.5338   -7.6891   16.0102 C   0  0  0  0  0  0  0  0  0  0  0  0
    4.8690   -7.4380   26.4151 C   0  0  0  0  0  0  0  0  0  0  0  0
    2.3021   -5.6726   26.0378 C   0  0  0  0  0  0  0  0  0  0  0  0
    7.0880   -4.6163   27.0010 C   0  0  0  0  0  0  0  0  0  0  0  0
    8.3117   -4.3698   27.4436 C   0  0  0  0  0  0  0  0  0  0  0  0
    1.1339   -5.0515   26.3541 C   0  0  0  0  0  0  0  0  0  0  0  0
    4.8080   -8.0362   16.7101 C   0  0  0  0  0  0  0  0  0  0  0  0
   -1.2173   -3.9294   26.9717 O   0  0  0  0  0  0  0  0  0  0  0  0
   -1.0025   -5.0942   27.4586 C   0  0  0  0  0  0  0  0  0  0  0  0
    2.2474   -8.9123   16.6273 C   0  0  0  0  0  0  0  0  0  0  0  0
    4.4957   -9.2636   17.3041 C   0  0  0  0  0  0  0  0  0  0  0  0
   -1.8070   -5.6086   28.1920 O   0  0  0  0  0  0  0  0  0  0  0  0
   10.4296   -5.1799   28.3140 C   0  0  0  0  0  0  0  0  0  0  0  0
    6.6017   -5.9004   26.9187 C   0  0  0  0  0  0  0  0  0  0  0  0
    2.4761   -6.9940   26.4111 N   0  0  0  0  0  0  0  0  0  0  0  0
    9.1353   -5.4053   27.8239 C   0  0  0  0  0  0  0  0  0  0  0  0
    0.9922   -9.3232   16.5995 O   0  0  0  0  0  0  0  0  0  0  0  0
    1.5232   -7.6869   27.1182 C   0  0  0  0  0  0  0  0  0  0  0  0
    8.6878   -6.6715   27.7262 N   0  0  0  0  0  0  0  0  0  0  0  0
    6.9911   -8.2423   27.1808 C   0  0  0  0  0  0  0  0  0  0  0  0
    3.8436   -7.2758   16.0578 C   0  0  0  0  0  0  0  0  0  0  0  0
    3.1882   -9.7190   17.2566 C   0  0  0  0  0  0  0  0  0  0  0  0
    5.3488   -6.1737   26.5092 C   0  0  0  0  0  0  0  0  0  0  0  0
    7.4567   -6.9464   27.2858 C   0  0  0  0  0  0  0  0  0  0  0  0
    0.1921   -5.7592   27.1123 C   0  0  0  0  0  0  0  0  0  0  0  0
    3.5517   -7.7407   25.9711 C   0  0  0  0  0  0  0  0  0  0  0  0
  1  4  4  0
  1 22  4  0
  2 20  4  0
  2 27  4  0
  3 12  4  0
  3 23  4  0
  4 25  4  0
  4 28  1  0
  5  8  4  0
  5 17  4  0
  6  7  4  0
  6 16  4  0
  7 18  4  0
  8 27  4  0
  9 13  4  0
  9 23  4  0
 10 11  1  0
 11 14  2  0
 11 27  1  0
 12 19  1  0
 12 24  4  0
 13 24  4  0
 15 18  1  0
 16 25  4  0
 16 26  4  0
 17 20  4  0
 17 28  1  0
 18 21  4  0
 21 26  4  0
 22 26  4  0
M  END
$$$$

 Created by Python create_sdf_string function

 28 30  0  0  0  0  0  0  0  0999 V2000
    5.7174   -8.4529   26.7190 C   0  0  0  0  0  0  0  0  0  0  0  0
    0.3974   -7.0711   27.5149 C   0  0  0  0  0  0  0  0  0  0  0  0
    2.5338   -7.6891   16.0102 C   0  0  0  0  0  0  0  0  0  0  0  0
    4.8690   -7.4380   26.4151 C   0  0  0  0  0  0  0  0  0  0  0  0
    2.3021   -5.6726   26.0378 C   0  0  0  0  0  0  0  0  0  0  0  0
    7.0880   -4.6163   27.0010 C   0  0  0  0  0  0  0  0  0  0  0  0
    8.3117   -4.3698   27.4436 C   0  0  0  0  0  0  0  0  0  0  0  0
    1.1339   -5.0515   26.3541 C   0  0  0  0  0  0  0  0  0  0  0  0
    4.8080   -8.0362   16.7101 C   0  0  0  0  0  0  0  0  0  0  0  0
   -1.2173   -3.9294   26.9717 O   0  0  0  0  0  0  0  0  0  0  0  0
   -1.0025   -5.0942   27.4586 C   0  0  0  0  0  0  0  0  0  0  0  0
    2.2474   -8.9123   16.6273 C   0  0  0  0  0  0  0  0  0  0  0  0
    4.4957   -9.2636   17.3041 C   0  0  0  0  0  0  0  0  0  0  0  0
   -1.8070   -5.6086   28.1920 O   0  0  0  0  0  0  0  0  0  0  0  0
   10.4296   -5.1799   28.3140 C   0  0  0  0  0  0  0  0  0  0  0  0
    6.6017   -5.9004   26.9187 C   0  0  0  0  0  0  0  0  0  0  0  0
    2.4761   -6.9940   26.4111 N   0  0  0  0  0  0  0  0  0  0  0  0
    9.1353   -5.4053   27.8239 C   0  0  0  0  0  0  0  0  0  0  0  0
    0.9922   -9.3232   16.5995 O   0  0  0  0  0  0  0  0  0  0  0  0
    1.5232   -7.6869   27.1182 C   0  0  0  0  0  0  0  0  0  0  0  0
    8.6878   -6.6715   27.7262 N   0  0  0  0  0  0  0  0  0  0  0  0
    6.9911   -8.2423   27.1808 C   0  0  0  0  0  0  0  0  0  0  0  0
    3.8436   -7.2758   16.0578 C   0  0  0  0  0  0  0  0  0  0  0  0
    3.1882   -9.7190   17.2566 C   0  0  0  0  0  0  0  0  0  0  0  0
    5.3488   -6.1737   26.5092 C   0  0  0  0  0  0  0  0  0  0  0  0
    7.4567   -6.9464   27.2858 C   0  0  0  0  0  0  0  0  0  0  0  0
    0.1921   -5.7592   27.1123 C   0  0  0  0  0  0  0  0  0  0  0  0
    3.5517   -7.7407   25.9711 C   0  0  0  0  0  0  0  0  0  0  0  0
  1  4  4  0
  1 22  4  0
  2 20  4  0
  2 27  4  0
  3 12  4  0
  3 23  4  0
  4 25  4  0
  4 28  1  0
  5  8  4  0
  5 17  4  0
  6  7  4  0
  6 16  4  0
  7 18  4  0
  8 27  4  0
  9 13  4  0
  9 23  4  0
 10 11  1  0
 11 14  2  0
 11 27  1  0
 12 19  1  0
 12 24  4  0
 13 24  4  0
 15 18  1  0
 16 25  4  0
 16 26  4  0
 17 20  4  0
 17 28  1  0
 18 21  4  0
 21 26  4  0
 22 26  4  0
M  END
$$$$

 Created by Python create_sdf_string function

 28 30  0  0  0  0  0  0  0  0999 V2000
    5.7174   -8.4529   26.7190 C   0  0  0  0  0  0  0  0  0  0  0  0
    0.3974   -7.0711   27.5149 C   0  0  0  0  0  0  0  0  0  0  0  0
    2.5338   -7.6891   16.0102 C   0  0  0  0  0  0  0  0  0  0  0  0
    4.8690   -7.4380   26.4151 C   0  0  0  0  0  0  0  0  0  0  0  0
    2.3021   -5.6726   26.0378 C   0  0  0  0  0  0  0  0  0  0  0  0
    7.0880   -4.6163   27.0010 C   0  0  0  0  0  0  0  0  0  0  0  0
    8.3117   -4.3698   27.4436 C   0  0  0  0  0  0  0  0  0  0  0  0
    1.1339   -5.0515   26.3541 C   0  0  0  0  0  0  0  0  0  0  0  0
    4.8080   -8.0362   16.7101 C   0  0  0  0  0  0  0  0  0  0  0  0
   -1.2173   -3.9294   26.9717 O   0  0  0  0  0  0  0  0  0  0  0  0
   -1.0025   -5.0942   27.4586 C   0  0  0  0  0  0  0  0  0  0  0  0
    2.2474   -8.9123   16.6273 C   0  0  0  0  0  0  0  0  0  0  0  0
    4.4957   -9.2636   17.3041 C   0  0  0  0  0  0  0  0  0  0  0  0
   -1.8070   -5.6086   28.1920 O   0  0  0  0  0  0  0  0  0  0  0  0
   10.4296   -5.1799   28.3140 C   0  0  0  0  0  0  0  0  0  0  0  0
    6.6017   -5.9004   26.9187 C   0  0  0  0  0  0  0  0  0  0  0  0
    2.4761   -6.9940   26.4111 N   0  0  0  0  0  0  0  0  0  0  0  0
    9.1353   -5.4053   27.8239 C   0  0  0  0  0  0  0  0  0  0  0  0
    0.9922   -9.3232   16.5995 O   0  0  0  0  0  0  0  0  0  0  0  0
    1.5232   -7.6869   27.1182 C   0  0  0  0  0  0  0  0  0  0  0  0
    8.6878   -6.6715   27.7262 N   0  0  0  0  0  0  0  0  0  0  0  0
    6.9911   -8.2423   27.1808 C   0  0  0  0  0  0  0  0  0  0  0  0
    3.8436   -7.2758   16.0578 C   0  0  0  0  0  0  0  0  0  0  0  0
    3.1882   -9.7190   17.2566 C   0  0  0  0  0  0  0  0  0  0  0  0
    5.3488   -6.1737   26.5092 C   0  0  0  0  0  0  0  0  0  0  0  0
    7.4567   -6.9464   27.2858 C   0  0  0  0  0  0  0  0  0  0  0  0
    0.1921   -5.7592   27.1123 C   0  0  0  0  0  0  0  0  0  0  0  0
    3.5517   -7.7407   25.9711 C   0  0  0  0  0  0  0  0  0  0  0  0
  1  4  4  0
  1 22  4  0
  2 20  4  0
  2 27  4  0
  3 12  4  0
  3 23  4  0
  4 25  4  0
  4 28  1  0
  5  8  4  0
  5 17  4  0
  6  7  4  0
  6 16  4  0
  7 18  4  0
  8 27  4  0
  9 13  4  0
  9 23  4  0
 10 11  1  0
 11 14  2  0
 11 27  1  0
 12 19  1  0
 12 24  4  0
 13 24  4  0
 15 18  1  0
 16 25  4  0
 16 26  4  0
 17 20  4  0
 17 28  1  0
 18 21  4  0
 21 26  4  0
 22 26  4  0
M  END
$$$$

 Created by Python create_sdf_string function

 28 30  0  0  0  0  0  0  0  0999 V2000
    5.7174   -8.4529   26.7190 C   0  0  0  0  0  0  0  0  0  0  0  0
    0.3974   -7.0711   27.5149 C   0  0  0  0  0  0  0  0  0  0  0  0
    2.5338   -7.6891   16.0102 C   0  0  0  0  0  0  0  0  0  0  0  0
    4.8690   -7.4380   26.4151 C   0  0  0  0  0  0  0  0  0  0  0  0
    2.3021   -5.6726   26.0378 C   0  0  0  0  0  0  0  0  0  0  0  0
    7.0880   -4.6163   27.0010 C   0  0  0  0  0  0  0  0  0  0  0  0
    8.3117   -4.3698   27.4436 C   0  0  0  0  0  0  0  0  0  0  0  0
    1.1339   -5.0515   26.3541 C   0  0  0  0  0  0  0  0  0  0  0  0
    4.8080   -8.0362   16.7101 C   0  0  0  0  0  0  0  0  0  0  0  0
   -1.2173   -3.9294   26.9717 O   0  0  0  0  0  0  0  0  0  0  0  0
   -1.0025   -5.0942   27.4586 C   0  0  0  0  0  0  0  0  0  0  0  0
    2.2474   -8.9123   16.6273 C   0  0  0  0  0  0  0  0  0  0  0  0
    4.4957   -9.2636   17.3041 C   0  0  0  0  0  0  0  0  0  0  0  0
   -1.8070   -5.6086   28.1920 O   0  0  0  0  0  0  0  0  0  0  0  0
   10.4296   -5.1799   28.3140 C   0  0  0  0  0  0  0  0  0  0  0  0
    6.6017   -5.9004   26.9187 C   0  0  0  0  0  0  0  0  0  0  0  0
    2.4761   -6.9940   26.4111 N   0  0  0  0  0  0  0  0  0  0  0  0
    9.1353   -5.4053   27.8239 C   0  0  0  0  0  0  0  0  0  0  0  0
    0.9922   -9.3232   16.5995 O   0  0  0  0  0  0  0  0  0  0  0  0
    1.5232   -7.6869   27.1182 C   0  0  0  0  0  0  0  0  0  0  0  0
    8.6878   -6.6715   27.7262 N   0  0  0  0  0  0  0  0  0  0  0  0
    6.9911   -8.2423   27.1808 C   0  0  0  0  0  0  0  0  0  0  0  0
    3.8436   -7.2758   16.0578 C   0  0  0  0  0  0  0  0  0  0  0  0
    3.1882   -9.7190   17.2566 C   0  0  0  0  0  0  0  0  0  0  0  0
    5.3488   -6.1737   26.5092 C   0  0  0  0  0  0  0  0  0  0  0  0
    7.4567   -6.9464   27.2858 C   0  0  0  0  0  0  0  0  0  0  0  0
    0.1921   -5.7592   27.1123 C   0  0  0  0  0  0  0  0  0  0  0  0
    3.5517   -7.7407   25.9711 C   0  0  0  0  0  0  0  0  0  0  0  0
  1  4  4  0
  1 22  4  0
  2 20  4  0
  2 27  4  0
  3 12  4  0
  3 23  4  0
  4 25  4  0
  4 28  1  0
  5  8  4  0
  5 17  4  0
  6  7  4  0
  6 16  4  0
  7 18  4  0
  8 27  4  0
  9 13  4  0
  9 23  4  0
 10 11  1  0
 11 14  2  0
 11 27  1  0
 12 19  1  0
 12 24  4  0
 13 24  4  0
 15 18  1  0
 16 25  4  0
 16 26  4  0
 17 20  4  0
 17 28  1  0
 18 21  4  0
 21 26  4  0
 22 26  4  0
M  END
$$$$

 Created by Python create_sdf_string function

 28 30  0  0  0  0  0  0  0  0999 V2000
    5.7174   -8.4529   26.7190 C   0  0  0  0  0  0  0  0  0  0  0  0
    0.3974   -7.0711   27.5149 C   0  0  0  0  0  0  0  0  0  0  0  0
    2.5338   -7.6891   16.0102 C   0  0  0  0  0  0  0  0  0  0  0  0
    4.8690   -7.4380   26.4151 C   0  0  0  0  0  0  0  0  0  0  0  0
    2.3021   -5.6726   26.0378 C   0  0  0  0  0  0  0  0  0  0  0  0
    7.0880   -4.6163   27.0010 C   0  0  0  0  0  0  0  0  0  0  0  0
    8.3117   -4.3698   27.4436 C   0  0  0  0  0  0  0  0  0  0  0  0
    1.1339   -5.0515   26.3541 C   0  0  0  0  0  0  0  0  0  0  0  0
    4.8080   -8.0362   16.7101 C   0  0  0  0  0  0  0  0  0  0  0  0
   -1.2173   -3.9294   26.9717 O   0  0  0  0  0  0  0  0  0  0  0  0
   -1.0025   -5.0942   27.4586 C   0  0  0  0  0  0  0  0  0  0  0  0
    2.2474   -8.9123   16.6273 C   0  0  0  0  0  0  0  0  0  0  0  0
    4.4957   -9.2636   17.3041 C   0  0  0  0  0  0  0  0  0  0  0  0
   -1.8070   -5.6086   28.1920 O   0  0  0  0  0  0  0  0  0  0  0  0
   10.4296   -5.1799   28.3140 C   0  0  0  0  0  0  0  0  0  0  0  0
    6.6017   -5.9004   26.9187 C   0  0  0  0  0  0  0  0  0  0  0  0
    2.4761   -6.9940   26.4111 N   0  0  0  0  0  0  0  0  0  0  0  0
    9.1353   -5.4053   27.8239 C   0  0  0  0  0  0  0  0  0  0  0  0
    0.9922   -9.3232   16.5995 O   0  0  0  0  0  0  0  0  0  0  0  0
    1.5232   -7.6869   27.1182 C   0  0  0  0  0  0  0  0  0  0  0  0
    8.6878   -6.6715   27.7262 N   0  0  0  0  0  0  0  0  0  0  0  0
    6.9911   -8.2423   27.1808 C   0  0  0  0  0  0  0  0  0  0  0  0
    3.8436   -7.2758   16.0578 C   0  0  0  0  0  0  0  0  0  0  0  0
    3.1882   -9.7190   17.2566 C   0  0  0  0  0  0  0  0  0  0  0  0
    5.3488   -6.1737   26.5092 C   0  0  0  0  0  0  0  0  0  0  0  0
    7.4567   -6.9464   27.2858 C   0  0  0  0  0  0  0  0  0  0  0  0
    0.1921   -5.7592   27.1123 C   0  0  0  0  0  0  0  0  0  0  0  0
    3.5517   -7.7407   25.9711 C   0  0  0  0  0  0  0  0  0  0  0  0
  1  4  4  0
  1 22  4  0
  2 20  4  0
  2 27  4  0
  3 12  4  0
  3 23  4  0
  4 25  4  0
  4 28  1  0
  5  8  4  0
  5 17  4  0
  6  7  4  0
  6 16  4  0
  7 18  4  0
  8 27  4  0
  9 13  4  0
  9 23  4  0
 10 11  1  0
 11 14  2  0
 11 27  1  0
 12 19  1  0
 12 24  4  0
 13 24  4  0
 15 18  1  0
 16 25  4  0
 16 26  4  0
 17 20  4  0
 17 28  1  0
 18 21  4  0
 21 26  4  0
 22 26  4  0
M  END
$$$$

 Created by Python create_sdf_string function

 28 30  0  0  0  0  0  0  0  0999 V2000
    5.7174   -8.4529   26.7190 C   0  0  0  0  0  0  0  0  0  0  0  0
    0.3974   -7.0711   27.5149 C   0  0  0  0  0  0  0  0  0  0  0  0
    2.5338   -7.6891   16.0102 C   0  0  0  0  0  0  0  0  0  0  0  0
    4.8690   -7.4380   26.4151 C   0  0  0  0  0  0  0  0  0  0  0  0
    2.3021   -5.6726   26.0378 C   0  0  0  0  0  0  0  0  0  0  0  0
    7.0880   -4.6163   27.0010 C   0  0  0  0  0  0  0  0  0  0  0  0
    8.3117   -4.3698   27.4436 C   0  0  0  0  0  0  0  0  0  0  0  0
    1.1339   -5.0515   26.3541 C   0  0  0  0  0  0  0  0  0  0  0  0
    4.8080   -8.0362   16.7101 C   0  0  0  0  0  0  0  0  0  0  0  0
   -1.2173   -3.9294   26.9717 O   0  0  0  0  0  0  0  0  0  0  0  0
   -1.0025   -5.0942   27.4586 C   0  0  0  0  0  0  0  0  0  0  0  0
    2.2474   -8.9123   16.6273 C   0  0  0  0  0  0  0  0  0  0  0  0
    4.4957   -9.2636   17.3041 C   0  0  0  0  0  0  0  0  0  0  0  0
   -1.8070   -5.6086   28.1920 O   0  0  0  0  0  0  0  0  0  0  0  0
   10.4296   -5.1799   28.3140 C   0  0  0  0  0  0  0  0  0  0  0  0
    6.6017   -5.9004   26.9187 C   0  0  0  0  0  0  0  0  0  0  0  0
    2.4761   -6.9940   26.4111 N   0  0  0  0  0  0  0  0  0  0  0  0
    9.1353   -5.4053   27.8239 C   0  0  0  0  0  0  0  0  0  0  0  0
    0.9922   -9.3232   16.5995 O   0  0  0  0  0  0  0  0  0  0  0  0
    1.5232   -7.6869   27.1182 C   0  0  0  0  0  0  0  0  0  0  0  0
    8.6878   -6.6715   27.7262 N   0  0  0  0  0  0  0  0  0  0  0  0
    6.9911   -8.2423   27.1808 C   0  0  0  0  0  0  0  0  0  0  0  0
    3.8436   -7.2758   16.0578 C   0  0  0  0  0  0  0  0  0  0  0  0
    3.1882   -9.7190   17.2566 C   0  0  0  0  0  0  0  0  0  0  0  0
    5.3488   -6.1737   26.5092 C   0  0  0  0  0  0  0  0  0  0  0  0
    7.4567   -6.9464   27.2858 C   0  0  0  0  0  0  0  0  0  0  0  0
    0.1921   -5.7592   27.1123 C   0  0  0  0  0  0  0  0  0  0  0  0
    3.5517   -7.7407   25.9711 C   0  0  0  0  0  0  0  0  0  0  0  0
  1  4  4  0
  1 22  4  0
  2 20  4  0
  2 27  4  0
  3 12  4  0
  3 23  4  0
  4 25  4  0
  4 28  1  0
  5  8  4  0
  5 17  4  0
  6  7  4  0
  6 16  4  0
  7 18  4  0
  8 27  4  0
  9 13  4  0
  9 23  4  0
 10 11  1  0
 11 14  2  0
 11 27  1  0
 12 19  1  0
 12 24  4  0
 13 24  4  0
 15 18  1  0
 16 25  4  0
 16 26  4  0
 17 20  4  0
 17 28  1  0
 18 21  4  0
 21 26  4  0
 22 26  4  0
M  END
$$$$

 Created by Python create_sdf_string function

 28 30  0  0  0  0  0  0  0  0999 V2000
    5.7174   -8.4529   26.7190 C   0  0  0  0  0  0  0  0  0  0  0  0
    0.3974   -7.0711   27.5149 C   0  0  0  0  0  0  0  0  0  0  0  0
    2.5338   -7.6891   16.0102 C   0  0  0  0  0  0  0  0  0  0  0  0
    4.8690   -7.4380   26.4151 C   0  0  0  0  0  0  0  0  0  0  0  0
    2.3021   -5.6726   26.0378 C   0  0  0  0  0  0  0  0  0  0  0  0
    7.0880   -4.6163   27.0010 C   0  0  0  0  0  0  0  0  0  0  0  0
    8.3117   -4.3698   27.4436 C   0  0  0  0  0  0  0  0  0  0  0  0
    1.1339   -5.0515   26.3541 C   0  0  0  0  0  0  0  0  0  0  0  0
    4.8080   -8.0362   16.7101 C   0  0  0  0  0  0  0  0  0  0  0  0
   -1.2173   -3.9294   26.9717 O   0  0  0  0  0  0  0  0  0  0  0  0
   -1.0025   -5.0942   27.4586 C   0  0  0  0  0  0  0  0  0  0  0  0
    2.2474   -8.9123   16.6273 C   0  0  0  0  0  0  0  0  0  0  0  0
    4.4957   -9.2636   17.3041 C   0  0  0  0  0  0  0  0  0  0  0  0
   -1.8070   -5.6086   28.1920 O   0  0  0  0  0  0  0  0  0  0  0  0
   10.4296   -5.1799   28.3140 C   0  0  0  0  0  0  0  0  0  0  0  0
    6.6017   -5.9004   26.9187 C   0  0  0  0  0  0  0  0  0  0  0  0
    2.4761   -6.9940   26.4111 N   0  0  0  0  0  0  0  0  0  0  0  0
    9.1353   -5.4053   27.8239 C   0  0  0  0  0  0  0  0  0  0  0  0
    0.9922   -9.3232   16.5995 O   0  0  0  0  0  0  0  0  0  0  0  0
    1.5232   -7.6869   27.1182 C   0  0  0  0  0  0  0  0  0  0  0  0
    8.6878   -6.6715   27.7262 N   0  0  0  0  0  0  0  0  0  0  0  0
    6.9911   -8.2423   27.1808 C   0  0  0  0  0  0  0  0  0  0  0  0
    3.8436   -7.2758   16.0578 C   0  0  0  0  0  0  0  0  0  0  0  0
    3.1882   -9.7190   17.2566 C   0  0  0  0  0  0  0  0  0  0  0  0
    5.3488   -6.1737   26.5092 C   0  0  0  0  0  0  0  0  0  0  0  0
    7.4567   -6.9464   27.2858 C   0  0  0  0  0  0  0  0  0  0  0  0
    0.1921   -5.7592   27.1123 C   0  0  0  0  0  0  0  0  0  0  0  0
    3.5517   -7.7407   25.9711 C   0  0  0  0  0  0  0  0  0  0  0  0
  1  4  4  0
  1 22  4  0
  2 20  4  0
  2 27  4  0
  3 12  4  0
  3 23  4  0
  4 25  4  0
  4 28  1  0
  5  8  4  0
  5 17  4  0
  6  7  4  0
  6 16  4  0
  7 18  4  0
  8 27  4  0
  9 13  4  0
  9 23  4  0
 10 11  1  0
 11 14  2  0
 11 27  1  0
 12 19  1  0
 12 24  4  0
 13 24  4  0
 15 18  1  0
 16 25  4  0
 16 26  4  0
 17 20  4  0
 17 28  1  0
 18 21  4  0
 21 26  4  0
 22 26  4  0
M  END
$$$$

 Created by Python create_sdf_string function

 28 30  0  0  0  0  0  0  0  0999 V2000
    5.7174   -8.4529   26.7190 C   0  0  0  0  0  0  0  0  0  0  0  0
    0.3974   -7.0711   27.5149 C   0  0  0  0  0  0  0  0  0  0  0  0
    2.5338   -7.6891   16.0102 C   0  0  0  0  0  0  0  0  0  0  0  0
    4.8690   -7.4380   26.4151 C   0  0  0  0  0  0  0  0  0  0  0  0
    2.3021   -5.6726   26.0378 C   0  0  0  0  0  0  0  0  0  0  0  0
    7.0880   -4.6163   27.0010 C   0  0  0  0  0  0  0  0  0  0  0  0
    8.3117   -4.3698   27.4436 C   0  0  0  0  0  0  0  0  0  0  0  0
    1.1339   -5.0515   26.3541 C   0  0  0  0  0  0  0  0  0  0  0  0
    4.8080   -8.0362   16.7101 C   0  0  0  0  0  0  0  0  0  0  0  0
   -1.2173   -3.9294   26.9717 O   0  0  0  0  0  0  0  0  0  0  0  0
   -1.0025   -5.0942   27.4586 C   0  0  0  0  0  0  0  0  0  0  0  0
    2.2474   -8.9123   16.6273 C   0  0  0  0  0  0  0  0  0  0  0  0
    4.4957   -9.2636   17.3041 C   0  0  0  0  0  0  0  0  0  0  0  0
   -1.8070   -5.6086   28.1920 O   0  0  0  0  0  0  0  0  0  0  0  0
   10.4296   -5.1799   28.3140 C   0  0  0  0  0  0  0  0  0  0  0  0
    6.6017   -5.9004   26.9187 C   0  0  0  0  0  0  0  0  0  0  0  0
    2.4761   -6.9940   26.4111 N   0  0  0  0  0  0  0  0  0  0  0  0
    9.1353   -5.4053   27.8239 C   0  0  0  0  0  0  0  0  0  0  0  0
    0.9922   -9.3232   16.5995 O   0  0  0  0  0  0  0  0  0  0  0  0
    1.5232   -7.6869   27.1182 C   0  0  0  0  0  0  0  0  0  0  0  0
    8.6878   -6.6715   27.7262 N   0  0  0  0  0  0  0  0  0  0  0  0
    6.9911   -8.2423   27.1808 C   0  0  0  0  0  0  0  0  0  0  0  0
    3.8436   -7.2758   16.0578 C   0  0  0  0  0  0  0  0  0  0  0  0
    3.1882   -9.7190   17.2566 C   0  0  0  0  0  0  0  0  0  0  0  0
    5.3488   -6.1737   26.5092 C   0  0  0  0  0  0  0  0  0  0  0  0
    7.4567   -6.9464   27.2858 C   0  0  0  0  0  0  0  0  0  0  0  0
    0.1921   -5.7592   27.1123 C   0  0  0  0  0  0  0  0  0  0  0  0
    3.5517   -7.7407   25.9711 C   0  0  0  0  0  0  0  0  0  0  0  0
  1  4  4  0
  1 22  4  0
  2 20  4  0
  2 27  4  0
  3 12  4  0
  3 23  4  0
  4 25  4  0
  4 28  1  0
  5  8  4  0
  5 17  4  0
  6  7  4  0
  6 16  4  0
  7 18  4  0
  8 27  4  0
  9 13  4  0
  9 23  4  0
 10 11  1  0
 11 14  2  0
 11 27  1  0
 12 19  1  0
 12 24  4  0
 13 24  4  0
 15 18  1  0
 16 25  4  0
 16 26  4  0
 17 20  4  0
 17 28  1  0
 18 21  4  0
 21 26  4  0
 22 26  4  0
M  END
$$$$

 Created by Python create_sdf_string function

 28 30  0  0  0  0  0  0  0  0999 V2000
    5.7174   -8.4529   26.7190 C   0  0  0  0  0  0  0  0  0  0  0  0
    0.3974   -7.0711   27.5149 C   0  0  0  0  0  0  0  0  0  0  0  0
    2.5338   -7.6891   16.0102 C   0  0  0  0  0  0  0  0  0  0  0  0
    4.8690   -7.4380   26.4151 C   0  0  0  0  0  0  0  0  0  0  0  0
    2.3021   -5.6726   26.0378 C   0  0  0  0  0  0  0  0  0  0  0  0
    7.0880   -4.6163   27.0010 C   0  0  0  0  0  0  0  0  0  0  0  0
    8.3117   -4.3698   27.4436 C   0  0  0  0  0  0  0  0  0  0  0  0
    1.1339   -5.0515   26.3541 C   0  0  0  0  0  0  0  0  0  0  0  0
    4.8080   -8.0362   16.7101 C   0  0  0  0  0  0  0  0  0  0  0  0
   -1.2173   -3.9294   26.9717 O   0  0  0  0  0  0  0  0  0  0  0  0
   -1.0025   -5.0942   27.4586 C   0  0  0  0  0  0  0  0  0  0  0  0
    2.2474   -8.9123   16.6273 C   0  0  0  0  0  0  0  0  0  0  0  0
    4.4957   -9.2636   17.3041 C   0  0  0  0  0  0  0  0  0  0  0  0
   -1.8070   -5.6086   28.1920 O   0  0  0  0  0  0  0  0  0  0  0  0
   10.4296   -5.1799   28.3140 C   0  0  0  0  0  0  0  0  0  0  0  0
    6.6017   -5.9004   26.9187 C   0  0  0  0  0  0  0  0  0  0  0  0
    2.4761   -6.9940   26.4111 N   0  0  0  0  0  0  0  0  0  0  0  0
    9.1353   -5.4053   27.8239 C   0  0  0  0  0  0  0  0  0  0  0  0
    0.9922   -9.3232   16.5995 O   0  0  0  0  0  0  0  0  0  0  0  0
    1.5232   -7.6869   27.1182 C   0  0  0  0  0  0  0  0  0  0  0  0
    8.6878   -6.6715   27.7262 N   0  0  0  0  0  0  0  0  0  0  0  0
    6.9911   -8.2423   27.1808 C   0  0  0  0  0  0  0  0  0  0  0  0
    3.8436   -7.2758   16.0578 C   0  0  0  0  0  0  0  0  0  0  0  0
    3.1882   -9.7190   17.2566 C   0  0  0  0  0  0  0  0  0  0  0  0
    5.3488   -6.1737   26.5092 C   0  0  0  0  0  0  0  0  0  0  0  0
    7.4567   -6.9464   27.2858 C   0  0  0  0  0  0  0  0  0  0  0  0
    0.1921   -5.7592   27.1123 C   0  0  0  0  0  0  0  0  0  0  0  0
    3.5517   -7.7407   25.9711 C   0  0  0  0  0  0  0  0  0  0  0  0
  1  4  4  0
  1 22  4  0
  2 20  4  0
  2 27  4  0
  3 12  4  0
  3 23  4  0
  4 25  4  0
  4 28  1  0
  5  8  4  0
  5 17  4  0
  6  7  4  0
  6 16  4  0
  7 18  4  0
  8 27  4  0
  9 13  4  0
  9 23  4  0
 10 11  1  0
 11 14  2  0
 11 27  1  0
 12 19  1  0
 12 24  4  0
 13 24  4  0
 15 18  1  0
 16 25  4  0
 16 26  4  0
 17 20  4  0
 17 28  1  0
 18 21  4  0
 21 26  4  0
 22 26  4  0
M  END
$$$$

 Created by Python create_sdf_string function

 28 30  0  0  0  0  0  0  0  0999 V2000
    5.7174   -8.4529   26.7190 C   0  0  0  0  0  0  0  0  0  0  0  0
    0.3974   -7.0711   27.5149 C   0  0  0  0  0  0  0  0  0  0  0  0
    2.5338   -7.6891   16.0102 C   0  0  0  0  0  0  0  0  0  0  0  0
    4.8690   -7.4380   26.4151 C   0  0  0  0  0  0  0  0  0  0  0  0
    2.3021   -5.6726   26.0378 C   0  0  0  0  0  0  0  0  0  0  0  0
    7.0880   -4.6163   27.0010 C   0  0  0  0  0  0  0  0  0  0  0  0
    8.3117   -4.3698   27.4436 C   0  0  0  0  0  0  0  0  0  0  0  0
    1.1339   -5.0515   26.3541 C   0  0  0  0  0  0  0  0  0  0  0  0
    4.8080   -8.0362   16.7101 C   0  0  0  0  0  0  0  0  0  0  0  0
   -1.2173   -3.9294   26.9717 O   0  0  0  0  0  0  0  0  0  0  0  0
   -1.0025   -5.0942   27.4586 C   0  0  0  0  0  0  0  0  0  0  0  0
    2.2474   -8.9123   16.6273 C   0  0  0  0  0  0  0  0  0  0  0  0
    4.4957   -9.2636   17.3041 C   0  0  0  0  0  0  0  0  0  0  0  0
   -1.8070   -5.6086   28.1920 O   0  0  0  0  0  0  0  0  0  0  0  0
   10.4296   -5.1799   28.3140 C   0  0  0  0  0  0  0  0  0  0  0  0
    6.6017   -5.9004   26.9187 C   0  0  0  0  0  0  0  0  0  0  0  0
    2.4761   -6.9940   26.4111 N   0  0  0  0  0  0  0  0  0  0  0  0
    9.1353   -5.4053   27.8239 C   0  0  0  0  0  0  0  0  0  0  0  0
    0.9922   -9.3232   16.5995 O   0  0  0  0  0  0  0  0  0  0  0  0
    1.5232   -7.6869   27.1182 C   0  0  0  0  0  0  0  0  0  0  0  0
    8.6878   -6.6715   27.7262 N   0  0  0  0  0  0  0  0  0  0  0  0
    6.9911   -8.2423   27.1808 C   0  0  0  0  0  0  0  0  0  0  0  0
    3.8436   -7.2758   16.0578 C   0  0  0  0  0  0  0  0  0  0  0  0
    3.1882   -9.7190   17.2566 C   0  0  0  0  0  0  0  0  0  0  0  0
    5.3488   -6.1737   26.5092 C   0  0  0  0  0  0  0  0  0  0  0  0
    7.4567   -6.9464   27.2858 C   0  0  0  0  0  0  0  0  0  0  0  0
    0.1921   -5.7592   27.1123 C   0  0  0  0  0  0  0  0  0  0  0  0
    3.5517   -7.7407   25.9711 C   0  0  0  0  0  0  0  0  0  0  0  0
  1  4  4  0
  1 22  4  0
  2 20  4  0
  2 27  4  0
  3 12  4  0
  3 23  4  0
  4 25  4  0
  4 28  1  0
  5  8  4  0
  5 17  4  0
  6  7  4  0
  6 16  4  0
  7 18  4  0
  8 27  4  0
  9 13  4  0
  9 23  4  0
 10 11  1  0
 11 14  2  0
 11 27  1  0
 12 19  1  0
 12 24  4  0
 13 24  4  0
 15 18  1  0
 16 25  4  0
 16 26  4  0
 17 20  4  0
 17 28  1  0
 18 21  4  0
 21 26  4  0
 22 26  4  0
M  END
$$$$

 Created by Python create_sdf_string function

 28 30  0  0  0  0  0  0  0  0999 V2000
    5.7174   -8.4529   26.7190 C   0  0  0  0  0  0  0  0  0  0  0  0
    0.3974   -7.0711   27.5149 C   0  0  0  0  0  0  0  0  0  0  0  0
    2.5338   -7.6891   16.0102 C   0  0  0  0  0  0  0  0  0  0  0  0
    4.8690   -7.4380   26.4151 C   0  0  0  0  0  0  0  0  0  0  0  0
    2.3021   -5.6726   26.0378 C   0  0  0  0  0  0  0  0  0  0  0  0
    7.0880   -4.6163   27.0010 C   0  0  0  0  0  0  0  0  0  0  0  0
    8.3117   -4.3698   27.4436 C   0  0  0  0  0  0  0  0  0  0  0  0
    1.1339   -5.0515   26.3541 C   0  0  0  0  0  0  0  0  0  0  0  0
    4.8080   -8.0362   16.7101 C   0  0  0  0  0  0  0  0  0  0  0  0
   -1.2173   -3.9294   26.9717 O   0  0  0  0  0  0  0  0  0  0  0  0
   -1.0025   -5.0942   27.4586 C   0  0  0  0  0  0  0  0  0  0  0  0
    2.2474   -8.9123   16.6273 C   0  0  0  0  0  0  0  0  0  0  0  0
    4.4957   -9.2636   17.3041 C   0  0  0  0  0  0  0  0  0  0  0  0
   -1.8070   -5.6086   28.1920 O   0  0  0  0  0  0  0  0  0  0  0  0
   10.4296   -5.1799   28.3140 C   0  0  0  0  0  0  0  0  0  0  0  0
    6.6017   -5.9004   26.9187 C   0  0  0  0  0  0  0  0  0  0  0  0
    2.4761   -6.9940   26.4111 N   0  0  0  0  0  0  0  0  0  0  0  0
    9.1353   -5.4053   27.8239 C   0  0  0  0  0  0  0  0  0  0  0  0
    0.9922   -9.3232   16.5995 O   0  0  0  0  0  0  0  0  0  0  0  0
    1.5232   -7.6869   27.1182 C   0  0  0  0  0  0  0  0  0  0  0  0
    8.6878   -6.6715   27.7262 N   0  0  0  0  0  0  0  0  0  0  0  0
    6.9911   -8.2423   27.1808 C   0  0  0  0  0  0  0  0  0  0  0  0
    3.8436   -7.2758   16.0578 C   0  0  0  0  0  0  0  0  0  0  0  0
    3.1882   -9.7190   17.2566 C   0  0  0  0  0  0  0  0  0  0  0  0
    5.3488   -6.1737   26.5092 C   0  0  0  0  0  0  0  0  0  0  0  0
    7.4567   -6.9464   27.2858 C   0  0  0  0  0  0  0  0  0  0  0  0
    0.1921   -5.7592   27.1123 C   0  0  0  0  0  0  0  0  0  0  0  0
    3.5517   -7.7407   25.9711 C   0  0  0  0  0  0  0  0  0  0  0  0
  1  4  4  0
  1 22  4  0
  2 20  4  0
  2 27  4  0
  3 12  4  0
  3 23  4  0
  4 25  4  0
  4 28  1  0
  5  8  4  0
  5 17  4  0
  6  7  4  0
  6 16  4  0
  7 18  4  0
  8 27  4  0
  9 13  4  0
  9 23  4  0
 10 11  1  0
 11 14  2  0
 11 27  1  0
 12 19  1  0
 12 24  4  0
 13 24  4  0
 15 18  1  0
 16 25  4  0
 16 26  4  0
 17 20  4  0
 17 28  1  0
 18 21  4  0
 21 26  4  0
 22 26  4  0
M  END
$$$$

 Created by Python create_sdf_string function

 28 30  0  0  0  0  0  0  0  0999 V2000
    5.7174   -8.4529   26.7190 C   0  0  0  0  0  0  0  0  0  0  0  0
    0.3974   -7.0711   27.5149 C   0  0  0  0  0  0  0  0  0  0  0  0
    2.5338   -7.6891   16.0102 C   0  0  0  0  0  0  0  0  0  0  0  0
    4.8690   -7.4380   26.4151 C   0  0  0  0  0  0  0  0  0  0  0  0
    2.3021   -5.6726   26.0378 C   0  0  0  0  0  0  0  0  0  0  0  0
    7.0880   -4.6163   27.0010 C   0  0  0  0  0  0  0  0  0  0  0  0
    8.3117   -4.3698   27.4436 C   0  0  0  0  0  0  0  0  0  0  0  0
    1.1339   -5.0515   26.3541 C   0  0  0  0  0  0  0  0  0  0  0  0
    4.8080   -8.0362   16.7101 C   0  0  0  0  0  0  0  0  0  0  0  0
   -1.2173   -3.9294   26.9717 O   0  0  0  0  0  0  0  0  0  0  0  0
   -1.0025   -5.0942   27.4586 C   0  0  0  0  0  0  0  0  0  0  0  0
    2.2474   -8.9123   16.6273 C   0  0  0  0  0  0  0  0  0  0  0  0
    4.4957   -9.2636   17.3041 C   0  0  0  0  0  0  0  0  0  0  0  0
   -1.8070   -5.6086   28.1920 O   0  0  0  0  0  0  0  0  0  0  0  0
   10.4296   -5.1799   28.3140 C   0  0  0  0  0  0  0  0  0  0  0  0
    6.6017   -5.9004   26.9187 C   0  0  0  0  0  0  0  0  0  0  0  0
    2.4761   -6.9940   26.4111 N   0  0  0  0  0  0  0  0  0  0  0  0
    9.1353   -5.4053   27.8239 C   0  0  0  0  0  0  0  0  0  0  0  0
    0.9922   -9.3232   16.5995 O   0  0  0  0  0  0  0  0  0  0  0  0
    1.5232   -7.6869   27.1182 C   0  0  0  0  0  0  0  0  0  0  0  0
    8.6878   -6.6715   27.7262 N   0  0  0  0  0  0  0  0  0  0  0  0
    6.9911   -8.2423   27.1808 C   0  0  0  0  0  0  0  0  0  0  0  0
    3.8436   -7.2758   16.0578 C   0  0  0  0  0  0  0  0  0  0  0  0
    3.1882   -9.7190   17.2566 C   0  0  0  0  0  0  0  0  0  0  0  0
    5.3488   -6.1737   26.5092 C   0  0  0  0  0  0  0  0  0  0  0  0
    7.4567   -6.9464   27.2858 C   0  0  0  0  0  0  0  0  0  0  0  0
    0.1921   -5.7592   27.1123 C   0  0  0  0  0  0  0  0  0  0  0  0
    3.5517   -7.7407   25.9711 C   0  0  0  0  0  0  0  0  0  0  0  0
  1  4  4  0
  1 22  4  0
  2 20  4  0
  2 27  4  0
  3 12  4  0
  3 23  4  0
  4 25  4  0
  4 28  1  0
  5  8  4  0
  5 17  4  0
  6  7  4  0
  6 16  4  0
  7 18  4  0
  8 27  4  0
  9 13  4  0
  9 23  4  0
 10 11  1  0
 11 14  2  0
 11 27  1  0
 12 19  1  0
 12 24  4  0
 13 24  4  0
 15 18  1  0
 16 25  4  0
 16 26  4  0
 17 20  4  0
 17 28  1  0
 18 21  4  0
 21 26  4  0
 22 26  4  0
M  END
$$$$

 Created by Python create_sdf_string function

 28 30  0  0  0  0  0  0  0  0999 V2000
    5.7174   -8.4529   26.7190 C   0  0  0  0  0  0  0  0  0  0  0  0
    0.3974   -7.0711   27.5149 C   0  0  0  0  0  0  0  0  0  0  0  0
    2.5338   -7.6891   16.0102 C   0  0  0  0  0  0  0  0  0  0  0  0
    4.8690   -7.4380   26.4151 C   0  0  0  0  0  0  0  0  0  0  0  0
    2.3021   -5.6726   26.0378 C   0  0  0  0  0  0  0  0  0  0  0  0
    7.0880   -4.6163   27.0010 C   0  0  0  0  0  0  0  0  0  0  0  0
    8.3117   -4.3698   27.4436 C   0  0  0  0  0  0  0  0  0  0  0  0
    1.1339   -5.0515   26.3541 C   0  0  0  0  0  0  0  0  0  0  0  0
    4.8080   -8.0362   16.7101 C   0  0  0  0  0  0  0  0  0  0  0  0
   -1.2173   -3.9294   26.9717 O   0  0  0  0  0  0  0  0  0  0  0  0
   -1.0025   -5.0942   27.4586 C   0  0  0  0  0  0  0  0  0  0  0  0
    2.2474   -8.9123   16.6273 C   0  0  0  0  0  0  0  0  0  0  0  0
    4.4957   -9.2636   17.3041 C   0  0  0  0  0  0  0  0  0  0  0  0
   -1.8070   -5.6086   28.1920 O   0  0  0  0  0  0  0  0  0  0  0  0
   10.4296   -5.1799   28.3140 C   0  0  0  0  0  0  0  0  0  0  0  0
    6.6017   -5.9004   26.9187 C   0  0  0  0  0  0  0  0  0  0  0  0
    2.4761   -6.9940   26.4111 N   0  0  0  0  0  0  0  0  0  0  0  0
    9.1353   -5.4053   27.8239 C   0  0  0  0  0  0  0  0  0  0  0  0
    0.9922   -9.3232   16.5995 O   0  0  0  0  0  0  0  0  0  0  0  0
    1.5232   -7.6869   27.1182 C   0  0  0  0  0  0  0  0  0  0  0  0
    8.6878   -6.6715   27.7262 N   0  0  0  0  0  0  0  0  0  0  0  0
    6.9911   -8.2423   27.1808 C   0  0  0  0  0  0  0  0  0  0  0  0
    3.8436   -7.2758   16.0578 C   0  0  0  0  0  0  0  0  0  0  0  0
    3.1882   -9.7190   17.2566 C   0  0  0  0  0  0  0  0  0  0  0  0
    5.3488   -6.1737   26.5092 C   0  0  0  0  0  0  0  0  0  0  0  0
    7.4567   -6.9464   27.2858 C   0  0  0  0  0  0  0  0  0  0  0  0
    0.1921   -5.7592   27.1123 C   0  0  0  0  0  0  0  0  0  0  0  0
    3.5517   -7.7407   25.9711 C   0  0  0  0  0  0  0  0  0  0  0  0
  1  4  4  0
  1 22  4  0
  2 20  4  0
  2 27  4  0
  3 12  4  0
  3 23  4  0
  4 25  4  0
  4 28  1  0
  5  8  4  0
  5 17  4  0
  6  7  4  0
  6 16  4  0
  7 18  4  0
  8 27  4  0
  9 13  4  0
  9 23  4  0
 10 11  1  0
 11 14  2  0
 11 27  1  0
 12 19  1  0
 12 24  4  0
 13 24  4  0
 15 18  1  0
 16 25  4  0
 16 26  4  0
 17 20  4  0
 17 28  1  0
 18 21  4  0
 21 26  4  0
 22 26  4  0
M  END
$$$$

 Created by Python create_sdf_string function

 28 30  0  0  0  0  0  0  0  0999 V2000
    5.7174   -8.4529   26.7190 C   0  0  0  0  0  0  0  0  0  0  0  0
    0.3974   -7.0711   27.5149 C   0  0  0  0  0  0  0  0  0  0  0  0
    2.5338   -7.6891   16.0102 C   0  0  0  0  0  0  0  0  0  0  0  0
    4.8690   -7.4380   26.4151 C   0  0  0  0  0  0  0  0  0  0  0  0
    2.3021   -5.6726   26.0378 C   0  0  0  0  0  0  0  0  0  0  0  0
    7.0880   -4.6163   27.0010 C   0  0  0  0  0  0  0  0  0  0  0  0
    8.3117   -4.3698   27.4436 C   0  0  0  0  0  0  0  0  0  0  0  0
    1.1339   -5.0515   26.3541 C   0  0  0  0  0  0  0  0  0  0  0  0
    4.8080   -8.0362   16.7101 C   0  0  0  0  0  0  0  0  0  0  0  0
   -1.2173   -3.9294   26.9717 O   0  0  0  0  0  0  0  0  0  0  0  0
   -1.0025   -5.0942   27.4586 C   0  0  0  0  0  0  0  0  0  0  0  0
    2.2474   -8.9123   16.6273 C   0  0  0  0  0  0  0  0  0  0  0  0
    4.4957   -9.2636   17.3041 C   0  0  0  0  0  0  0  0  0  0  0  0
   -1.8070   -5.6086   28.1920 O   0  0  0  0  0  0  0  0  0  0  0  0
   10.4296   -5.1799   28.3140 C   0  0  0  0  0  0  0  0  0  0  0  0
    6.6017   -5.9004   26.9187 C   0  0  0  0  0  0  0  0  0  0  0  0
    2.4761   -6.9940   26.4111 N   0  0  0  0  0  0  0  0  0  0  0  0
    9.1353   -5.4053   27.8239 C   0  0  0  0  0  0  0  0  0  0  0  0
    0.9922   -9.3232   16.5995 O   0  0  0  0  0  0  0  0  0  0  0  0
    1.5232   -7.6869   27.1182 C   0  0  0  0  0  0  0  0  0  0  0  0
    8.6878   -6.6715   27.7262 N   0  0  0  0  0  0  0  0  0  0  0  0
    6.9911   -8.2423   27.1808 C   0  0  0  0  0  0  0  0  0  0  0  0
    3.8436   -7.2758   16.0578 C   0  0  0  0  0  0  0  0  0  0  0  0
    3.1882   -9.7190   17.2566 C   0  0  0  0  0  0  0  0  0  0  0  0
    5.3488   -6.1737   26.5092 C   0  0  0  0  0  0  0  0  0  0  0  0
    7.4567   -6.9464   27.2858 C   0  0  0  0  0  0  0  0  0  0  0  0
    0.1921   -5.7592   27.1123 C   0  0  0  0  0  0  0  0  0  0  0  0
    3.5517   -7.7407   25.9711 C   0  0  0  0  0  0  0  0  0  0  0  0
  1  4  4  0
  1 22  4  0
  2 20  4  0
  2 27  4  0
  3 12  4  0
  3 23  4  0
  4 25  4  0
  4 28  1  0
  5  8  4  0
  5 17  4  0
  6  7  4  0
  6 16  4  0
  7 18  4  0
  8 27  4  0
  9 13  4  0
  9 23  4  0
 10 11  1  0
 11 14  2  0
 11 27  1  0
 12 19  1  0
 12 24  4  0
 13 24  4  0
 15 18  1  0
 16 25  4  0
 16 26  4  0
 17 20  4  0
 17 28  1  0
 18 21  4  0
 21 26  4  0
 22 26  4  0
M  END
$$$$

 Created by Python create_sdf_string function

 28 30  0  0  0  0  0  0  0  0999 V2000
    5.7174   -8.4529   26.7190 C   0  0  0  0  0  0  0  0  0  0  0  0
    0.3974   -7.0711   27.5149 C   0  0  0  0  0  0  0  0  0  0  0  0
    2.5338   -7.6891   16.0102 C   0  0  0  0  0  0  0  0  0  0  0  0
    4.8690   -7.4380   26.4151 C   0  0  0  0  0  0  0  0  0  0  0  0
    2.3021   -5.6726   26.0378 C   0  0  0  0  0  0  0  0  0  0  0  0
    7.0880   -4.6163   27.0010 C   0  0  0  0  0  0  0  0  0  0  0  0
    8.3117   -4.3698   27.4436 C   0  0  0  0  0  0  0  0  0  0  0  0
    1.1339   -5.0515   26.3541 C   0  0  0  0  0  0  0  0  0  0  0  0
    4.8080   -8.0362   16.7101 C   0  0  0  0  0  0  0  0  0  0  0  0
   -1.2173   -3.9294   26.9717 O   0  0  0  0  0  0  0  0  0  0  0  0
   -1.0025   -5.0942   27.4586 C   0  0  0  0  0  0  0  0  0  0  0  0
    2.2474   -8.9123   16.6273 C   0  0  0  0  0  0  0  0  0  0  0  0
    4.4957   -9.2636   17.3041 C   0  0  0  0  0  0  0  0  0  0  0  0
   -1.8070   -5.6086   28.1920 O   0  0  0  0  0  0  0  0  0  0  0  0
   10.4296   -5.1799   28.3140 C   0  0  0  0  0  0  0  0  0  0  0  0
    6.6017   -5.9004   26.9187 C   0  0  0  0  0  0  0  0  0  0  0  0
    2.4761   -6.9940   26.4111 N   0  0  0  0  0  0  0  0  0  0  0  0
    9.1353   -5.4053   27.8239 C   0  0  0  0  0  0  0  0  0  0  0  0
    0.9922   -9.3232   16.5995 O   0  0  0  0  0  0  0  0  0  0  0  0
    1.5232   -7.6869   27.1182 C   0  0  0  0  0  0  0  0  0  0  0  0
    8.6878   -6.6715   27.7262 N   0  0  0  0  0  0  0  0  0  0  0  0
    6.9911   -8.2423   27.1808 C   0  0  0  0  0  0  0  0  0  0  0  0
    3.8436   -7.2758   16.0578 C   0  0  0  0  0  0  0  0  0  0  0  0
    3.1882   -9.7190   17.2566 C   0  0  0  0  0  0  0  0  0  0  0  0
    5.3488   -6.1737   26.5092 C   0  0  0  0  0  0  0  0  0  0  0  0
    7.4567   -6.9464   27.2858 C   0  0  0  0  0  0  0  0  0  0  0  0
    0.1921   -5.7592   27.1123 C   0  0  0  0  0  0  0  0  0  0  0  0
    3.5517   -7.7407   25.9711 C   0  0  0  0  0  0  0  0  0  0  0  0
  1  4  4  0
  1 22  4  0
  2 20  4  0
  2 27  4  0
  3 12  4  0
  3 23  4  0
  4 25  4  0
  4 28  1  0
  5  8  4  0
  5 17  4  0
  6  7  4  0
  6 16  4  0
  7 18  4  0
  8 27  4  0
  9 13  4  0
  9 23  4  0
 10 11  1  0
 11 14  2  0
 11 27  1  0
 12 19  1  0
 12 24  4  0
 13 24  4  0
 15 18  1  0
 16 25  4  0
 16 26  4  0
 17 20  4  0
 17 28  1  0
 18 21  4  0
 21 26  4  0
 22 26  4  0
M  END
$$$$

 Created by Python create_sdf_string function

 28 30  0  0  0  0  0  0  0  0999 V2000
    5.7174   -8.4529   26.7190 C   0  0  0  0  0  0  0  0  0  0  0  0
    0.3974   -7.0711   27.5149 C   0  0  0  0  0  0  0  0  0  0  0  0
    2.5338   -7.6891   16.0102 C   0  0  0  0  0  0  0  0  0  0  0  0
    4.8690   -7.4380   26.4151 C   0  0  0  0  0  0  0  0  0  0  0  0
    2.3021   -5.6726   26.0378 C   0  0  0  0  0  0  0  0  0  0  0  0
    7.0880   -4.6163   27.0010 C   0  0  0  0  0  0  0  0  0  0  0  0
    8.3117   -4.3698   27.4436 C   0  0  0  0  0  0  0  0  0  0  0  0
    1.1339   -5.0515   26.3541 C   0  0  0  0  0  0  0  0  0  0  0  0
    4.8080   -8.0362   16.7101 C   0  0  0  0  0  0  0  0  0  0  0  0
   -1.2173   -3.9294   26.9717 O   0  0  0  0  0  0  0  0  0  0  0  0
   -1.0025   -5.0942   27.4586 C   0  0  0  0  0  0  0  0  0  0  0  0
    2.2474   -8.9123   16.6273 C   0  0  0  0  0  0  0  0  0  0  0  0
    4.4957   -9.2636   17.3041 C   0  0  0  0  0  0  0  0  0  0  0  0
   -1.8070   -5.6086   28.1920 O   0  0  0  0  0  0  0  0  0  0  0  0
   10.4296   -5.1799   28.3140 C   0  0  0  0  0  0  0  0  0  0  0  0
    6.6017   -5.9004   26.9187 C   0  0  0  0  0  0  0  0  0  0  0  0
    2.4761   -6.9940   26.4111 N   0  0  0  0  0  0  0  0  0  0  0  0
    9.1353   -5.4053   27.8239 C   0  0  0  0  0  0  0  0  0  0  0  0
    0.9922   -9.3232   16.5995 O   0  0  0  0  0  0  0  0  0  0  0  0
    1.5232   -7.6869   27.1182 C   0  0  0  0  0  0  0  0  0  0  0  0
    8.6878   -6.6715   27.7262 N   0  0  0  0  0  0  0  0  0  0  0  0
    6.9911   -8.2423   27.1808 C   0  0  0  0  0  0  0  0  0  0  0  0
    3.8436   -7.2758   16.0578 C   0  0  0  0  0  0  0  0  0  0  0  0
    3.1882   -9.7190   17.2566 C   0  0  0  0  0  0  0  0  0  0  0  0
    5.3488   -6.1737   26.5092 C   0  0  0  0  0  0  0  0  0  0  0  0
    7.4567   -6.9464   27.2858 C   0  0  0  0  0  0  0  0  0  0  0  0
    0.1921   -5.7592   27.1123 C   0  0  0  0  0  0  0  0  0  0  0  0
    3.5517   -7.7407   25.9711 C   0  0  0  0  0  0  0  0  0  0  0  0
  1  4  4  0
  1 22  4  0
  2 20  4  0
  2 27  4  0
  3 12  4  0
  3 23  4  0
  4 25  4  0
  4 28  1  0
  5  8  4  0
  5 17  4  0
  6  7  4  0
  6 16  4  0
  7 18  4  0
  8 27  4  0
  9 13  4  0
  9 23  4  0
 10 11  1  0
 11 14  2  0
 11 27  1  0
 12 19  1  0
 12 24  4  0
 13 24  4  0
 15 18  1  0
 16 25  4  0
 16 26  4  0
 17 20  4  0
 17 28  1  0
 18 21  4  0
 21 26  4  0
 22 26  4  0
M  END
$$$$

 Created by Python create_sdf_string function

 28 30  0  0  0  0  0  0  0  0999 V2000
    5.7174   -8.4529   26.7190 C   0  0  0  0  0  0  0  0  0  0  0  0
    0.3974   -7.0711   27.5149 C   0  0  0  0  0  0  0  0  0  0  0  0
    2.5338   -7.6891   16.0102 C   0  0  0  0  0  0  0  0  0  0  0  0
    4.8690   -7.4380   26.4151 C   0  0  0  0  0  0  0  0  0  0  0  0
    2.3021   -5.6726   26.0378 C   0  0  0  0  0  0  0  0  0  0  0  0
    7.0880   -4.6163   27.0010 C   0  0  0  0  0  0  0  0  0  0  0  0
    8.3117   -4.3698   27.4436 C   0  0  0  0  0  0  0  0  0  0  0  0
    1.1339   -5.0515   26.3541 C   0  0  0  0  0  0  0  0  0  0  0  0
    4.8080   -8.0362   16.7101 C   0  0  0  0  0  0  0  0  0  0  0  0
   -1.2173   -3.9294   26.9717 O   0  0  0  0  0  0  0  0  0  0  0  0
   -1.0025   -5.0942   27.4586 C   0  0  0  0  0  0  0  0  0  0  0  0
    2.2474   -8.9123   16.6273 C   0  0  0  0  0  0  0  0  0  0  0  0
    4.4957   -9.2636   17.3041 C   0  0  0  0  0  0  0  0  0  0  0  0
   -1.8070   -5.6086   28.1920 O   0  0  0  0  0  0  0  0  0  0  0  0
   10.4296   -5.1799   28.3140 C   0  0  0  0  0  0  0  0  0  0  0  0
    6.6017   -5.9004   26.9187 C   0  0  0  0  0  0  0  0  0  0  0  0
    2.4761   -6.9940   26.4111 N   0  0  0  0  0  0  0  0  0  0  0  0
    9.1353   -5.4053   27.8239 C   0  0  0  0  0  0  0  0  0  0  0  0
    0.9922   -9.3232   16.5995 O   0  0  0  0  0  0  0  0  0  0  0  0
    1.5232   -7.6869   27.1182 C   0  0  0  0  0  0  0  0  0  0  0  0
    8.6878   -6.6715   27.7262 N   0  0  0  0  0  0  0  0  0  0  0  0
    6.9911   -8.2423   27.1808 C   0  0  0  0  0  0  0  0  0  0  0  0
    3.8436   -7.2758   16.0578 C   0  0  0  0  0  0  0  0  0  0  0  0
    3.1882   -9.7190   17.2566 C   0  0  0  0  0  0  0  0  0  0  0  0
    5.3488   -6.1737   26.5092 C   0  0  0  0  0  0  0  0  0  0  0  0
    7.4567   -6.9464   27.2858 C   0  0  0  0  0  0  0  0  0  0  0  0
    0.1921   -5.7592   27.1123 C   0  0  0  0  0  0  0  0  0  0  0  0
    3.5517   -7.7407   25.9711 C   0  0  0  0  0  0  0  0  0  0  0  0
  1  4  4  0
  1 22  4  0
  2 20  4  0
  2 27  4  0
  3 12  4  0
  3 23  4  0
  4 25  4  0
  4 28  1  0
  5  8  4  0
  5 17  4  0
  6  7  4  0
  6 16  4  0
  7 18  4  0
  8 27  4  0
  9 13  4  0
  9 23  4  0
 10 11  1  0
 11 14  2  0
 11 27  1  0
 12 19  1  0
 12 24  4  0
 13 24  4  0
 15 18  1  0
 16 25  4  0
 16 26  4  0
 17 20  4  0
 17 28  1  0
 18 21  4  0
 21 26  4  0
 22 26  4  0
M  END
$$$$

 Created by Python create_sdf_string function

 28 30  0  0  0  0  0  0  0  0999 V2000
    5.7174   -8.4529   26.7190 C   0  0  0  0  0  0  0  0  0  0  0  0
    0.3974   -7.0711   27.5149 C   0  0  0  0  0  0  0  0  0  0  0  0
    2.5338   -7.6891   16.0102 C   0  0  0  0  0  0  0  0  0  0  0  0
    4.8690   -7.4380   26.4151 C   0  0  0  0  0  0  0  0  0  0  0  0
    2.3021   -5.6726   26.0378 C   0  0  0  0  0  0  0  0  0  0  0  0
    7.0880   -4.6163   27.0010 C   0  0  0  0  0  0  0  0  0  0  0  0
    8.3117   -4.3698   27.4436 C   0  0  0  0  0  0  0  0  0  0  0  0
    1.1339   -5.0515   26.3541 C   0  0  0  0  0  0  0  0  0  0  0  0
    4.8080   -8.0362   16.7101 C   0  0  0  0  0  0  0  0  0  0  0  0
   -1.2173   -3.9294   26.9717 O   0  0  0  0  0  0  0  0  0  0  0  0
   -1.0025   -5.0942   27.4586 C   0  0  0  0  0  0  0  0  0  0  0  0
    2.2474   -8.9123   16.6273 C   0  0  0  0  0  0  0  0  0  0  0  0
    4.4957   -9.2636   17.3041 C   0  0  0  0  0  0  0  0  0  0  0  0
   -1.8070   -5.6086   28.1920 O   0  0  0  0  0  0  0  0  0  0  0  0
   10.4296   -5.1799   28.3140 C   0  0  0  0  0  0  0  0  0  0  0  0
    6.6017   -5.9004   26.9187 C   0  0  0  0  0  0  0  0  0  0  0  0
    2.4761   -6.9940   26.4111 N   0  0  0  0  0  0  0  0  0  0  0  0
    9.1353   -5.4053   27.8239 C   0  0  0  0  0  0  0  0  0  0  0  0
    0.9922   -9.3232   16.5995 O   0  0  0  0  0  0  0  0  0  0  0  0
    1.5232   -7.6869   27.1182 C   0  0  0  0  0  0  0  0  0  0  0  0
    8.6878   -6.6715   27.7262 N   0  0  0  0  0  0  0  0  0  0  0  0
    6.9911   -8.2423   27.1808 C   0  0  0  0  0  0  0  0  0  0  0  0
    3.8436   -7.2758   16.0578 C   0  0  0  0  0  0  0  0  0  0  0  0
    3.1882   -9.7190   17.2566 C   0  0  0  0  0  0  0  0  0  0  0  0
    5.3488   -6.1737   26.5092 C   0  0  0  0  0  0  0  0  0  0  0  0
    7.4567   -6.9464   27.2858 C   0  0  0  0  0  0  0  0  0  0  0  0
    0.1921   -5.7592   27.1123 C   0  0  0  0  0  0  0  0  0  0  0  0
    3.5517   -7.7407   25.9711 C   0  0  0  0  0  0  0  0  0  0  0  0
  1  4  4  0
  1 22  4  0
  2 20  4  0
  2 27  4  0
  3 12  4  0
  3 23  4  0
  4 25  4  0
  4 28  1  0
  5  8  4  0
  5 17  4  0
  6  7  4  0
  6 16  4  0
  7 18  4  0
  8 27  4  0
  9 13  4  0
  9 23  4  0
 10 11  1  0
 11 14  2  0
 11 27  1  0
 12 19  1  0
 12 24  4  0
 13 24  4  0
 15 18  1  0
 16 25  4  0
 16 26  4  0
 17 20  4  0
 17 28  1  0
 18 21  4  0
 21 26  4  0
 22 26  4  0
M  END
$$$$

 Created by Python create_sdf_string function

 28 30  0  0  0  0  0  0  0  0999 V2000
    5.7174   -8.4529   26.7190 C   0  0  0  0  0  0  0  0  0  0  0  0
    0.3974   -7.0711   27.5149 C   0  0  0  0  0  0  0  0  0  0  0  0
    2.5338   -7.6891   16.0102 C   0  0  0  0  0  0  0  0  0  0  0  0
    4.8690   -7.4380   26.4151 C   0  0  0  0  0  0  0  0  0  0  0  0
    2.3021   -5.6726   26.0378 C   0  0  0  0  0  0  0  0  0  0  0  0
    7.0880   -4.6163   27.0010 C   0  0  0  0  0  0  0  0  0  0  0  0
    8.3117   -4.3698   27.4436 C   0  0  0  0  0  0  0  0  0  0  0  0
    1.1339   -5.0515   26.3541 C   0  0  0  0  0  0  0  0  0  0  0  0
    4.8080   -8.0362   16.7101 C   0  0  0  0  0  0  0  0  0  0  0  0
   -1.2173   -3.9294   26.9717 O   0  0  0  0  0  0  0  0  0  0  0  0
   -1.0025   -5.0942   27.4586 C   0  0  0  0  0  0  0  0  0  0  0  0
    2.2474   -8.9123   16.6273 C   0  0  0  0  0  0  0  0  0  0  0  0
    4.4957   -9.2636   17.3041 C   0  0  0  0  0  0  0  0  0  0  0  0
   -1.8070   -5.6086   28.1920 O   0  0  0  0  0  0  0  0  0  0  0  0
   10.4296   -5.1799   28.3140 C   0  0  0  0  0  0  0  0  0  0  0  0
    6.6017   -5.9004   26.9187 C   0  0  0  0  0  0  0  0  0  0  0  0
    2.4761   -6.9940   26.4111 N   0  0  0  0  0  0  0  0  0  0  0  0
    9.1353   -5.4053   27.8239 C   0  0  0  0  0  0  0  0  0  0  0  0
    0.9922   -9.3232   16.5995 O   0  0  0  0  0  0  0  0  0  0  0  0
    1.5232   -7.6869   27.1182 C   0  0  0  0  0  0  0  0  0  0  0  0
    8.6878   -6.6715   27.7262 N   0  0  0  0  0  0  0  0  0  0  0  0
    6.9911   -8.2423   27.1808 C   0  0  0  0  0  0  0  0  0  0  0  0
    3.8436   -7.2758   16.0578 C   0  0  0  0  0  0  0  0  0  0  0  0
    3.1882   -9.7190   17.2566 C   0  0  0  0  0  0  0  0  0  0  0  0
    5.3488   -6.1737   26.5092 C   0  0  0  0  0  0  0  0  0  0  0  0
    7.4567   -6.9464   27.2858 C   0  0  0  0  0  0  0  0  0  0  0  0
    0.1921   -5.7592   27.1123 C   0  0  0  0  0  0  0  0  0  0  0  0
    3.5517   -7.7407   25.9711 C   0  0  0  0  0  0  0  0  0  0  0  0
  1  4  4  0
  1 22  4  0
  2 20  4  0
  2 27  4  0
  3 12  4  0
  3 23  4  0
  4 25  4  0
  4 28  1  0
  5  8  4  0
  5 17  4  0
  6  7  4  0
  6 16  4  0
  7 18  4  0
  8 27  4  0
  9 13  4  0
  9 23  4  0
 10 11  1  0
 11 14  2  0
 11 27  1  0
 12 19  1  0
 12 24  4  0
 13 24  4  0
 15 18  1  0
 16 25  4  0
 16 26  4  0
 17 20  4  0
 17 28  1  0
 18 21  4  0
 21 26  4  0
 22 26  4  0
M  END
$$$$

 Created by Python create_sdf_string function

 28 30  0  0  0  0  0  0  0  0999 V2000
    5.7174   -8.4529   26.7190 C   0  0  0  0  0  0  0  0  0  0  0  0
    0.3974   -7.0711   27.5149 C   0  0  0  0  0  0  0  0  0  0  0  0
    2.5338   -7.6891   16.0102 C   0  0  0  0  0  0  0  0  0  0  0  0
    4.8690   -7.4380   26.4151 C   0  0  0  0  0  0  0  0  0  0  0  0
    2.3021   -5.6726   26.0378 C   0  0  0  0  0  0  0  0  0  0  0  0
    7.0880   -4.6163   27.0010 C   0  0  0  0  0  0  0  0  0  0  0  0
    8.3117   -4.3698   27.4436 C   0  0  0  0  0  0  0  0  0  0  0  0
    1.1339   -5.0515   26.3541 C   0  0  0  0  0  0  0  0  0  0  0  0
    4.8080   -8.0362   16.7101 C   0  0  0  0  0  0  0  0  0  0  0  0
   -1.2173   -3.9294   26.9717 O   0  0  0  0  0  0  0  0  0  0  0  0
   -1.0025   -5.0942   27.4586 C   0  0  0  0  0  0  0  0  0  0  0  0
    2.2474   -8.9123   16.6273 C   0  0  0  0  0  0  0  0  0  0  0  0
    4.4957   -9.2636   17.3041 C   0  0  0  0  0  0  0  0  0  0  0  0
   -1.8070   -5.6086   28.1920 O   0  0  0  0  0  0  0  0  0  0  0  0
   10.4296   -5.1799   28.3140 C   0  0  0  0  0  0  0  0  0  0  0  0
    6.6017   -5.9004   26.9187 C   0  0  0  0  0  0  0  0  0  0  0  0
    2.4761   -6.9940   26.4111 N   0  0  0  0  0  0  0  0  0  0  0  0
    9.1353   -5.4053   27.8239 C   0  0  0  0  0  0  0  0  0  0  0  0
    0.9922   -9.3232   16.5995 O   0  0  0  0  0  0  0  0  0  0  0  0
    1.5232   -7.6869   27.1182 C   0  0  0  0  0  0  0  0  0  0  0  0
    8.6878   -6.6715   27.7262 N   0  0  0  0  0  0  0  0  0  0  0  0
    6.9911   -8.2423   27.1808 C   0  0  0  0  0  0  0  0  0  0  0  0
    3.8436   -7.2758   16.0578 C   0  0  0  0  0  0  0  0  0  0  0  0
    3.1882   -9.7190   17.2566 C   0  0  0  0  0  0  0  0  0  0  0  0
    5.3488   -6.1737   26.5092 C   0  0  0  0  0  0  0  0  0  0  0  0
    7.4567   -6.9464   27.2858 C   0  0  0  0  0  0  0  0  0  0  0  0
    0.1921   -5.7592   27.1123 C   0  0  0  0  0  0  0  0  0  0  0  0
    3.5517   -7.7407   25.9711 C   0  0  0  0  0  0  0  0  0  0  0  0
  1  4  4  0
  1 22  4  0
  2 20  4  0
  2 27  4  0
  3 12  4  0
  3 23  4  0
  4 25  4  0
  4 28  1  0
  5  8  4  0
  5 17  4  0
  6  7  4  0
  6 16  4  0
  7 18  4  0
  8 27  4  0
  9 13  4  0
  9 23  4  0
 10 11  1  0
 11 14  2  0
 11 27  1  0
 12 19  1  0
 12 24  4  0
 13 24  4  0
 15 18  1  0
 16 25  4  0
 16 26  4  0
 17 20  4  0
 17 28  1  0
 18 21  4  0
 21 26  4  0
 22 26  4  0
M  END
$$$$

 Created by Python create_sdf_string function

 28 30  0  0  0  0  0  0  0  0999 V2000
    5.7174   -8.4529   26.7190 C   0  0  0  0  0  0  0  0  0  0  0  0
    0.3974   -7.0711   27.5149 C   0  0  0  0  0  0  0  0  0  0  0  0
    2.5338   -7.6891   16.0102 C   0  0  0  0  0  0  0  0  0  0  0  0
    4.8690   -7.4380   26.4151 C   0  0  0  0  0  0  0  0  0  0  0  0
    2.3021   -5.6726   26.0378 C   0  0  0  0  0  0  0  0  0  0  0  0
    7.0880   -4.6163   27.0010 C   0  0  0  0  0  0  0  0  0  0  0  0
    8.3117   -4.3698   27.4436 C   0  0  0  0  0  0  0  0  0  0  0  0
    1.1339   -5.0515   26.3541 C   0  0  0  0  0  0  0  0  0  0  0  0
    4.8080   -8.0362   16.7101 C   0  0  0  0  0  0  0  0  0  0  0  0
   -1.2173   -3.9294   26.9717 O   0  0  0  0  0  0  0  0  0  0  0  0
   -1.0025   -5.0942   27.4586 C   0  0  0  0  0  0  0  0  0  0  0  0
    2.2474   -8.9123   16.6273 C   0  0  0  0  0  0  0  0  0  0  0  0
    4.4957   -9.2636   17.3041 C   0  0  0  0  0  0  0  0  0  0  0  0
   -1.8070   -5.6086   28.1920 O   0  0  0  0  0  0  0  0  0  0  0  0
   10.4296   -5.1799   28.3140 C   0  0  0  0  0  0  0  0  0  0  0  0
    6.6017   -5.9004   26.9187 C   0  0  0  0  0  0  0  0  0  0  0  0
    2.4761   -6.9940   26.4111 N   0  0  0  0  0  0  0  0  0  0  0  0
    9.1353   -5.4053   27.8239 C   0  0  0  0  0  0  0  0  0  0  0  0
    0.9922   -9.3232   16.5995 O   0  0  0  0  0  0  0  0  0  0  0  0
    1.5232   -7.6869   27.1182 C   0  0  0  0  0  0  0  0  0  0  0  0
    8.6878   -6.6715   27.7262 N   0  0  0  0  0  0  0  0  0  0  0  0
    6.9911   -8.2423   27.1808 C   0  0  0  0  0  0  0  0  0  0  0  0
    3.8436   -7.2758   16.0578 C   0  0  0  0  0  0  0  0  0  0  0  0
    3.1882   -9.7190   17.2566 C   0  0  0  0  0  0  0  0  0  0  0  0
    5.3488   -6.1737   26.5092 C   0  0  0  0  0  0  0  0  0  0  0  0
    7.4567   -6.9464   27.2858 C   0  0  0  0  0  0  0  0  0  0  0  0
    0.1921   -5.7592   27.1123 C   0  0  0  0  0  0  0  0  0  0  0  0
    3.5517   -7.7407   25.9711 C   0  0  0  0  0  0  0  0  0  0  0  0
  1  4  4  0
  1 22  4  0
  2 20  4  0
  2 27  4  0
  3 12  4  0
  3 23  4  0
  4 25  4  0
  4 28  1  0
  5  8  4  0
  5 17  4  0
  6  7  4  0
  6 16  4  0
  7 18  4  0
  8 27  4  0
  9 13  4  0
  9 23  4  0
 10 11  1  0
 11 14  2  0
 11 27  1  0
 12 19  1  0
 12 24  4  0
 13 24  4  0
 15 18  1  0
 16 25  4  0
 16 26  4  0
 17 20  4  0
 17 28  1  0
 18 21  4  0
 21 26  4  0
 22 26  4  0
M  END
$$$$

 Created by Python create_sdf_string function

 28 30  0  0  0  0  0  0  0  0999 V2000
    5.7174   -8.4529   26.7190 C   0  0  0  0  0  0  0  0  0  0  0  0
    0.3974   -7.0711   27.5149 C   0  0  0  0  0  0  0  0  0  0  0  0
    2.5338   -7.6891   16.0102 C   0  0  0  0  0  0  0  0  0  0  0  0
    4.8690   -7.4380   26.4151 C   0  0  0  0  0  0  0  0  0  0  0  0
    2.3021   -5.6726   26.0378 C   0  0  0  0  0  0  0  0  0  0  0  0
    7.0880   -4.6163   27.0010 C   0  0  0  0  0  0  0  0  0  0  0  0
    8.3117   -4.3698   27.4436 C   0  0  0  0  0  0  0  0  0  0  0  0
    1.1339   -5.0515   26.3541 C   0  0  0  0  0  0  0  0  0  0  0  0
    4.8080   -8.0362   16.7101 C   0  0  0  0  0  0  0  0  0  0  0  0
   -1.2173   -3.9294   26.9717 O   0  0  0  0  0  0  0  0  0  0  0  0
   -1.0025   -5.0942   27.4586 C   0  0  0  0  0  0  0  0  0  0  0  0
    2.2474   -8.9123   16.6273 C   0  0  0  0  0  0  0  0  0  0  0  0
    4.4957   -9.2636   17.3041 C   0  0  0  0  0  0  0  0  0  0  0  0
   -1.8070   -5.6086   28.1920 O   0  0  0  0  0  0  0  0  0  0  0  0
   10.4296   -5.1799   28.3140 C   0  0  0  0  0  0  0  0  0  0  0  0
    6.6017   -5.9004   26.9187 C   0  0  0  0  0  0  0  0  0  0  0  0
    2.4761   -6.9940   26.4111 N   0  0  0  0  0  0  0  0  0  0  0  0
    9.1353   -5.4053   27.8239 C   0  0  0  0  0  0  0  0  0  0  0  0
    0.9922   -9.3232   16.5995 O   0  0  0  0  0  0  0  0  0  0  0  0
    1.5232   -7.6869   27.1182 C   0  0  0  0  0  0  0  0  0  0  0  0
    8.6878   -6.6715   27.7262 N   0  0  0  0  0  0  0  0  0  0  0  0
    6.9911   -8.2423   27.1808 C   0  0  0  0  0  0  0  0  0  0  0  0
    3.8436   -7.2758   16.0578 C   0  0  0  0  0  0  0  0  0  0  0  0
    3.1882   -9.7190   17.2566 C   0  0  0  0  0  0  0  0  0  0  0  0
    5.3488   -6.1737   26.5092 C   0  0  0  0  0  0  0  0  0  0  0  0
    7.4567   -6.9464   27.2858 C   0  0  0  0  0  0  0  0  0  0  0  0
    0.1921   -5.7592   27.1123 C   0  0  0  0  0  0  0  0  0  0  0  0
    3.5517   -7.7407   25.9711 C   0  0  0  0  0  0  0  0  0  0  0  0
  1  4  4  0
  1 22  4  0
  2 20  4  0
  2 27  4  0
  3 12  4  0
  3 23  4  0
  4 25  4  0
  4 28  1  0
  5  8  4  0
  5 17  4  0
  6  7  4  0
  6 16  4  0
  7 18  4  0
  8 27  4  0
  9 13  4  0
  9 23  4  0
 10 11  1  0
 11 14  2  0
 11 27  1  0
 12 19  1  0
 12 24  4  0
 13 24  4  0
 15 18  1  0
 16 25  4  0
 16 26  4  0
 17 20  4  0
 17 28  1  0
 18 21  4  0
 21 26  4  0
 22 26  4  0
M  END
$$$$

 Created by Python create_sdf_string function

 28 30  0  0  0  0  0  0  0  0999 V2000
    5.7174   -8.4529   26.7190 C   0  0  0  0  0  0  0  0  0  0  0  0
    0.3974   -7.0711   27.5149 C   0  0  0  0  0  0  0  0  0  0  0  0
    2.5338   -7.6891   16.0102 C   0  0  0  0  0  0  0  0  0  0  0  0
    4.8690   -7.4380   26.4151 C   0  0  0  0  0  0  0  0  0  0  0  0
    2.3021   -5.6726   26.0378 C   0  0  0  0  0  0  0  0  0  0  0  0
    7.0880   -4.6163   27.0010 C   0  0  0  0  0  0  0  0  0  0  0  0
    8.3117   -4.3698   27.4436 C   0  0  0  0  0  0  0  0  0  0  0  0
    1.1339   -5.0515   26.3541 C   0  0  0  0  0  0  0  0  0  0  0  0
    4.8080   -8.0362   16.7101 C   0  0  0  0  0  0  0  0  0  0  0  0
   -1.2173   -3.9294   26.9717 O   0  0  0  0  0  0  0  0  0  0  0  0
   -1.0025   -5.0942   27.4586 C   0  0  0  0  0  0  0  0  0  0  0  0
    2.2474   -8.9123   16.6273 C   0  0  0  0  0  0  0  0  0  0  0  0
    4.4957   -9.2636   17.3041 C   0  0  0  0  0  0  0  0  0  0  0  0
   -1.8070   -5.6086   28.1920 O   0  0  0  0  0  0  0  0  0  0  0  0
   10.4296   -5.1799   28.3140 C   0  0  0  0  0  0  0  0  0  0  0  0
    6.6017   -5.9004   26.9187 C   0  0  0  0  0  0  0  0  0  0  0  0
    2.4761   -6.9940   26.4111 N   0  0  0  0  0  0  0  0  0  0  0  0
    9.1353   -5.4053   27.8239 C   0  0  0  0  0  0  0  0  0  0  0  0
    0.9922   -9.3232   16.5995 O   0  0  0  0  0  0  0  0  0  0  0  0
    1.5232   -7.6869   27.1182 C   0  0  0  0  0  0  0  0  0  0  0  0
    8.6878   -6.6715   27.7262 N   0  0  0  0  0  0  0  0  0  0  0  0
    6.9911   -8.2423   27.1808 C   0  0  0  0  0  0  0  0  0  0  0  0
    3.8436   -7.2758   16.0578 C   0  0  0  0  0  0  0  0  0  0  0  0
    3.1882   -9.7190   17.2566 C   0  0  0  0  0  0  0  0  0  0  0  0
    5.3488   -6.1737   26.5092 C   0  0  0  0  0  0  0  0  0  0  0  0
    7.4567   -6.9464   27.2858 C   0  0  0  0  0  0  0  0  0  0  0  0
    0.1921   -5.7592   27.1123 C   0  0  0  0  0  0  0  0  0  0  0  0
    3.5517   -7.7407   25.9711 C   0  0  0  0  0  0  0  0  0  0  0  0
  1  4  4  0
  1 22  4  0
  2 20  4  0
  2 27  4  0
  3 12  4  0
  3 23  4  0
  4 25  4  0
  4 28  1  0
  5  8  4  0
  5 17  4  0
  6  7  4  0
  6 16  4  0
  7 18  4  0
  8 27  4  0
  9 13  4  0
  9 23  4  0
 10 11  1  0
 11 14  2  0
 11 27  1  0
 12 19  1  0
 12 24  4  0
 13 24  4  0
 15 18  1  0
 16 25  4  0
 16 26  4  0
 17 20  4  0
 17 28  1  0
 18 21  4  0
 21 26  4  0
 22 26  4  0
M  END
$$$$

 Created by Python create_sdf_string function

 28 30  0  0  0  0  0  0  0  0999 V2000
    5.7174   -8.4529   26.7190 C   0  0  0  0  0  0  0  0  0  0  0  0
    0.3974   -7.0711   27.5149 C   0  0  0  0  0  0  0  0  0  0  0  0
    2.5338   -7.6891   16.0102 C   0  0  0  0  0  0  0  0  0  0  0  0
    4.8690   -7.4380   26.4151 C   0  0  0  0  0  0  0  0  0  0  0  0
    2.3021   -5.6726   26.0378 C   0  0  0  0  0  0  0  0  0  0  0  0
    7.0880   -4.6163   27.0010 C   0  0  0  0  0  0  0  0  0  0  0  0
    8.3117   -4.3698   27.4436 C   0  0  0  0  0  0  0  0  0  0  0  0
    1.1339   -5.0515   26.3541 C   0  0  0  0  0  0  0  0  0  0  0  0
    4.8080   -8.0362   16.7101 C   0  0  0  0  0  0  0  0  0  0  0  0
   -1.2173   -3.9294   26.9717 O   0  0  0  0  0  0  0  0  0  0  0  0
   -1.0025   -5.0942   27.4586 C   0  0  0  0  0  0  0  0  0  0  0  0
    2.2474   -8.9123   16.6273 C   0  0  0  0  0  0  0  0  0  0  0  0
    4.4957   -9.2636   17.3041 C   0  0  0  0  0  0  0  0  0  0  0  0
   -1.8070   -5.6086   28.1920 O   0  0  0  0  0  0  0  0  0  0  0  0
   10.4296   -5.1799   28.3140 C   0  0  0  0  0  0  0  0  0  0  0  0
    6.6017   -5.9004   26.9187 C   0  0  0  0  0  0  0  0  0  0  0  0
    2.4761   -6.9940   26.4111 N   0  0  0  0  0  0  0  0  0  0  0  0
    9.1353   -5.4053   27.8239 C   0  0  0  0  0  0  0  0  0  0  0  0
    0.9922   -9.3232   16.5995 O   0  0  0  0  0  0  0  0  0  0  0  0
    1.5232   -7.6869   27.1182 C   0  0  0  0  0  0  0  0  0  0  0  0
    8.6878   -6.6715   27.7262 N   0  0  0  0  0  0  0  0  0  0  0  0
    6.9911   -8.2423   27.1808 C   0  0  0  0  0  0  0  0  0  0  0  0
    3.8436   -7.2758   16.0578 C   0  0  0  0  0  0  0  0  0  0  0  0
    3.1882   -9.7190   17.2566 C   0  0  0  0  0  0  0  0  0  0  0  0
    5.3488   -6.1737   26.5092 C   0  0  0  0  0  0  0  0  0  0  0  0
    7.4567   -6.9464   27.2858 C   0  0  0  0  0  0  0  0  0  0  0  0
    0.1921   -5.7592   27.1123 C   0  0  0  0  0  0  0  0  0  0  0  0
    3.5517   -7.7407   25.9711 C   0  0  0  0  0  0  0  0  0  0  0  0
  1  4  4  0
  1 22  4  0
  2 20  4  0
  2 27  4  0
  3 12  4  0
  3 23  4  0
  4 25  4  0
  4 28  1  0
  5  8  4  0
  5 17  4  0
  6  7  4  0
  6 16  4  0
  7 18  4  0
  8 27  4  0
  9 13  4  0
  9 23  4  0
 10 11  1  0
 11 14  2  0
 11 27  1  0
 12 19  1  0
 12 24  4  0
 13 24  4  0
 15 18  1  0
 16 25  4  0
 16 26  4  0
 17 20  4  0
 17 28  1  0
 18 21  4  0
 21 26  4  0
 22 26  4  0
M  END
$$$$

 Created by Python create_sdf_string function

 28 30  0  0  0  0  0  0  0  0999 V2000
    5.7174   -8.4529   26.7190 C   0  0  0  0  0  0  0  0  0  0  0  0
    0.3974   -7.0711   27.5149 C   0  0  0  0  0  0  0  0  0  0  0  0
    2.5338   -7.6891   16.0102 C   0  0  0  0  0  0  0  0  0  0  0  0
    4.8690   -7.4380   26.4151 C   0  0  0  0  0  0  0  0  0  0  0  0
    2.3021   -5.6726   26.0378 C   0  0  0  0  0  0  0  0  0  0  0  0
    7.0880   -4.6163   27.0010 C   0  0  0  0  0  0  0  0  0  0  0  0
    8.3117   -4.3698   27.4436 C   0  0  0  0  0  0  0  0  0  0  0  0
    1.1339   -5.0515   26.3541 C   0  0  0  0  0  0  0  0  0  0  0  0
    4.8080   -8.0362   16.7101 C   0  0  0  0  0  0  0  0  0  0  0  0
   -1.2173   -3.9294   26.9717 O   0  0  0  0  0  0  0  0  0  0  0  0
   -1.0025   -5.0942   27.4586 C   0  0  0  0  0  0  0  0  0  0  0  0
    2.2474   -8.9123   16.6273 C   0  0  0  0  0  0  0  0  0  0  0  0
    4.4957   -9.2636   17.3041 C   0  0  0  0  0  0  0  0  0  0  0  0
   -1.8070   -5.6086   28.1920 O   0  0  0  0  0  0  0  0  0  0  0  0
   10.4296   -5.1799   28.3140 C   0  0  0  0  0  0  0  0  0  0  0  0
    6.6017   -5.9004   26.9187 C   0  0  0  0  0  0  0  0  0  0  0  0
    2.4761   -6.9940   26.4111 N   0  0  0  0  0  0  0  0  0  0  0  0
    9.1353   -5.4053   27.8239 C   0  0  0  0  0  0  0  0  0  0  0  0
    0.9922   -9.3232   16.5995 O   0  0  0  0  0  0  0  0  0  0  0  0
    1.5232   -7.6869   27.1182 C   0  0  0  0  0  0  0  0  0  0  0  0
    8.6878   -6.6715   27.7262 N   0  0  0  0  0  0  0  0  0  0  0  0
    6.9911   -8.2423   27.1808 C   0  0  0  0  0  0  0  0  0  0  0  0
    3.8436   -7.2758   16.0578 C   0  0  0  0  0  0  0  0  0  0  0  0
    3.1882   -9.7190   17.2566 C   0  0  0  0  0  0  0  0  0  0  0  0
    5.3488   -6.1737   26.5092 C   0  0  0  0  0  0  0  0  0  0  0  0
    7.4567   -6.9464   27.2858 C   0  0  0  0  0  0  0  0  0  0  0  0
    0.1921   -5.7592   27.1123 C   0  0  0  0  0  0  0  0  0  0  0  0
    3.5517   -7.7407   25.9711 C   0  0  0  0  0  0  0  0  0  0  0  0
  1  4  4  0
  1 22  4  0
  2 20  4  0
  2 27  4  0
  3 12  4  0
  3 23  4  0
  4 25  4  0
  4 28  1  0
  5  8  4  0
  5 17  4  0
  6  7  4  0
  6 16  4  0
  7 18  4  0
  8 27  4  0
  9 13  4  0
  9 23  4  0
 10 11  1  0
 11 14  2  0
 11 27  1  0
 12 19  1  0
 12 24  4  0
 13 24  4  0
 15 18  1  0
 16 25  4  0
 16 26  4  0
 17 20  4  0
 17 28  1  0
 18 21  4  0
 21 26  4  0
 22 26  4  0
M  END
$$$$

 Created by Python create_sdf_string function

 28 30  0  0  0  0  0  0  0  0999 V2000
    5.7174   -8.4529   26.7190 C   0  0  0  0  0  0  0  0  0  0  0  0
    0.3974   -7.0711   27.5149 C   0  0  0  0  0  0  0  0  0  0  0  0
    2.5338   -7.6891   16.0102 C   0  0  0  0  0  0  0  0  0  0  0  0
    4.8690   -7.4380   26.4151 C   0  0  0  0  0  0  0  0  0  0  0  0
    2.3021   -5.6726   26.0378 C   0  0  0  0  0  0  0  0  0  0  0  0
    7.0880   -4.6163   27.0010 C   0  0  0  0  0  0  0  0  0  0  0  0
    8.3117   -4.3698   27.4436 C   0  0  0  0  0  0  0  0  0  0  0  0
    1.1339   -5.0515   26.3541 C   0  0  0  0  0  0  0  0  0  0  0  0
    4.8080   -8.0362   16.7101 C   0  0  0  0  0  0  0  0  0  0  0  0
   -1.2173   -3.9294   26.9717 O   0  0  0  0  0  0  0  0  0  0  0  0
   -1.0025   -5.0942   27.4586 C   0  0  0  0  0  0  0  0  0  0  0  0
    2.2474   -8.9123   16.6273 C   0  0  0  0  0  0  0  0  0  0  0  0
    4.4957   -9.2636   17.3041 C   0  0  0  0  0  0  0  0  0  0  0  0
   -1.8070   -5.6086   28.1920 O   0  0  0  0  0  0  0  0  0  0  0  0
   10.4296   -5.1799   28.3140 C   0  0  0  0  0  0  0  0  0  0  0  0
    6.6017   -5.9004   26.9187 C   0  0  0  0  0  0  0  0  0  0  0  0
    2.4761   -6.9940   26.4111 N   0  0  0  0  0  0  0  0  0  0  0  0
    9.1353   -5.4053   27.8239 C   0  0  0  0  0  0  0  0  0  0  0  0
    0.9922   -9.3232   16.5995 O   0  0  0  0  0  0  0  0  0  0  0  0
    1.5232   -7.6869   27.1182 C   0  0  0  0  0  0  0  0  0  0  0  0
    8.6878   -6.6715   27.7262 N   0  0  0  0  0  0  0  0  0  0  0  0
    6.9911   -8.2423   27.1808 C   0  0  0  0  0  0  0  0  0  0  0  0
    3.8436   -7.2758   16.0578 C   0  0  0  0  0  0  0  0  0  0  0  0
    3.1882   -9.7190   17.2566 C   0  0  0  0  0  0  0  0  0  0  0  0
    5.3488   -6.1737   26.5092 C   0  0  0  0  0  0  0  0  0  0  0  0
    7.4567   -6.9464   27.2858 C   0  0  0  0  0  0  0  0  0  0  0  0
    0.1921   -5.7592   27.1123 C   0  0  0  0  0  0  0  0  0  0  0  0
    3.5517   -7.7407   25.9711 C   0  0  0  0  0  0  0  0  0  0  0  0
  1  4  4  0
  1 22  4  0
  2 20  4  0
  2 27  4  0
  3 12  4  0
  3 23  4  0
  4 25  4  0
  4 28  1  0
  5  8  4  0
  5 17  4  0
  6  7  4  0
  6 16  4  0
  7 18  4  0
  8 27  4  0
  9 13  4  0
  9 23  4  0
 10 11  1  0
 11 14  2  0
 11 27  1  0
 12 19  1  0
 12 24  4  0
 13 24  4  0
 15 18  1  0
 16 25  4  0
 16 26  4  0
 17 20  4  0
 17 28  1  0
 18 21  4  0
 21 26  4  0
 22 26  4  0
M  END
$$$$

 Created by Python create_sdf_string function

 28 30  0  0  0  0  0  0  0  0999 V2000
    5.7174   -8.4529   26.7190 C   0  0  0  0  0  0  0  0  0  0  0  0
    0.3974   -7.0711   27.5149 C   0  0  0  0  0  0  0  0  0  0  0  0
    2.5338   -7.6891   16.0102 C   0  0  0  0  0  0  0  0  0  0  0  0
    4.8690   -7.4380   26.4151 C   0  0  0  0  0  0  0  0  0  0  0  0
    2.3021   -5.6726   26.0378 C   0  0  0  0  0  0  0  0  0  0  0  0
    7.0880   -4.6163   27.0010 C   0  0  0  0  0  0  0  0  0  0  0  0
    8.3117   -4.3698   27.4436 C   0  0  0  0  0  0  0  0  0  0  0  0
    1.1339   -5.0515   26.3541 C   0  0  0  0  0  0  0  0  0  0  0  0
    4.8080   -8.0362   16.7101 C   0  0  0  0  0  0  0  0  0  0  0  0
   -1.2173   -3.9294   26.9717 O   0  0  0  0  0  0  0  0  0  0  0  0
   -1.0025   -5.0942   27.4586 C   0  0  0  0  0  0  0  0  0  0  0  0
    2.2474   -8.9123   16.6273 C   0  0  0  0  0  0  0  0  0  0  0  0
    4.4957   -9.2636   17.3041 C   0  0  0  0  0  0  0  0  0  0  0  0
   -1.8070   -5.6086   28.1920 O   0  0  0  0  0  0  0  0  0  0  0  0
   10.4296   -5.1799   28.3140 C   0  0  0  0  0  0  0  0  0  0  0  0
    6.6017   -5.9004   26.9187 C   0  0  0  0  0  0  0  0  0  0  0  0
    2.4761   -6.9940   26.4111 N   0  0  0  0  0  0  0  0  0  0  0  0
    9.1353   -5.4053   27.8239 C   0  0  0  0  0  0  0  0  0  0  0  0
    0.9922   -9.3232   16.5995 O   0  0  0  0  0  0  0  0  0  0  0  0
    1.5232   -7.6869   27.1182 C   0  0  0  0  0  0  0  0  0  0  0  0
    8.6878   -6.6715   27.7262 N   0  0  0  0  0  0  0  0  0  0  0  0
    6.9911   -8.2423   27.1808 C   0  0  0  0  0  0  0  0  0  0  0  0
    3.8436   -7.2758   16.0578 C   0  0  0  0  0  0  0  0  0  0  0  0
    3.1882   -9.7190   17.2566 C   0  0  0  0  0  0  0  0  0  0  0  0
    5.3488   -6.1737   26.5092 C   0  0  0  0  0  0  0  0  0  0  0  0
    7.4567   -6.9464   27.2858 C   0  0  0  0  0  0  0  0  0  0  0  0
    0.1921   -5.7592   27.1123 C   0  0  0  0  0  0  0  0  0  0  0  0
    3.5517   -7.7407   25.9711 C   0  0  0  0  0  0  0  0  0  0  0  0
  1  4  4  0
  1 22  4  0
  2 20  4  0
  2 27  4  0
  3 12  4  0
  3 23  4  0
  4 25  4  0
  4 28  1  0
  5  8  4  0
  5 17  4  0
  6  7  4  0
  6 16  4  0
  7 18  4  0
  8 27  4  0
  9 13  4  0
  9 23  4  0
 10 11  1  0
 11 14  2  0
 11 27  1  0
 12 19  1  0
 12 24  4  0
 13 24  4  0
 15 18  1  0
 16 25  4  0
 16 26  4  0
 17 20  4  0
 17 28  1  0
 18 21  4  0
 21 26  4  0
 22 26  4  0
M  END
$$$$

 Created by Python create_sdf_string function

 28 30  0  0  0  0  0  0  0  0999 V2000
    5.7174   -8.4529   26.7190 C   0  0  0  0  0  0  0  0  0  0  0  0
    0.3974   -7.0711   27.5149 C   0  0  0  0  0  0  0  0  0  0  0  0
    2.5338   -7.6891   16.0102 C   0  0  0  0  0  0  0  0  0  0  0  0
    4.8690   -7.4380   26.4151 C   0  0  0  0  0  0  0  0  0  0  0  0
    2.3021   -5.6726   26.0378 C   0  0  0  0  0  0  0  0  0  0  0  0
    7.0880   -4.6163   27.0010 C   0  0  0  0  0  0  0  0  0  0  0  0
    8.3117   -4.3698   27.4436 C   0  0  0  0  0  0  0  0  0  0  0  0
    1.1339   -5.0515   26.3541 C   0  0  0  0  0  0  0  0  0  0  0  0
    4.8080   -8.0362   16.7101 C   0  0  0  0  0  0  0  0  0  0  0  0
   -1.2173   -3.9294   26.9717 O   0  0  0  0  0  0  0  0  0  0  0  0
   -1.0025   -5.0942   27.4586 C   0  0  0  0  0  0  0  0  0  0  0  0
    2.2474   -8.9123   16.6273 C   0  0  0  0  0  0  0  0  0  0  0  0
    4.4957   -9.2636   17.3041 C   0  0  0  0  0  0  0  0  0  0  0  0
   -1.8070   -5.6086   28.1920 O   0  0  0  0  0  0  0  0  0  0  0  0
   10.4296   -5.1799   28.3140 C   0  0  0  0  0  0  0  0  0  0  0  0
    6.6017   -5.9004   26.9187 C   0  0  0  0  0  0  0  0  0  0  0  0
    2.4761   -6.9940   26.4111 N   0  0  0  0  0  0  0  0  0  0  0  0
    9.1353   -5.4053   27.8239 C   0  0  0  0  0  0  0  0  0  0  0  0
    0.9922   -9.3232   16.5995 O   0  0  0  0  0  0  0  0  0  0  0  0
    1.5232   -7.6869   27.1182 C   0  0  0  0  0  0  0  0  0  0  0  0
    8.6878   -6.6715   27.7262 N   0  0  0  0  0  0  0  0  0  0  0  0
    6.9911   -8.2423   27.1808 C   0  0  0  0  0  0  0  0  0  0  0  0
    3.8436   -7.2758   16.0578 C   0  0  0  0  0  0  0  0  0  0  0  0
    3.1882   -9.7190   17.2566 C   0  0  0  0  0  0  0  0  0  0  0  0
    5.3488   -6.1737   26.5092 C   0  0  0  0  0  0  0  0  0  0  0  0
    7.4567   -6.9464   27.2858 C   0  0  0  0  0  0  0  0  0  0  0  0
    0.1921   -5.7592   27.1123 C   0  0  0  0  0  0  0  0  0  0  0  0
    3.5517   -7.7407   25.9711 C   0  0  0  0  0  0  0  0  0  0  0  0
  1  4  4  0
  1 22  4  0
  2 20  4  0
  2 27  4  0
  3 12  4  0
  3 23  4  0
  4 25  4  0
  4 28  1  0
  5  8  4  0
  5 17  4  0
  6  7  4  0
  6 16  4  0
  7 18  4  0
  8 27  4  0
  9 13  4  0
  9 23  4  0
 10 11  1  0
 11 14  2  0
 11 27  1  0
 12 19  1  0
 12 24  4  0
 13 24  4  0
 15 18  1  0
 16 25  4  0
 16 26  4  0
 17 20  4  0
 17 28  1  0
 18 21  4  0
 21 26  4  0
 22 26  4  0
M  END
$$$$

 Created by Python create_sdf_string function

 28 30  0  0  0  0  0  0  0  0999 V2000
    5.7174   -8.4529   26.7190 C   0  0  0  0  0  0  0  0  0  0  0  0
    0.3974   -7.0711   27.5149 C   0  0  0  0  0  0  0  0  0  0  0  0
    2.5338   -7.6891   16.0102 C   0  0  0  0  0  0  0  0  0  0  0  0
    4.8690   -7.4380   26.4151 C   0  0  0  0  0  0  0  0  0  0  0  0
    2.3021   -5.6726   26.0378 C   0  0  0  0  0  0  0  0  0  0  0  0
    7.0880   -4.6163   27.0010 C   0  0  0  0  0  0  0  0  0  0  0  0
    8.3117   -4.3698   27.4436 C   0  0  0  0  0  0  0  0  0  0  0  0
    1.1339   -5.0515   26.3541 C   0  0  0  0  0  0  0  0  0  0  0  0
    4.8080   -8.0362   16.7101 C   0  0  0  0  0  0  0  0  0  0  0  0
   -1.2173   -3.9294   26.9717 O   0  0  0  0  0  0  0  0  0  0  0  0
   -1.0025   -5.0942   27.4586 C   0  0  0  0  0  0  0  0  0  0  0  0
    2.2474   -8.9123   16.6273 C   0  0  0  0  0  0  0  0  0  0  0  0
    4.4957   -9.2636   17.3041 C   0  0  0  0  0  0  0  0  0  0  0  0
   -1.8070   -5.6086   28.1920 O   0  0  0  0  0  0  0  0  0  0  0  0
   10.4296   -5.1799   28.3140 C   0  0  0  0  0  0  0  0  0  0  0  0
    6.6017   -5.9004   26.9187 C   0  0  0  0  0  0  0  0  0  0  0  0
    2.4761   -6.9940   26.4111 N   0  0  0  0  0  0  0  0  0  0  0  0
    9.1353   -5.4053   27.8239 C   0  0  0  0  0  0  0  0  0  0  0  0
    0.9922   -9.3232   16.5995 O   0  0  0  0  0  0  0  0  0  0  0  0
    1.5232   -7.6869   27.1182 C   0  0  0  0  0  0  0  0  0  0  0  0
    8.6878   -6.6715   27.7262 N   0  0  0  0  0  0  0  0  0  0  0  0
    6.9911   -8.2423   27.1808 C   0  0  0  0  0  0  0  0  0  0  0  0
    3.8436   -7.2758   16.0578 C   0  0  0  0  0  0  0  0  0  0  0  0
    3.1882   -9.7190   17.2566 C   0  0  0  0  0  0  0  0  0  0  0  0
    5.3488   -6.1737   26.5092 C   0  0  0  0  0  0  0  0  0  0  0  0
    7.4567   -6.9464   27.2858 C   0  0  0  0  0  0  0  0  0  0  0  0
    0.1921   -5.7592   27.1123 C   0  0  0  0  0  0  0  0  0  0  0  0
    3.5517   -7.7407   25.9711 C   0  0  0  0  0  0  0  0  0  0  0  0
  1  4  4  0
  1 22  4  0
  2 20  4  0
  2 27  4  0
  3 12  4  0
  3 23  4  0
  4 25  4  0
  4 28  1  0
  5  8  4  0
  5 17  4  0
  6  7  4  0
  6 16  4  0
  7 18  4  0
  8 27  4  0
  9 13  4  0
  9 23  4  0
 10 11  1  0
 11 14  2  0
 11 27  1  0
 12 19  1  0
 12 24  4  0
 13 24  4  0
 15 18  1  0
 16 25  4  0
 16 26  4  0
 17 20  4  0
 17 28  1  0
 18 21  4  0
 21 26  4  0
 22 26  4  0
M  END
$$$$

 Created by Python create_sdf_string function

 28 30  0  0  0  0  0  0  0  0999 V2000
    5.7174   -8.4529   26.7190 C   0  0  0  0  0  0  0  0  0  0  0  0
    0.3974   -7.0711   27.5149 C   0  0  0  0  0  0  0  0  0  0  0  0
    2.5338   -7.6891   16.0102 C   0  0  0  0  0  0  0  0  0  0  0  0
    4.8690   -7.4380   26.4151 C   0  0  0  0  0  0  0  0  0  0  0  0
    2.3021   -5.6726   26.0378 C   0  0  0  0  0  0  0  0  0  0  0  0
    7.0880   -4.6163   27.0010 C   0  0  0  0  0  0  0  0  0  0  0  0
    8.3117   -4.3698   27.4436 C   0  0  0  0  0  0  0  0  0  0  0  0
    1.1339   -5.0515   26.3541 C   0  0  0  0  0  0  0  0  0  0  0  0
    4.8080   -8.0362   16.7101 C   0  0  0  0  0  0  0  0  0  0  0  0
   -1.2173   -3.9294   26.9717 O   0  0  0  0  0  0  0  0  0  0  0  0
   -1.0025   -5.0942   27.4586 C   0  0  0  0  0  0  0  0  0  0  0  0
    2.2474   -8.9123   16.6273 C   0  0  0  0  0  0  0  0  0  0  0  0
    4.4957   -9.2636   17.3041 C   0  0  0  0  0  0  0  0  0  0  0  0
   -1.8070   -5.6086   28.1920 O   0  0  0  0  0  0  0  0  0  0  0  0
   10.4296   -5.1799   28.3140 C   0  0  0  0  0  0  0  0  0  0  0  0
    6.6017   -5.9004   26.9187 C   0  0  0  0  0  0  0  0  0  0  0  0
    2.4761   -6.9940   26.4111 N   0  0  0  0  0  0  0  0  0  0  0  0
    9.1353   -5.4053   27.8239 C   0  0  0  0  0  0  0  0  0  0  0  0
    0.9922   -9.3232   16.5995 O   0  0  0  0  0  0  0  0  0  0  0  0
    1.5232   -7.6869   27.1182 C   0  0  0  0  0  0  0  0  0  0  0  0
    8.6878   -6.6715   27.7262 N   0  0  0  0  0  0  0  0  0  0  0  0
    6.9911   -8.2423   27.1808 C   0  0  0  0  0  0  0  0  0  0  0  0
    3.8436   -7.2758   16.0578 C   0  0  0  0  0  0  0  0  0  0  0  0
    3.1882   -9.7190   17.2566 C   0  0  0  0  0  0  0  0  0  0  0  0
    5.3488   -6.1737   26.5092 C   0  0  0  0  0  0  0  0  0  0  0  0
    7.4567   -6.9464   27.2858 C   0  0  0  0  0  0  0  0  0  0  0  0
    0.1921   -5.7592   27.1123 C   0  0  0  0  0  0  0  0  0  0  0  0
    3.5517   -7.7407   25.9711 C   0  0  0  0  0  0  0  0  0  0  0  0
  1  4  4  0
  1 22  4  0
  2 20  4  0
  2 27  4  0
  3 12  4  0
  3 23  4  0
  4 25  4  0
  4 28  1  0
  5  8  4  0
  5 17  4  0
  6  7  4  0
  6 16  4  0
  7 18  4  0
  8 27  4  0
  9 13  4  0
  9 23  4  0
 10 11  1  0
 11 14  2  0
 11 27  1  0
 12 19  1  0
 12 24  4  0
 13 24  4  0
 15 18  1  0
 16 25  4  0
 16 26  4  0
 17 20  4  0
 17 28  1  0
 18 21  4  0
 21 26  4  0
 22 26  4  0
M  END
$$$$

 Created by Python create_sdf_string function

 28 30  0  0  0  0  0  0  0  0999 V2000
    5.7174   -8.4529   26.7190 C   0  0  0  0  0  0  0  0  0  0  0  0
    0.3974   -7.0711   27.5149 C   0  0  0  0  0  0  0  0  0  0  0  0
    2.5338   -7.6891   16.0102 C   0  0  0  0  0  0  0  0  0  0  0  0
    4.8690   -7.4380   26.4151 C   0  0  0  0  0  0  0  0  0  0  0  0
    2.3021   -5.6726   26.0378 C   0  0  0  0  0  0  0  0  0  0  0  0
    7.0880   -4.6163   27.0010 C   0  0  0  0  0  0  0  0  0  0  0  0
    8.3117   -4.3698   27.4436 C   0  0  0  0  0  0  0  0  0  0  0  0
    1.1339   -5.0515   26.3541 C   0  0  0  0  0  0  0  0  0  0  0  0
    4.8080   -8.0362   16.7101 C   0  0  0  0  0  0  0  0  0  0  0  0
   -1.2173   -3.9294   26.9717 O   0  0  0  0  0  0  0  0  0  0  0  0
   -1.0025   -5.0942   27.4586 C   0  0  0  0  0  0  0  0  0  0  0  0
    2.2474   -8.9123   16.6273 C   0  0  0  0  0  0  0  0  0  0  0  0
    4.4957   -9.2636   17.3041 C   0  0  0  0  0  0  0  0  0  0  0  0
   -1.8070   -5.6086   28.1920 O   0  0  0  0  0  0  0  0  0  0  0  0
   10.4296   -5.1799   28.3140 C   0  0  0  0  0  0  0  0  0  0  0  0
    6.6017   -5.9004   26.9187 C   0  0  0  0  0  0  0  0  0  0  0  0
    2.4761   -6.9940   26.4111 N   0  0  0  0  0  0  0  0  0  0  0  0
    9.1353   -5.4053   27.8239 C   0  0  0  0  0  0  0  0  0  0  0  0
    0.9922   -9.3232   16.5995 O   0  0  0  0  0  0  0  0  0  0  0  0
    1.5232   -7.6869   27.1182 C   0  0  0  0  0  0  0  0  0  0  0  0
    8.6878   -6.6715   27.7262 N   0  0  0  0  0  0  0  0  0  0  0  0
    6.9911   -8.2423   27.1808 C   0  0  0  0  0  0  0  0  0  0  0  0
    3.8436   -7.2758   16.0578 C   0  0  0  0  0  0  0  0  0  0  0  0
    3.1882   -9.7190   17.2566 C   0  0  0  0  0  0  0  0  0  0  0  0
    5.3488   -6.1737   26.5092 C   0  0  0  0  0  0  0  0  0  0  0  0
    7.4567   -6.9464   27.2858 C   0  0  0  0  0  0  0  0  0  0  0  0
    0.1921   -5.7592   27.1123 C   0  0  0  0  0  0  0  0  0  0  0  0
    3.5517   -7.7407   25.9711 C   0  0  0  0  0  0  0  0  0  0  0  0
  1  4  4  0
  1 22  4  0
  2 20  4  0
  2 27  4  0
  3 12  4  0
  3 23  4  0
  4 25  4  0
  4 28  1  0
  5  8  4  0
  5 17  4  0
  6  7  4  0
  6 16  4  0
  7 18  4  0
  8 27  4  0
  9 13  4  0
  9 23  4  0
 10 11  1  0
 11 14  2  0
 11 27  1  0
 12 19  1  0
 12 24  4  0
 13 24  4  0
 15 18  1  0
 16 25  4  0
 16 26  4  0
 17 20  4  0
 17 28  1  0
 18 21  4  0
 21 26  4  0
 22 26  4  0
M  END
$$$$

 Created by Python create_sdf_string function

 28 30  0  0  0  0  0  0  0  0999 V2000
    5.7174   -8.4529   26.7190 C   0  0  0  0  0  0  0  0  0  0  0  0
    0.3974   -7.0711   27.5149 C   0  0  0  0  0  0  0  0  0  0  0  0
    2.5338   -7.6891   16.0102 C   0  0  0  0  0  0  0  0  0  0  0  0
    4.8690   -7.4380   26.4151 C   0  0  0  0  0  0  0  0  0  0  0  0
    2.3021   -5.6726   26.0378 C   0  0  0  0  0  0  0  0  0  0  0  0
    7.0880   -4.6163   27.0010 C   0  0  0  0  0  0  0  0  0  0  0  0
    8.3117   -4.3698   27.4436 C   0  0  0  0  0  0  0  0  0  0  0  0
    1.1339   -5.0515   26.3541 C   0  0  0  0  0  0  0  0  0  0  0  0
    4.8080   -8.0362   16.7101 C   0  0  0  0  0  0  0  0  0  0  0  0
   -1.2173   -3.9294   26.9717 O   0  0  0  0  0  0  0  0  0  0  0  0
   -1.0025   -5.0942   27.4586 C   0  0  0  0  0  0  0  0  0  0  0  0
    2.2474   -8.9123   16.6273 C   0  0  0  0  0  0  0  0  0  0  0  0
    4.4957   -9.2636   17.3041 C   0  0  0  0  0  0  0  0  0  0  0  0
   -1.8070   -5.6086   28.1920 O   0  0  0  0  0  0  0  0  0  0  0  0
   10.4296   -5.1799   28.3140 C   0  0  0  0  0  0  0  0  0  0  0  0
    6.6017   -5.9004   26.9187 C   0  0  0  0  0  0  0  0  0  0  0  0
    2.4761   -6.9940   26.4111 N   0  0  0  0  0  0  0  0  0  0  0  0
    9.1353   -5.4053   27.8239 C   0  0  0  0  0  0  0  0  0  0  0  0
    0.9922   -9.3232   16.5995 O   0  0  0  0  0  0  0  0  0  0  0  0
    1.5232   -7.6869   27.1182 C   0  0  0  0  0  0  0  0  0  0  0  0
    8.6878   -6.6715   27.7262 N   0  0  0  0  0  0  0  0  0  0  0  0
    6.9911   -8.2423   27.1808 C   0  0  0  0  0  0  0  0  0  0  0  0
    3.8436   -7.2758   16.0578 C   0  0  0  0  0  0  0  0  0  0  0  0
    3.1882   -9.7190   17.2566 C   0  0  0  0  0  0  0  0  0  0  0  0
    5.3488   -6.1737   26.5092 C   0  0  0  0  0  0  0  0  0  0  0  0
    7.4567   -6.9464   27.2858 C   0  0  0  0  0  0  0  0  0  0  0  0
    0.1921   -5.7592   27.1123 C   0  0  0  0  0  0  0  0  0  0  0  0
    3.5517   -7.7407   25.9711 C   0  0  0  0  0  0  0  0  0  0  0  0
  1  4  4  0
  1 22  4  0
  2 20  4  0
  2 27  4  0
  3 12  4  0
  3 23  4  0
  4 25  4  0
  4 28  1  0
  5  8  4  0
  5 17  4  0
  6  7  4  0
  6 16  4  0
  7 18  4  0
  8 27  4  0
  9 13  4  0
  9 23  4  0
 10 11  1  0
 11 14  2  0
 11 27  1  0
 12 19  1  0
 12 24  4  0
 13 24  4  0
 15 18  1  0
 16 25  4  0
 16 26  4  0
 17 20  4  0
 17 28  1  0
 18 21  4  0
 21 26  4  0
 22 26  4  0
M  END
$$$$

 Created by Python create_sdf_string function

 28 30  0  0  0  0  0  0  0  0999 V2000
    5.7174   -8.4529   26.7190 C   0  0  0  0  0  0  0  0  0  0  0  0
    0.3974   -7.0711   27.5149 C   0  0  0  0  0  0  0  0  0  0  0  0
    2.5338   -7.6891   16.0102 C   0  0  0  0  0  0  0  0  0  0  0  0
    4.8690   -7.4380   26.4151 C   0  0  0  0  0  0  0  0  0  0  0  0
    2.3021   -5.6726   26.0378 C   0  0  0  0  0  0  0  0  0  0  0  0
    7.0880   -4.6163   27.0010 C   0  0  0  0  0  0  0  0  0  0  0  0
    8.3117   -4.3698   27.4436 C   0  0  0  0  0  0  0  0  0  0  0  0
    1.1339   -5.0515   26.3541 C   0  0  0  0  0  0  0  0  0  0  0  0
    4.8080   -8.0362   16.7101 C   0  0  0  0  0  0  0  0  0  0  0  0
   -1.2173   -3.9294   26.9717 O   0  0  0  0  0  0  0  0  0  0  0  0
   -1.0025   -5.0942   27.4586 C   0  0  0  0  0  0  0  0  0  0  0  0
    2.2474   -8.9123   16.6273 C   0  0  0  0  0  0  0  0  0  0  0  0
    4.4957   -9.2636   17.3041 C   0  0  0  0  0  0  0  0  0  0  0  0
   -1.8070   -5.6086   28.1920 O   0  0  0  0  0  0  0  0  0  0  0  0
   10.4296   -5.1799   28.3140 C   0  0  0  0  0  0  0  0  0  0  0  0
    6.6017   -5.9004   26.9187 C   0  0  0  0  0  0  0  0  0  0  0  0
    2.4761   -6.9940   26.4111 N   0  0  0  0  0  0  0  0  0  0  0  0
    9.1353   -5.4053   27.8239 C   0  0  0  0  0  0  0  0  0  0  0  0
    0.9922   -9.3232   16.5995 O   0  0  0  0  0  0  0  0  0  0  0  0
    1.5232   -7.6869   27.1182 C   0  0  0  0  0  0  0  0  0  0  0  0
    8.6878   -6.6715   27.7262 N   0  0  0  0  0  0  0  0  0  0  0  0
    6.9911   -8.2423   27.1808 C   0  0  0  0  0  0  0  0  0  0  0  0
    3.8436   -7.2758   16.0578 C   0  0  0  0  0  0  0  0  0  0  0  0
    3.1882   -9.7190   17.2566 C   0  0  0  0  0  0  0  0  0  0  0  0
    5.3488   -6.1737   26.5092 C   0  0  0  0  0  0  0  0  0  0  0  0
    7.4567   -6.9464   27.2858 C   0  0  0  0  0  0  0  0  0  0  0  0
    0.1921   -5.7592   27.1123 C   0  0  0  0  0  0  0  0  0  0  0  0
    3.5517   -7.7407   25.9711 C   0  0  0  0  0  0  0  0  0  0  0  0
  1  4  4  0
  1 22  4  0
  2 20  4  0
  2 27  4  0
  3 12  4  0
  3 23  4  0
  4 25  4  0
  4 28  1  0
  5  8  4  0
  5 17  4  0
  6  7  4  0
  6 16  4  0
  7 18  4  0
  8 27  4  0
  9 13  4  0
  9 23  4  0
 10 11  1  0
 11 14  2  0
 11 27  1  0
 12 19  1  0
 12 24  4  0
 13 24  4  0
 15 18  1  0
 16 25  4  0
 16 26  4  0
 17 20  4  0
 17 28  1  0
 18 21  4  0
 21 26  4  0
 22 26  4  0
M  END
$$$$

 Created by Python create_sdf_string function

 28 30  0  0  0  0  0  0  0  0999 V2000
    5.7174   -8.4529   26.7190 C   0  0  0  0  0  0  0  0  0  0  0  0
    0.3974   -7.0711   27.5149 C   0  0  0  0  0  0  0  0  0  0  0  0
    2.5338   -7.6891   16.0102 C   0  0  0  0  0  0  0  0  0  0  0  0
    4.8690   -7.4380   26.4151 C   0  0  0  0  0  0  0  0  0  0  0  0
    2.3021   -5.6726   26.0378 C   0  0  0  0  0  0  0  0  0  0  0  0
    7.0880   -4.6163   27.0010 C   0  0  0  0  0  0  0  0  0  0  0  0
    8.3117   -4.3698   27.4436 C   0  0  0  0  0  0  0  0  0  0  0  0
    1.1339   -5.0515   26.3541 C   0  0  0  0  0  0  0  0  0  0  0  0
    4.8080   -8.0362   16.7101 C   0  0  0  0  0  0  0  0  0  0  0  0
   -1.2173   -3.9294   26.9717 O   0  0  0  0  0  0  0  0  0  0  0  0
   -1.0025   -5.0942   27.4586 C   0  0  0  0  0  0  0  0  0  0  0  0
    2.2474   -8.9123   16.6273 C   0  0  0  0  0  0  0  0  0  0  0  0
    4.4957   -9.2636   17.3041 C   0  0  0  0  0  0  0  0  0  0  0  0
   -1.8070   -5.6086   28.1920 O   0  0  0  0  0  0  0  0  0  0  0  0
   10.4296   -5.1799   28.3140 C   0  0  0  0  0  0  0  0  0  0  0  0
    6.6017   -5.9004   26.9187 C   0  0  0  0  0  0  0  0  0  0  0  0
    2.4761   -6.9940   26.4111 N   0  0  0  0  0  0  0  0  0  0  0  0
    9.1353   -5.4053   27.8239 C   0  0  0  0  0  0  0  0  0  0  0  0
    0.9922   -9.3232   16.5995 O   0  0  0  0  0  0  0  0  0  0  0  0
    1.5232   -7.6869   27.1182 C   0  0  0  0  0  0  0  0  0  0  0  0
    8.6878   -6.6715   27.7262 N   0  0  0  0  0  0  0  0  0  0  0  0
    6.9911   -8.2423   27.1808 C   0  0  0  0  0  0  0  0  0  0  0  0
    3.8436   -7.2758   16.0578 C   0  0  0  0  0  0  0  0  0  0  0  0
    3.1882   -9.7190   17.2566 C   0  0  0  0  0  0  0  0  0  0  0  0
    5.3488   -6.1737   26.5092 C   0  0  0  0  0  0  0  0  0  0  0  0
    7.4567   -6.9464   27.2858 C   0  0  0  0  0  0  0  0  0  0  0  0
    0.1921   -5.7592   27.1123 C   0  0  0  0  0  0  0  0  0  0  0  0
    3.5517   -7.7407   25.9711 C   0  0  0  0  0  0  0  0  0  0  0  0
  1  4  4  0
  1 22  4  0
  2 20  4  0
  2 27  4  0
  3 12  4  0
  3 23  4  0
  4 25  4  0
  4 28  1  0
  5  8  4  0
  5 17  4  0
  6  7  4  0
  6 16  4  0
  7 18  4  0
  8 27  4  0
  9 13  4  0
  9 23  4  0
 10 11  1  0
 11 14  2  0
 11 27  1  0
 12 19  1  0
 12 24  4  0
 13 24  4  0
 15 18  1  0
 16 25  4  0
 16 26  4  0
 17 20  4  0
 17 28  1  0
 18 21  4  0
 21 26  4  0
 22 26  4  0
M  END
$$$$

 Created by Python create_sdf_string function

 28 30  0  0  0  0  0  0  0  0999 V2000
    5.7174   -8.4529   26.7190 C   0  0  0  0  0  0  0  0  0  0  0  0
    0.3974   -7.0711   27.5149 C   0  0  0  0  0  0  0  0  0  0  0  0
    2.5338   -7.6891   16.0102 C   0  0  0  0  0  0  0  0  0  0  0  0
    4.8690   -7.4380   26.4151 C   0  0  0  0  0  0  0  0  0  0  0  0
    2.3021   -5.6726   26.0378 C   0  0  0  0  0  0  0  0  0  0  0  0
    7.0880   -4.6163   27.0010 C   0  0  0  0  0  0  0  0  0  0  0  0
    8.3117   -4.3698   27.4436 C   0  0  0  0  0  0  0  0  0  0  0  0
    1.1339   -5.0515   26.3541 C   0  0  0  0  0  0  0  0  0  0  0  0
    4.8080   -8.0362   16.7101 C   0  0  0  0  0  0  0  0  0  0  0  0
   -1.2173   -3.9294   26.9717 O   0  0  0  0  0  0  0  0  0  0  0  0
   -1.0025   -5.0942   27.4586 C   0  0  0  0  0  0  0  0  0  0  0  0
    2.2474   -8.9123   16.6273 C   0  0  0  0  0  0  0  0  0  0  0  0
    4.4957   -9.2636   17.3041 C   0  0  0  0  0  0  0  0  0  0  0  0
   -1.8070   -5.6086   28.1920 O   0  0  0  0  0  0  0  0  0  0  0  0
   10.4296   -5.1799   28.3140 C   0  0  0  0  0  0  0  0  0  0  0  0
    6.6017   -5.9004   26.9187 C   0  0  0  0  0  0  0  0  0  0  0  0
    2.4761   -6.9940   26.4111 N   0  0  0  0  0  0  0  0  0  0  0  0
    9.1353   -5.4053   27.8239 C   0  0  0  0  0  0  0  0  0  0  0  0
    0.9922   -9.3232   16.5995 O   0  0  0  0  0  0  0  0  0  0  0  0
    1.5232   -7.6869   27.1182 C   0  0  0  0  0  0  0  0  0  0  0  0
    8.6878   -6.6715   27.7262 N   0  0  0  0  0  0  0  0  0  0  0  0
    6.9911   -8.2423   27.1808 C   0  0  0  0  0  0  0  0  0  0  0  0
    3.8436   -7.2758   16.0578 C   0  0  0  0  0  0  0  0  0  0  0  0
    3.1882   -9.7190   17.2566 C   0  0  0  0  0  0  0  0  0  0  0  0
    5.3488   -6.1737   26.5092 C   0  0  0  0  0  0  0  0  0  0  0  0
    7.4567   -6.9464   27.2858 C   0  0  0  0  0  0  0  0  0  0  0  0
    0.1921   -5.7592   27.1123 C   0  0  0  0  0  0  0  0  0  0  0  0
    3.5517   -7.7407   25.9711 C   0  0  0  0  0  0  0  0  0  0  0  0
  1  4  4  0
  1 22  4  0
  2 20  4  0
  2 27  4  0
  3 12  4  0
  3 23  4  0
  4 25  4  0
  4 28  1  0
  5  8  4  0
  5 17  4  0
  6  7  4  0
  6 16  4  0
  7 18  4  0
  8 27  4  0
  9 13  4  0
  9 23  4  0
 10 11  1  0
 11 14  2  0
 11 27  1  0
 12 19  1  0
 12 24  4  0
 13 24  4  0
 15 18  1  0
 16 25  4  0
 16 26  4  0
 17 20  4  0
 17 28  1  0
 18 21  4  0
 21 26  4  0
 22 26  4  0
M  END
$$$$

 Created by Python create_sdf_string function

 28 30  0  0  0  0  0  0  0  0999 V2000
    5.7174   -8.4529   26.7190 C   0  0  0  0  0  0  0  0  0  0  0  0
    0.3974   -7.0711   27.5149 C   0  0  0  0  0  0  0  0  0  0  0  0
    2.5338   -7.6891   16.0102 C   0  0  0  0  0  0  0  0  0  0  0  0
    4.8690   -7.4380   26.4151 C   0  0  0  0  0  0  0  0  0  0  0  0
    2.3021   -5.6726   26.0378 C   0  0  0  0  0  0  0  0  0  0  0  0
    7.0880   -4.6163   27.0010 C   0  0  0  0  0  0  0  0  0  0  0  0
    8.3117   -4.3698   27.4436 C   0  0  0  0  0  0  0  0  0  0  0  0
    1.1339   -5.0515   26.3541 C   0  0  0  0  0  0  0  0  0  0  0  0
    4.8080   -8.0362   16.7101 C   0  0  0  0  0  0  0  0  0  0  0  0
   -1.2173   -3.9294   26.9717 O   0  0  0  0  0  0  0  0  0  0  0  0
   -1.0025   -5.0942   27.4586 C   0  0  0  0  0  0  0  0  0  0  0  0
    2.2474   -8.9123   16.6273 C   0  0  0  0  0  0  0  0  0  0  0  0
    4.4957   -9.2636   17.3041 C   0  0  0  0  0  0  0  0  0  0  0  0
   -1.8070   -5.6086   28.1920 O   0  0  0  0  0  0  0  0  0  0  0  0
   10.4296   -5.1799   28.3140 C   0  0  0  0  0  0  0  0  0  0  0  0
    6.6017   -5.9004   26.9187 C   0  0  0  0  0  0  0  0  0  0  0  0
    2.4761   -6.9940   26.4111 N   0  0  0  0  0  0  0  0  0  0  0  0
    9.1353   -5.4053   27.8239 C   0  0  0  0  0  0  0  0  0  0  0  0
    0.9922   -9.3232   16.5995 O   0  0  0  0  0  0  0  0  0  0  0  0
    1.5232   -7.6869   27.1182 C   0  0  0  0  0  0  0  0  0  0  0  0
    8.6878   -6.6715   27.7262 N   0  0  0  0  0  0  0  0  0  0  0  0
    6.9911   -8.2423   27.1808 C   0  0  0  0  0  0  0  0  0  0  0  0
    3.8436   -7.2758   16.0578 C   0  0  0  0  0  0  0  0  0  0  0  0
    3.1882   -9.7190   17.2566 C   0  0  0  0  0  0  0  0  0  0  0  0
    5.3488   -6.1737   26.5092 C   0  0  0  0  0  0  0  0  0  0  0  0
    7.4567   -6.9464   27.2858 C   0  0  0  0  0  0  0  0  0  0  0  0
    0.1921   -5.7592   27.1123 C   0  0  0  0  0  0  0  0  0  0  0  0
    3.5517   -7.7407   25.9711 C   0  0  0  0  0  0  0  0  0  0  0  0
  1  4  4  0
  1 22  4  0
  2 20  4  0
  2 27  4  0
  3 12  4  0
  3 23  4  0
  4 25  4  0
  4 28  1  0
  5  8  4  0
  5 17  4  0
  6  7  4  0
  6 16  4  0
  7 18  4  0
  8 27  4  0
  9 13  4  0
  9 23  4  0
 10 11  1  0
 11 14  2  0
 11 27  1  0
 12 19  1  0
 12 24  4  0
 13 24  4  0
 15 18  1  0
 16 25  4  0
 16 26  4  0
 17 20  4  0
 17 28  1  0
 18 21  4  0
 21 26  4  0
 22 26  4  0
M  END
$$$$

 Created by Python create_sdf_string function

 28 30  0  0  0  0  0  0  0  0999 V2000
    5.7174   -8.4529   26.7190 C   0  0  0  0  0  0  0  0  0  0  0  0
    0.3974   -7.0711   27.5149 C   0  0  0  0  0  0  0  0  0  0  0  0
    2.5338   -7.6891   16.0102 C   0  0  0  0  0  0  0  0  0  0  0  0
    4.8690   -7.4380   26.4151 C   0  0  0  0  0  0  0  0  0  0  0  0
    2.3021   -5.6726   26.0378 C   0  0  0  0  0  0  0  0  0  0  0  0
    7.0880   -4.6163   27.0010 C   0  0  0  0  0  0  0  0  0  0  0  0
    8.3117   -4.3698   27.4436 C   0  0  0  0  0  0  0  0  0  0  0  0
    1.1339   -5.0515   26.3541 C   0  0  0  0  0  0  0  0  0  0  0  0
    4.8080   -8.0362   16.7101 C   0  0  0  0  0  0  0  0  0  0  0  0
   -1.2173   -3.9294   26.9717 O   0  0  0  0  0  0  0  0  0  0  0  0
   -1.0025   -5.0942   27.4586 C   0  0  0  0  0  0  0  0  0  0  0  0
    2.2474   -8.9123   16.6273 C   0  0  0  0  0  0  0  0  0  0  0  0
    4.4957   -9.2636   17.3041 C   0  0  0  0  0  0  0  0  0  0  0  0
   -1.8070   -5.6086   28.1920 O   0  0  0  0  0  0  0  0  0  0  0  0
   10.4296   -5.1799   28.3140 C   0  0  0  0  0  0  0  0  0  0  0  0
    6.6017   -5.9004   26.9187 C   0  0  0  0  0  0  0  0  0  0  0  0
    2.4761   -6.9940   26.4111 N   0  0  0  0  0  0  0  0  0  0  0  0
    9.1353   -5.4053   27.8239 C   0  0  0  0  0  0  0  0  0  0  0  0
    0.9922   -9.3232   16.5995 O   0  0  0  0  0  0  0  0  0  0  0  0
    1.5232   -7.6869   27.1182 C   0  0  0  0  0  0  0  0  0  0  0  0
    8.6878   -6.6715   27.7262 N   0  0  0  0  0  0  0  0  0  0  0  0
    6.9911   -8.2423   27.1808 C   0  0  0  0  0  0  0  0  0  0  0  0
    3.8436   -7.2758   16.0578 C   0  0  0  0  0  0  0  0  0  0  0  0
    3.1882   -9.7190   17.2566 C   0  0  0  0  0  0  0  0  0  0  0  0
    5.3488   -6.1737   26.5092 C   0  0  0  0  0  0  0  0  0  0  0  0
    7.4567   -6.9464   27.2858 C   0  0  0  0  0  0  0  0  0  0  0  0
    0.1921   -5.7592   27.1123 C   0  0  0  0  0  0  0  0  0  0  0  0
    3.5517   -7.7407   25.9711 C   0  0  0  0  0  0  0  0  0  0  0  0
  1  4  4  0
  1 22  4  0
  2 20  4  0
  2 27  4  0
  3 12  4  0
  3 23  4  0
  4 25  4  0
  4 28  1  0
  5  8  4  0
  5 17  4  0
  6  7  4  0
  6 16  4  0
  7 18  4  0
  8 27  4  0
  9 13  4  0
  9 23  4  0
 10 11  1  0
 11 14  2  0
 11 27  1  0
 12 19  1  0
 12 24  4  0
 13 24  4  0
 15 18  1  0
 16 25  4  0
 16 26  4  0
 17 20  4  0
 17 28  1  0
 18 21  4  0
 21 26  4  0
 22 26  4  0
M  END
$$$$

 Created by Python create_sdf_string function

 28 30  0  0  0  0  0  0  0  0999 V2000
    5.7174   -8.4529   26.7190 C   0  0  0  0  0  0  0  0  0  0  0  0
    0.3974   -7.0711   27.5149 C   0  0  0  0  0  0  0  0  0  0  0  0
    2.5338   -7.6891   16.0102 C   0  0  0  0  0  0  0  0  0  0  0  0
    4.8690   -7.4380   26.4151 C   0  0  0  0  0  0  0  0  0  0  0  0
    2.3021   -5.6726   26.0378 C   0  0  0  0  0  0  0  0  0  0  0  0
    7.0880   -4.6163   27.0010 C   0  0  0  0  0  0  0  0  0  0  0  0
    8.3117   -4.3698   27.4436 C   0  0  0  0  0  0  0  0  0  0  0  0
    1.1339   -5.0515   26.3541 C   0  0  0  0  0  0  0  0  0  0  0  0
    4.8080   -8.0362   16.7101 C   0  0  0  0  0  0  0  0  0  0  0  0
   -1.2173   -3.9294   26.9717 O   0  0  0  0  0  0  0  0  0  0  0  0
   -1.0025   -5.0942   27.4586 C   0  0  0  0  0  0  0  0  0  0  0  0
    2.2474   -8.9123   16.6273 C   0  0  0  0  0  0  0  0  0  0  0  0
    4.4957   -9.2636   17.3041 C   0  0  0  0  0  0  0  0  0  0  0  0
   -1.8070   -5.6086   28.1920 O   0  0  0  0  0  0  0  0  0  0  0  0
   10.4296   -5.1799   28.3140 C   0  0  0  0  0  0  0  0  0  0  0  0
    6.6017   -5.9004   26.9187 C   0  0  0  0  0  0  0  0  0  0  0  0
    2.4761   -6.9940   26.4111 N   0  0  0  0  0  0  0  0  0  0  0  0
    9.1353   -5.4053   27.8239 C   0  0  0  0  0  0  0  0  0  0  0  0
    0.9922   -9.3232   16.5995 O   0  0  0  0  0  0  0  0  0  0  0  0
    1.5232   -7.6869   27.1182 C   0  0  0  0  0  0  0  0  0  0  0  0
    8.6878   -6.6715   27.7262 N   0  0  0  0  0  0  0  0  0  0  0  0
    6.9911   -8.2423   27.1808 C   0  0  0  0  0  0  0  0  0  0  0  0
    3.8436   -7.2758   16.0578 C   0  0  0  0  0  0  0  0  0  0  0  0
    3.1882   -9.7190   17.2566 C   0  0  0  0  0  0  0  0  0  0  0  0
    5.3488   -6.1737   26.5092 C   0  0  0  0  0  0  0  0  0  0  0  0
    7.4567   -6.9464   27.2858 C   0  0  0  0  0  0  0  0  0  0  0  0
    0.1921   -5.7592   27.1123 C   0  0  0  0  0  0  0  0  0  0  0  0
    3.5517   -7.7407   25.9711 C   0  0  0  0  0  0  0  0  0  0  0  0
  1  4  4  0
  1 22  4  0
  2 20  4  0
  2 27  4  0
  3 12  4  0
  3 23  4  0
  4 25  4  0
  4 28  1  0
  5  8  4  0
  5 17  4  0
  6  7  4  0
  6 16  4  0
  7 18  4  0
  8 27  4  0
  9 13  4  0
  9 23  4  0
 10 11  1  0
 11 14  2  0
 11 27  1  0
 12 19  1  0
 12 24  4  0
 13 24  4  0
 15 18  1  0
 16 25  4  0
 16 26  4  0
 17 20  4  0
 17 28  1  0
 18 21  4  0
 21 26  4  0
 22 26  4  0
M  END
$$$$

 Created by Python create_sdf_string function

 28 30  0  0  0  0  0  0  0  0999 V2000
    5.7174   -8.4529   26.7190 C   0  0  0  0  0  0  0  0  0  0  0  0
    0.3974   -7.0711   27.5149 C   0  0  0  0  0  0  0  0  0  0  0  0
    2.5338   -7.6891   16.0102 C   0  0  0  0  0  0  0  0  0  0  0  0
    4.8690   -7.4380   26.4151 C   0  0  0  0  0  0  0  0  0  0  0  0
    2.3021   -5.6726   26.0378 C   0  0  0  0  0  0  0  0  0  0  0  0
    7.0880   -4.6163   27.0010 C   0  0  0  0  0  0  0  0  0  0  0  0
    8.3117   -4.3698   27.4436 C   0  0  0  0  0  0  0  0  0  0  0  0
    1.1339   -5.0515   26.3541 C   0  0  0  0  0  0  0  0  0  0  0  0
    4.8080   -8.0362   16.7101 C   0  0  0  0  0  0  0  0  0  0  0  0
   -1.2173   -3.9294   26.9717 O   0  0  0  0  0  0  0  0  0  0  0  0
   -1.0025   -5.0942   27.4586 C   0  0  0  0  0  0  0  0  0  0  0  0
    2.2474   -8.9123   16.6273 C   0  0  0  0  0  0  0  0  0  0  0  0
    4.4957   -9.2636   17.3041 C   0  0  0  0  0  0  0  0  0  0  0  0
   -1.8070   -5.6086   28.1920 O   0  0  0  0  0  0  0  0  0  0  0  0
   10.4296   -5.1799   28.3140 C   0  0  0  0  0  0  0  0  0  0  0  0
    6.6017   -5.9004   26.9187 C   0  0  0  0  0  0  0  0  0  0  0  0
    2.4761   -6.9940   26.4111 N   0  0  0  0  0  0  0  0  0  0  0  0
    9.1353   -5.4053   27.8239 C   0  0  0  0  0  0  0  0  0  0  0  0
    0.9922   -9.3232   16.5995 O   0  0  0  0  0  0  0  0  0  0  0  0
    1.5232   -7.6869   27.1182 C   0  0  0  0  0  0  0  0  0  0  0  0
    8.6878   -6.6715   27.7262 N   0  0  0  0  0  0  0  0  0  0  0  0
    6.9911   -8.2423   27.1808 C   0  0  0  0  0  0  0  0  0  0  0  0
    3.8436   -7.2758   16.0578 C   0  0  0  0  0  0  0  0  0  0  0  0
    3.1882   -9.7190   17.2566 C   0  0  0  0  0  0  0  0  0  0  0  0
    5.3488   -6.1737   26.5092 C   0  0  0  0  0  0  0  0  0  0  0  0
    7.4567   -6.9464   27.2858 C   0  0  0  0  0  0  0  0  0  0  0  0
    0.1921   -5.7592   27.1123 C   0  0  0  0  0  0  0  0  0  0  0  0
    3.5517   -7.7407   25.9711 C   0  0  0  0  0  0  0  0  0  0  0  0
  1  4  4  0
  1 22  4  0
  2 20  4  0
  2 27  4  0
  3 12  4  0
  3 23  4  0
  4 25  4  0
  4 28  1  0
  5  8  4  0
  5 17  4  0
  6  7  4  0
  6 16  4  0
  7 18  4  0
  8 27  4  0
  9 13  4  0
  9 23  4  0
 10 11  1  0
 11 14  2  0
 11 27  1  0
 12 19  1  0
 12 24  4  0
 13 24  4  0
 15 18  1  0
 16 25  4  0
 16 26  4  0
 17 20  4  0
 17 28  1  0
 18 21  4  0
 21 26  4  0
 22 26  4  0
M  END
$$$$

 Created by Python create_sdf_string function

 28 30  0  0  0  0  0  0  0  0999 V2000
    5.7174   -8.4529   26.7190 C   0  0  0  0  0  0  0  0  0  0  0  0
    0.3974   -7.0711   27.5149 C   0  0  0  0  0  0  0  0  0  0  0  0
    2.5338   -7.6891   16.0102 C   0  0  0  0  0  0  0  0  0  0  0  0
    4.8690   -7.4380   26.4151 C   0  0  0  0  0  0  0  0  0  0  0  0
    2.3021   -5.6726   26.0378 C   0  0  0  0  0  0  0  0  0  0  0  0
    7.0880   -4.6163   27.0010 C   0  0  0  0  0  0  0  0  0  0  0  0
    8.3117   -4.3698   27.4436 C   0  0  0  0  0  0  0  0  0  0  0  0
    1.1339   -5.0515   26.3541 C   0  0  0  0  0  0  0  0  0  0  0  0
    4.8080   -8.0362   16.7101 C   0  0  0  0  0  0  0  0  0  0  0  0
   -1.2173   -3.9294   26.9717 O   0  0  0  0  0  0  0  0  0  0  0  0
   -1.0025   -5.0942   27.4586 C   0  0  0  0  0  0  0  0  0  0  0  0
    2.2474   -8.9123   16.6273 C   0  0  0  0  0  0  0  0  0  0  0  0
    4.4957   -9.2636   17.3041 C   0  0  0  0  0  0  0  0  0  0  0  0
   -1.8070   -5.6086   28.1920 O   0  0  0  0  0  0  0  0  0  0  0  0
   10.4296   -5.1799   28.3140 C   0  0  0  0  0  0  0  0  0  0  0  0
    6.6017   -5.9004   26.9187 C   0  0  0  0  0  0  0  0  0  0  0  0
    2.4761   -6.9940   26.4111 N   0  0  0  0  0  0  0  0  0  0  0  0
    9.1353   -5.4053   27.8239 C   0  0  0  0  0  0  0  0  0  0  0  0
    0.9922   -9.3232   16.5995 O   0  0  0  0  0  0  0  0  0  0  0  0
    1.5232   -7.6869   27.1182 C   0  0  0  0  0  0  0  0  0  0  0  0
    8.6878   -6.6715   27.7262 N   0  0  0  0  0  0  0  0  0  0  0  0
    6.9911   -8.2423   27.1808 C   0  0  0  0  0  0  0  0  0  0  0  0
    3.8436   -7.2758   16.0578 C   0  0  0  0  0  0  0  0  0  0  0  0
    3.1882   -9.7190   17.2566 C   0  0  0  0  0  0  0  0  0  0  0  0
    5.3488   -6.1737   26.5092 C   0  0  0  0  0  0  0  0  0  0  0  0
    7.4567   -6.9464   27.2858 C   0  0  0  0  0  0  0  0  0  0  0  0
    0.1921   -5.7592   27.1123 C   0  0  0  0  0  0  0  0  0  0  0  0
    3.5517   -7.7407   25.9711 C   0  0  0  0  0  0  0  0  0  0  0  0
  1  4  4  0
  1 22  4  0
  2 20  4  0
  2 27  4  0
  3 12  4  0
  3 23  4  0
  4 25  4  0
  4 28  1  0
  5  8  4  0
  5 17  4  0
  6  7  4  0
  6 16  4  0
  7 18  4  0
  8 27  4  0
  9 13  4  0
  9 23  4  0
 10 11  1  0
 11 14  2  0
 11 27  1  0
 12 19  1  0
 12 24  4  0
 13 24  4  0
 15 18  1  0
 16 25  4  0
 16 26  4  0
 17 20  4  0
 17 28  1  0
 18 21  4  0
 21 26  4  0
 22 26  4  0
M  END
$$$$

 Created by Python create_sdf_string function

 28 30  0  0  0  0  0  0  0  0999 V2000
    5.7174   -8.4529   26.7190 C   0  0  0  0  0  0  0  0  0  0  0  0
    0.3974   -7.0711   27.5149 C   0  0  0  0  0  0  0  0  0  0  0  0
    2.5338   -7.6891   16.0102 C   0  0  0  0  0  0  0  0  0  0  0  0
    4.8690   -7.4380   26.4151 C   0  0  0  0  0  0  0  0  0  0  0  0
    2.3021   -5.6726   26.0378 C   0  0  0  0  0  0  0  0  0  0  0  0
    7.0880   -4.6163   27.0010 C   0  0  0  0  0  0  0  0  0  0  0  0
    8.3117   -4.3698   27.4436 C   0  0  0  0  0  0  0  0  0  0  0  0
    1.1339   -5.0515   26.3541 C   0  0  0  0  0  0  0  0  0  0  0  0
    4.8080   -8.0362   16.7101 C   0  0  0  0  0  0  0  0  0  0  0  0
   -1.2173   -3.9294   26.9717 O   0  0  0  0  0  0  0  0  0  0  0  0
   -1.0025   -5.0942   27.4586 C   0  0  0  0  0  0  0  0  0  0  0  0
    2.2474   -8.9123   16.6273 C   0  0  0  0  0  0  0  0  0  0  0  0
    4.4957   -9.2636   17.3041 C   0  0  0  0  0  0  0  0  0  0  0  0
   -1.8070   -5.6086   28.1920 O   0  0  0  0  0  0  0  0  0  0  0  0
   10.4296   -5.1799   28.3140 C   0  0  0  0  0  0  0  0  0  0  0  0
    6.6017   -5.9004   26.9187 C   0  0  0  0  0  0  0  0  0  0  0  0
    2.4761   -6.9940   26.4111 N   0  0  0  0  0  0  0  0  0  0  0  0
    9.1353   -5.4053   27.8239 C   0  0  0  0  0  0  0  0  0  0  0  0
    0.9922   -9.3232   16.5995 O   0  0  0  0  0  0  0  0  0  0  0  0
    1.5232   -7.6869   27.1182 C   0  0  0  0  0  0  0  0  0  0  0  0
    8.6878   -6.6715   27.7262 N   0  0  0  0  0  0  0  0  0  0  0  0
    6.9911   -8.2423   27.1808 C   0  0  0  0  0  0  0  0  0  0  0  0
    3.8436   -7.2758   16.0578 C   0  0  0  0  0  0  0  0  0  0  0  0
    3.1882   -9.7190   17.2566 C   0  0  0  0  0  0  0  0  0  0  0  0
    5.3488   -6.1737   26.5092 C   0  0  0  0  0  0  0  0  0  0  0  0
    7.4567   -6.9464   27.2858 C   0  0  0  0  0  0  0  0  0  0  0  0
    0.1921   -5.7592   27.1123 C   0  0  0  0  0  0  0  0  0  0  0  0
    3.5517   -7.7407   25.9711 C   0  0  0  0  0  0  0  0  0  0  0  0
  1  4  4  0
  1 22  4  0
  2 20  4  0
  2 27  4  0
  3 12  4  0
  3 23  4  0
  4 25  4  0
  4 28  1  0
  5  8  4  0
  5 17  4  0
  6  7  4  0
  6 16  4  0
  7 18  4  0
  8 27  4  0
  9 13  4  0
  9 23  4  0
 10 11  1  0
 11 14  2  0
 11 27  1  0
 12 19  1  0
 12 24  4  0
 13 24  4  0
 15 18  1  0
 16 25  4  0
 16 26  4  0
 17 20  4  0
 17 28  1  0
 18 21  4  0
 21 26  4  0
 22 26  4  0
M  END
$$$$

 Created by Python create_sdf_string function

 28 30  0  0  0  0  0  0  0  0999 V2000
    5.7174   -8.4529   26.7190 C   0  0  0  0  0  0  0  0  0  0  0  0
    0.3974   -7.0711   27.5149 C   0  0  0  0  0  0  0  0  0  0  0  0
    2.5338   -7.6891   16.0102 C   0  0  0  0  0  0  0  0  0  0  0  0
    4.8690   -7.4380   26.4151 C   0  0  0  0  0  0  0  0  0  0  0  0
    2.3021   -5.6726   26.0378 C   0  0  0  0  0  0  0  0  0  0  0  0
    7.0880   -4.6163   27.0010 C   0  0  0  0  0  0  0  0  0  0  0  0
    8.3117   -4.3698   27.4436 C   0  0  0  0  0  0  0  0  0  0  0  0
    1.1339   -5.0515   26.3541 C   0  0  0  0  0  0  0  0  0  0  0  0
    4.8080   -8.0362   16.7101 C   0  0  0  0  0  0  0  0  0  0  0  0
   -1.2173   -3.9294   26.9717 O   0  0  0  0  0  0  0  0  0  0  0  0
   -1.0025   -5.0942   27.4586 C   0  0  0  0  0  0  0  0  0  0  0  0
    2.2474   -8.9123   16.6273 C   0  0  0  0  0  0  0  0  0  0  0  0
    4.4957   -9.2636   17.3041 C   0  0  0  0  0  0  0  0  0  0  0  0
   -1.8070   -5.6086   28.1920 O   0  0  0  0  0  0  0  0  0  0  0  0
   10.4296   -5.1799   28.3140 C   0  0  0  0  0  0  0  0  0  0  0  0
    6.6017   -5.9004   26.9187 C   0  0  0  0  0  0  0  0  0  0  0  0
    2.4761   -6.9940   26.4111 N   0  0  0  0  0  0  0  0  0  0  0  0
    9.1353   -5.4053   27.8239 C   0  0  0  0  0  0  0  0  0  0  0  0
    0.9922   -9.3232   16.5995 O   0  0  0  0  0  0  0  0  0  0  0  0
    1.5232   -7.6869   27.1182 C   0  0  0  0  0  0  0  0  0  0  0  0
    8.6878   -6.6715   27.7262 N   0  0  0  0  0  0  0  0  0  0  0  0
    6.9911   -8.2423   27.1808 C   0  0  0  0  0  0  0  0  0  0  0  0
    3.8436   -7.2758   16.0578 C   0  0  0  0  0  0  0  0  0  0  0  0
    3.1882   -9.7190   17.2566 C   0  0  0  0  0  0  0  0  0  0  0  0
    5.3488   -6.1737   26.5092 C   0  0  0  0  0  0  0  0  0  0  0  0
    7.4567   -6.9464   27.2858 C   0  0  0  0  0  0  0  0  0  0  0  0
    0.1921   -5.7592   27.1123 C   0  0  0  0  0  0  0  0  0  0  0  0
    3.5517   -7.7407   25.9711 C   0  0  0  0  0  0  0  0  0  0  0  0
  1  4  4  0
  1 22  4  0
  2 20  4  0
  2 27  4  0
  3 12  4  0
  3 23  4  0
  4 25  4  0
  4 28  1  0
  5  8  4  0
  5 17  4  0
  6  7  4  0
  6 16  4  0
  7 18  4  0
  8 27  4  0
  9 13  4  0
  9 23  4  0
 10 11  1  0
 11 14  2  0
 11 27  1  0
 12 19  1  0
 12 24  4  0
 13 24  4  0
 15 18  1  0
 16 25  4  0
 16 26  4  0
 17 20  4  0
 17 28  1  0
 18 21  4  0
 21 26  4  0
 22 26  4  0
M  END
$$$$

 Created by Python create_sdf_string function

 28 30  0  0  0  0  0  0  0  0999 V2000
    5.7174   -8.4529   26.7190 C   0  0  0  0  0  0  0  0  0  0  0  0
    0.3974   -7.0711   27.5149 C   0  0  0  0  0  0  0  0  0  0  0  0
    2.5338   -7.6891   16.0102 C   0  0  0  0  0  0  0  0  0  0  0  0
    4.8690   -7.4380   26.4151 C   0  0  0  0  0  0  0  0  0  0  0  0
    2.3021   -5.6726   26.0378 C   0  0  0  0  0  0  0  0  0  0  0  0
    7.0880   -4.6163   27.0010 C   0  0  0  0  0  0  0  0  0  0  0  0
    8.3117   -4.3698   27.4436 C   0  0  0  0  0  0  0  0  0  0  0  0
    1.1339   -5.0515   26.3541 C   0  0  0  0  0  0  0  0  0  0  0  0
    4.8080   -8.0362   16.7101 C   0  0  0  0  0  0  0  0  0  0  0  0
   -1.2173   -3.9294   26.9717 O   0  0  0  0  0  0  0  0  0  0  0  0
   -1.0025   -5.0942   27.4586 C   0  0  0  0  0  0  0  0  0  0  0  0
    2.2474   -8.9123   16.6273 C   0  0  0  0  0  0  0  0  0  0  0  0
    4.4957   -9.2636   17.3041 C   0  0  0  0  0  0  0  0  0  0  0  0
   -1.8070   -5.6086   28.1920 O   0  0  0  0  0  0  0  0  0  0  0  0
   10.4296   -5.1799   28.3140 C   0  0  0  0  0  0  0  0  0  0  0  0
    6.6017   -5.9004   26.9187 C   0  0  0  0  0  0  0  0  0  0  0  0
    2.4761   -6.9940   26.4111 N   0  0  0  0  0  0  0  0  0  0  0  0
    9.1353   -5.4053   27.8239 C   0  0  0  0  0  0  0  0  0  0  0  0
    0.9922   -9.3232   16.5995 O   0  0  0  0  0  0  0  0  0  0  0  0
    1.5232   -7.6869   27.1182 C   0  0  0  0  0  0  0  0  0  0  0  0
    8.6878   -6.6715   27.7262 N   0  0  0  0  0  0  0  0  0  0  0  0
    6.9911   -8.2423   27.1808 C   0  0  0  0  0  0  0  0  0  0  0  0
    3.8436   -7.2758   16.0578 C   0  0  0  0  0  0  0  0  0  0  0  0
    3.1882   -9.7190   17.2566 C   0  0  0  0  0  0  0  0  0  0  0  0
    5.3488   -6.1737   26.5092 C   0  0  0  0  0  0  0  0  0  0  0  0
    7.4567   -6.9464   27.2858 C   0  0  0  0  0  0  0  0  0  0  0  0
    0.1921   -5.7592   27.1123 C   0  0  0  0  0  0  0  0  0  0  0  0
    3.5517   -7.7407   25.9711 C   0  0  0  0  0  0  0  0  0  0  0  0
  1  4  4  0
  1 22  4  0
  2 20  4  0
  2 27  4  0
  3 12  4  0
  3 23  4  0
  4 25  4  0
  4 28  1  0
  5  8  4  0
  5 17  4  0
  6  7  4  0
  6 16  4  0
  7 18  4  0
  8 27  4  0
  9 13  4  0
  9 23  4  0
 10 11  1  0
 11 14  2  0
 11 27  1  0
 12 19  1  0
 12 24  4  0
 13 24  4  0
 15 18  1  0
 16 25  4  0
 16 26  4  0
 17 20  4  0
 17 28  1  0
 18 21  4  0
 21 26  4  0
 22 26  4  0
M  END
$$$$

 Created by Python create_sdf_string function

 28 30  0  0  0  0  0  0  0  0999 V2000
    5.7174   -8.4529   26.7190 C   0  0  0  0  0  0  0  0  0  0  0  0
    0.3974   -7.0711   27.5149 C   0  0  0  0  0  0  0  0  0  0  0  0
    2.5338   -7.6891   16.0102 C   0  0  0  0  0  0  0  0  0  0  0  0
    4.8690   -7.4380   26.4151 C   0  0  0  0  0  0  0  0  0  0  0  0
    2.3021   -5.6726   26.0378 C   0  0  0  0  0  0  0  0  0  0  0  0
    7.0880   -4.6163   27.0010 C   0  0  0  0  0  0  0  0  0  0  0  0
    8.3117   -4.3698   27.4436 C   0  0  0  0  0  0  0  0  0  0  0  0
    1.1339   -5.0515   26.3541 C   0  0  0  0  0  0  0  0  0  0  0  0
    4.8080   -8.0362   16.7101 C   0  0  0  0  0  0  0  0  0  0  0  0
   -1.2173   -3.9294   26.9717 O   0  0  0  0  0  0  0  0  0  0  0  0
   -1.0025   -5.0942   27.4586 C   0  0  0  0  0  0  0  0  0  0  0  0
    2.2474   -8.9123   16.6273 C   0  0  0  0  0  0  0  0  0  0  0  0
    4.4957   -9.2636   17.3041 C   0  0  0  0  0  0  0  0  0  0  0  0
   -1.8070   -5.6086   28.1920 O   0  0  0  0  0  0  0  0  0  0  0  0
   10.4296   -5.1799   28.3140 C   0  0  0  0  0  0  0  0  0  0  0  0
    6.6017   -5.9004   26.9187 C   0  0  0  0  0  0  0  0  0  0  0  0
    2.4761   -6.9940   26.4111 N   0  0  0  0  0  0  0  0  0  0  0  0
    9.1353   -5.4053   27.8239 C   0  0  0  0  0  0  0  0  0  0  0  0
    0.9922   -9.3232   16.5995 O   0  0  0  0  0  0  0  0  0  0  0  0
    1.5232   -7.6869   27.1182 C   0  0  0  0  0  0  0  0  0  0  0  0
    8.6878   -6.6715   27.7262 N   0  0  0  0  0  0  0  0  0  0  0  0
    6.9911   -8.2423   27.1808 C   0  0  0  0  0  0  0  0  0  0  0  0
    3.8436   -7.2758   16.0578 C   0  0  0  0  0  0  0  0  0  0  0  0
    3.1882   -9.7190   17.2566 C   0  0  0  0  0  0  0  0  0  0  0  0
    5.3488   -6.1737   26.5092 C   0  0  0  0  0  0  0  0  0  0  0  0
    7.4567   -6.9464   27.2858 C   0  0  0  0  0  0  0  0  0  0  0  0
    0.1921   -5.7592   27.1123 C   0  0  0  0  0  0  0  0  0  0  0  0
    3.5517   -7.7407   25.9711 C   0  0  0  0  0  0  0  0  0  0  0  0
  1  4  4  0
  1 22  4  0
  2 20  4  0
  2 27  4  0
  3 12  4  0
  3 23  4  0
  4 25  4  0
  4 28  1  0
  5  8  4  0
  5 17  4  0
  6  7  4  0
  6 16  4  0
  7 18  4  0
  8 27  4  0
  9 13  4  0
  9 23  4  0
 10 11  1  0
 11 14  2  0
 11 27  1  0
 12 19  1  0
 12 24  4  0
 13 24  4  0
 15 18  1  0
 16 25  4  0
 16 26  4  0
 17 20  4  0
 17 28  1  0
 18 21  4  0
 21 26  4  0
 22 26  4  0
M  END
$$$$

 Created by Python create_sdf_string function

 28 30  0  0  0  0  0  0  0  0999 V2000
    5.7174   -8.4529   26.7190 C   0  0  0  0  0  0  0  0  0  0  0  0
    0.3974   -7.0711   27.5149 C   0  0  0  0  0  0  0  0  0  0  0  0
    2.5338   -7.6891   16.0102 C   0  0  0  0  0  0  0  0  0  0  0  0
    4.8690   -7.4380   26.4151 C   0  0  0  0  0  0  0  0  0  0  0  0
    2.3021   -5.6726   26.0378 C   0  0  0  0  0  0  0  0  0  0  0  0
    7.0880   -4.6163   27.0010 C   0  0  0  0  0  0  0  0  0  0  0  0
    8.3117   -4.3698   27.4436 C   0  0  0  0  0  0  0  0  0  0  0  0
    1.1339   -5.0515   26.3541 C   0  0  0  0  0  0  0  0  0  0  0  0
    4.8080   -8.0362   16.7101 C   0  0  0  0  0  0  0  0  0  0  0  0
   -1.2173   -3.9294   26.9717 O   0  0  0  0  0  0  0  0  0  0  0  0
   -1.0025   -5.0942   27.4586 C   0  0  0  0  0  0  0  0  0  0  0  0
    2.2474   -8.9123   16.6273 C   0  0  0  0  0  0  0  0  0  0  0  0
    4.4957   -9.2636   17.3041 C   0  0  0  0  0  0  0  0  0  0  0  0
   -1.8070   -5.6086   28.1920 O   0  0  0  0  0  0  0  0  0  0  0  0
   10.4296   -5.1799   28.3140 C   0  0  0  0  0  0  0  0  0  0  0  0
    6.6017   -5.9004   26.9187 C   0  0  0  0  0  0  0  0  0  0  0  0
    2.4761   -6.9940   26.4111 N   0  0  0  0  0  0  0  0  0  0  0  0
    9.1353   -5.4053   27.8239 C   0  0  0  0  0  0  0  0  0  0  0  0
    0.9922   -9.3232   16.5995 O   0  0  0  0  0  0  0  0  0  0  0  0
    1.5232   -7.6869   27.1182 C   0  0  0  0  0  0  0  0  0  0  0  0
    8.6878   -6.6715   27.7262 N   0  0  0  0  0  0  0  0  0  0  0  0
    6.9911   -8.2423   27.1808 C   0  0  0  0  0  0  0  0  0  0  0  0
    3.8436   -7.2758   16.0578 C   0  0  0  0  0  0  0  0  0  0  0  0
    3.1882   -9.7190   17.2566 C   0  0  0  0  0  0  0  0  0  0  0  0
    5.3488   -6.1737   26.5092 C   0  0  0  0  0  0  0  0  0  0  0  0
    7.4567   -6.9464   27.2858 C   0  0  0  0  0  0  0  0  0  0  0  0
    0.1921   -5.7592   27.1123 C   0  0  0  0  0  0  0  0  0  0  0  0
    3.5517   -7.7407   25.9711 C   0  0  0  0  0  0  0  0  0  0  0  0
  1  4  4  0
  1 22  4  0
  2 20  4  0
  2 27  4  0
  3 12  4  0
  3 23  4  0
  4 25  4  0
  4 28  1  0
  5  8  4  0
  5 17  4  0
  6  7  4  0
  6 16  4  0
  7 18  4  0
  8 27  4  0
  9 13  4  0
  9 23  4  0
 10 11  1  0
 11 14  2  0
 11 27  1  0
 12 19  1  0
 12 24  4  0
 13 24  4  0
 15 18  1  0
 16 25  4  0
 16 26  4  0
 17 20  4  0
 17 28  1  0
 18 21  4  0
 21 26  4  0
 22 26  4  0
M  END
$$$$

 Created by Python create_sdf_string function

 28 30  0  0  0  0  0  0  0  0999 V2000
    5.7174   -8.4529   26.7190 C   0  0  0  0  0  0  0  0  0  0  0  0
    0.3974   -7.0711   27.5149 C   0  0  0  0  0  0  0  0  0  0  0  0
    2.5338   -7.6891   16.0102 C   0  0  0  0  0  0  0  0  0  0  0  0
    4.8690   -7.4380   26.4151 C   0  0  0  0  0  0  0  0  0  0  0  0
    2.3021   -5.6726   26.0378 C   0  0  0  0  0  0  0  0  0  0  0  0
    7.0880   -4.6163   27.0010 C   0  0  0  0  0  0  0  0  0  0  0  0
    8.3117   -4.3698   27.4436 C   0  0  0  0  0  0  0  0  0  0  0  0
    1.1339   -5.0515   26.3541 C   0  0  0  0  0  0  0  0  0  0  0  0
    4.8080   -8.0362   16.7101 C   0  0  0  0  0  0  0  0  0  0  0  0
   -1.2173   -3.9294   26.9717 O   0  0  0  0  0  0  0  0  0  0  0  0
   -1.0025   -5.0942   27.4586 C   0  0  0  0  0  0  0  0  0  0  0  0
    2.2474   -8.9123   16.6273 C   0  0  0  0  0  0  0  0  0  0  0  0
    4.4957   -9.2636   17.3041 C   0  0  0  0  0  0  0  0  0  0  0  0
   -1.8070   -5.6086   28.1920 O   0  0  0  0  0  0  0  0  0  0  0  0
   10.4296   -5.1799   28.3140 C   0  0  0  0  0  0  0  0  0  0  0  0
    6.6017   -5.9004   26.9187 C   0  0  0  0  0  0  0  0  0  0  0  0
    2.4761   -6.9940   26.4111 N   0  0  0  0  0  0  0  0  0  0  0  0
    9.1353   -5.4053   27.8239 C   0  0  0  0  0  0  0  0  0  0  0  0
    0.9922   -9.3232   16.5995 O   0  0  0  0  0  0  0  0  0  0  0  0
    1.5232   -7.6869   27.1182 C   0  0  0  0  0  0  0  0  0  0  0  0
    8.6878   -6.6715   27.7262 N   0  0  0  0  0  0  0  0  0  0  0  0
    6.9911   -8.2423   27.1808 C   0  0  0  0  0  0  0  0  0  0  0  0
    3.8436   -7.2758   16.0578 C   0  0  0  0  0  0  0  0  0  0  0  0
    3.1882   -9.7190   17.2566 C   0  0  0  0  0  0  0  0  0  0  0  0
    5.3488   -6.1737   26.5092 C   0  0  0  0  0  0  0  0  0  0  0  0
    7.4567   -6.9464   27.2858 C   0  0  0  0  0  0  0  0  0  0  0  0
    0.1921   -5.7592   27.1123 C   0  0  0  0  0  0  0  0  0  0  0  0
    3.5517   -7.7407   25.9711 C   0  0  0  0  0  0  0  0  0  0  0  0
  1  4  4  0
  1 22  4  0
  2 20  4  0
  2 27  4  0
  3 12  4  0
  3 23  4  0
  4 25  4  0
  4 28  1  0
  5  8  4  0
  5 17  4  0
  6  7  4  0
  6 16  4  0
  7 18  4  0
  8 27  4  0
  9 13  4  0
  9 23  4  0
 10 11  1  0
 11 14  2  0
 11 27  1  0
 12 19  1  0
 12 24  4  0
 13 24  4  0
 15 18  1  0
 16 25  4  0
 16 26  4  0
 17 20  4  0
 17 28  1  0
 18 21  4  0
 21 26  4  0
 22 26  4  0
M  END
$$$$

 Created by Python create_sdf_string function

 28 30  0  0  0  0  0  0  0  0999 V2000
    5.7174   -8.4529   26.7190 C   0  0  0  0  0  0  0  0  0  0  0  0
    0.3974   -7.0711   27.5149 C   0  0  0  0  0  0  0  0  0  0  0  0
    2.5338   -7.6891   16.0102 C   0  0  0  0  0  0  0  0  0  0  0  0
    4.8690   -7.4380   26.4151 C   0  0  0  0  0  0  0  0  0  0  0  0
    2.3021   -5.6726   26.0378 C   0  0  0  0  0  0  0  0  0  0  0  0
    7.0880   -4.6163   27.0010 C   0  0  0  0  0  0  0  0  0  0  0  0
    8.3117   -4.3698   27.4436 C   0  0  0  0  0  0  0  0  0  0  0  0
    1.1339   -5.0515   26.3541 C   0  0  0  0  0  0  0  0  0  0  0  0
    4.8080   -8.0362   16.7101 C   0  0  0  0  0  0  0  0  0  0  0  0
   -1.2173   -3.9294   26.9717 O   0  0  0  0  0  0  0  0  0  0  0  0
   -1.0025   -5.0942   27.4586 C   0  0  0  0  0  0  0  0  0  0  0  0
    2.2474   -8.9123   16.6273 C   0  0  0  0  0  0  0  0  0  0  0  0
    4.4957   -9.2636   17.3041 C   0  0  0  0  0  0  0  0  0  0  0  0
   -1.8070   -5.6086   28.1920 O   0  0  0  0  0  0  0  0  0  0  0  0
   10.4296   -5.1799   28.3140 C   0  0  0  0  0  0  0  0  0  0  0  0
    6.6017   -5.9004   26.9187 C   0  0  0  0  0  0  0  0  0  0  0  0
    2.4761   -6.9940   26.4111 N   0  0  0  0  0  0  0  0  0  0  0  0
    9.1353   -5.4053   27.8239 C   0  0  0  0  0  0  0  0  0  0  0  0
    0.9922   -9.3232   16.5995 O   0  0  0  0  0  0  0  0  0  0  0  0
    1.5232   -7.6869   27.1182 C   0  0  0  0  0  0  0  0  0  0  0  0
    8.6878   -6.6715   27.7262 N   0  0  0  0  0  0  0  0  0  0  0  0
    6.9911   -8.2423   27.1808 C   0  0  0  0  0  0  0  0  0  0  0  0
    3.8436   -7.2758   16.0578 C   0  0  0  0  0  0  0  0  0  0  0  0
    3.1882   -9.7190   17.2566 C   0  0  0  0  0  0  0  0  0  0  0  0
    5.3488   -6.1737   26.5092 C   0  0  0  0  0  0  0  0  0  0  0  0
    7.4567   -6.9464   27.2858 C   0  0  0  0  0  0  0  0  0  0  0  0
    0.1921   -5.7592   27.1123 C   0  0  0  0  0  0  0  0  0  0  0  0
    3.5517   -7.7407   25.9711 C   0  0  0  0  0  0  0  0  0  0  0  0
  1  4  4  0
  1 22  4  0
  2 20  4  0
  2 27  4  0
  3 12  4  0
  3 23  4  0
  4 25  4  0
  4 28  1  0
  5  8  4  0
  5 17  4  0
  6  7  4  0
  6 16  4  0
  7 18  4  0
  8 27  4  0
  9 13  4  0
  9 23  4  0
 10 11  1  0
 11 14  2  0
 11 27  1  0
 12 19  1  0
 12 24  4  0
 13 24  4  0
 15 18  1  0
 16 25  4  0
 16 26  4  0
 17 20  4  0
 17 28  1  0
 18 21  4  0
 21 26  4  0
 22 26  4  0
M  END
$$$$

 Created by Python create_sdf_string function

 28 30  0  0  0  0  0  0  0  0999 V2000
    5.7174   -8.4529   26.7190 C   0  0  0  0  0  0  0  0  0  0  0  0
    0.3974   -7.0711   27.5149 C   0  0  0  0  0  0  0  0  0  0  0  0
    2.5338   -7.6891   16.0102 C   0  0  0  0  0  0  0  0  0  0  0  0
    4.8690   -7.4380   26.4151 C   0  0  0  0  0  0  0  0  0  0  0  0
    2.3021   -5.6726   26.0378 C   0  0  0  0  0  0  0  0  0  0  0  0
    7.0880   -4.6163   27.0010 C   0  0  0  0  0  0  0  0  0  0  0  0
    8.3117   -4.3698   27.4436 C   0  0  0  0  0  0  0  0  0  0  0  0
    1.1339   -5.0515   26.3541 C   0  0  0  0  0  0  0  0  0  0  0  0
    4.8080   -8.0362   16.7101 C   0  0  0  0  0  0  0  0  0  0  0  0
   -1.2173   -3.9294   26.9717 O   0  0  0  0  0  0  0  0  0  0  0  0
   -1.0025   -5.0942   27.4586 C   0  0  0  0  0  0  0  0  0  0  0  0
    2.2474   -8.9123   16.6273 C   0  0  0  0  0  0  0  0  0  0  0  0
    4.4957   -9.2636   17.3041 C   0  0  0  0  0  0  0  0  0  0  0  0
   -1.8070   -5.6086   28.1920 O   0  0  0  0  0  0  0  0  0  0  0  0
   10.4296   -5.1799   28.3140 C   0  0  0  0  0  0  0  0  0  0  0  0
    6.6017   -5.9004   26.9187 C   0  0  0  0  0  0  0  0  0  0  0  0
    2.4761   -6.9940   26.4111 N   0  0  0  0  0  0  0  0  0  0  0  0
    9.1353   -5.4053   27.8239 C   0  0  0  0  0  0  0  0  0  0  0  0
    0.9922   -9.3232   16.5995 O   0  0  0  0  0  0  0  0  0  0  0  0
    1.5232   -7.6869   27.1182 C   0  0  0  0  0  0  0  0  0  0  0  0
    8.6878   -6.6715   27.7262 N   0  0  0  0  0  0  0  0  0  0  0  0
    6.9911   -8.2423   27.1808 C   0  0  0  0  0  0  0  0  0  0  0  0
    3.8436   -7.2758   16.0578 C   0  0  0  0  0  0  0  0  0  0  0  0
    3.1882   -9.7190   17.2566 C   0  0  0  0  0  0  0  0  0  0  0  0
    5.3488   -6.1737   26.5092 C   0  0  0  0  0  0  0  0  0  0  0  0
    7.4567   -6.9464   27.2858 C   0  0  0  0  0  0  0  0  0  0  0  0
    0.1921   -5.7592   27.1123 C   0  0  0  0  0  0  0  0  0  0  0  0
    3.5517   -7.7407   25.9711 C   0  0  0  0  0  0  0  0  0  0  0  0
  1  4  4  0
  1 22  4  0
  2 20  4  0
  2 27  4  0
  3 12  4  0
  3 23  4  0
  4 25  4  0
  4 28  1  0
  5  8  4  0
  5 17  4  0
  6  7  4  0
  6 16  4  0
  7 18  4  0
  8 27  4  0
  9 13  4  0
  9 23  4  0
 10 11  1  0
 11 14  2  0
 11 27  1  0
 12 19  1  0
 12 24  4  0
 13 24  4  0
 15 18  1  0
 16 25  4  0
 16 26  4  0
 17 20  4  0
 17 28  1  0
 18 21  4  0
 21 26  4  0
 22 26  4  0
M  END
$$$$

 Created by Python create_sdf_string function

 28 30  0  0  0  0  0  0  0  0999 V2000
    5.7174   -8.4529   26.7190 C   0  0  0  0  0  0  0  0  0  0  0  0
    0.3974   -7.0711   27.5149 C   0  0  0  0  0  0  0  0  0  0  0  0
    2.5338   -7.6891   16.0102 C   0  0  0  0  0  0  0  0  0  0  0  0
    4.8690   -7.4380   26.4151 C   0  0  0  0  0  0  0  0  0  0  0  0
    2.3021   -5.6726   26.0378 C   0  0  0  0  0  0  0  0  0  0  0  0
    7.0880   -4.6163   27.0010 C   0  0  0  0  0  0  0  0  0  0  0  0
    8.3117   -4.3698   27.4436 C   0  0  0  0  0  0  0  0  0  0  0  0
    1.1339   -5.0515   26.3541 C   0  0  0  0  0  0  0  0  0  0  0  0
    4.8080   -8.0362   16.7101 C   0  0  0  0  0  0  0  0  0  0  0  0
   -1.2173   -3.9294   26.9717 O   0  0  0  0  0  0  0  0  0  0  0  0
   -1.0025   -5.0942   27.4586 C   0  0  0  0  0  0  0  0  0  0  0  0
    2.2474   -8.9123   16.6273 C   0  0  0  0  0  0  0  0  0  0  0  0
    4.4957   -9.2636   17.3041 C   0  0  0  0  0  0  0  0  0  0  0  0
   -1.8070   -5.6086   28.1920 O   0  0  0  0  0  0  0  0  0  0  0  0
   10.4296   -5.1799   28.3140 C   0  0  0  0  0  0  0  0  0  0  0  0
    6.6017   -5.9004   26.9187 C   0  0  0  0  0  0  0  0  0  0  0  0
    2.4761   -6.9940   26.4111 N   0  0  0  0  0  0  0  0  0  0  0  0
    9.1353   -5.4053   27.8239 C   0  0  0  0  0  0  0  0  0  0  0  0
    0.9922   -9.3232   16.5995 O   0  0  0  0  0  0  0  0  0  0  0  0
    1.5232   -7.6869   27.1182 C   0  0  0  0  0  0  0  0  0  0  0  0
    8.6878   -6.6715   27.7262 N   0  0  0  0  0  0  0  0  0  0  0  0
    6.9911   -8.2423   27.1808 C   0  0  0  0  0  0  0  0  0  0  0  0
    3.8436   -7.2758   16.0578 C   0  0  0  0  0  0  0  0  0  0  0  0
    3.1882   -9.7190   17.2566 C   0  0  0  0  0  0  0  0  0  0  0  0
    5.3488   -6.1737   26.5092 C   0  0  0  0  0  0  0  0  0  0  0  0
    7.4567   -6.9464   27.2858 C   0  0  0  0  0  0  0  0  0  0  0  0
    0.1921   -5.7592   27.1123 C   0  0  0  0  0  0  0  0  0  0  0  0
    3.5517   -7.7407   25.9711 C   0  0  0  0  0  0  0  0  0  0  0  0
  1  4  4  0
  1 22  4  0
  2 20  4  0
  2 27  4  0
  3 12  4  0
  3 23  4  0
  4 25  4  0
  4 28  1  0
  5  8  4  0
  5 17  4  0
  6  7  4  0
  6 16  4  0
  7 18  4  0
  8 27  4  0
  9 13  4  0
  9 23  4  0
 10 11  1  0
 11 14  2  0
 11 27  1  0
 12 19  1  0
 12 24  4  0
 13 24  4  0
 15 18  1  0
 16 25  4  0
 16 26  4  0
 17 20  4  0
 17 28  1  0
 18 21  4  0
 21 26  4  0
 22 26  4  0
M  END
$$$$

 Created by Python create_sdf_string function

 28 30  0  0  0  0  0  0  0  0999 V2000
    5.7174   -8.4529   26.7190 C   0  0  0  0  0  0  0  0  0  0  0  0
    0.3974   -7.0711   27.5149 C   0  0  0  0  0  0  0  0  0  0  0  0
    2.5338   -7.6891   16.0102 C   0  0  0  0  0  0  0  0  0  0  0  0
    4.8690   -7.4380   26.4151 C   0  0  0  0  0  0  0  0  0  0  0  0
    2.3021   -5.6726   26.0378 C   0  0  0  0  0  0  0  0  0  0  0  0
    7.0880   -4.6163   27.0010 C   0  0  0  0  0  0  0  0  0  0  0  0
    8.3117   -4.3698   27.4436 C   0  0  0  0  0  0  0  0  0  0  0  0
    1.1339   -5.0515   26.3541 C   0  0  0  0  0  0  0  0  0  0  0  0
    4.8080   -8.0362   16.7101 C   0  0  0  0  0  0  0  0  0  0  0  0
   -1.2173   -3.9294   26.9717 O   0  0  0  0  0  0  0  0  0  0  0  0
   -1.0025   -5.0942   27.4586 C   0  0  0  0  0  0  0  0  0  0  0  0
    2.2474   -8.9123   16.6273 C   0  0  0  0  0  0  0  0  0  0  0  0
    4.4957   -9.2636   17.3041 C   0  0  0  0  0  0  0  0  0  0  0  0
   -1.8070   -5.6086   28.1920 O   0  0  0  0  0  0  0  0  0  0  0  0
   10.4296   -5.1799   28.3140 C   0  0  0  0  0  0  0  0  0  0  0  0
    6.6017   -5.9004   26.9187 C   0  0  0  0  0  0  0  0  0  0  0  0
    2.4761   -6.9940   26.4111 N   0  0  0  0  0  0  0  0  0  0  0  0
    9.1353   -5.4053   27.8239 C   0  0  0  0  0  0  0  0  0  0  0  0
    0.9922   -9.3232   16.5995 O   0  0  0  0  0  0  0  0  0  0  0  0
    1.5232   -7.6869   27.1182 C   0  0  0  0  0  0  0  0  0  0  0  0
    8.6878   -6.6715   27.7262 N   0  0  0  0  0  0  0  0  0  0  0  0
    6.9911   -8.2423   27.1808 C   0  0  0  0  0  0  0  0  0  0  0  0
    3.8436   -7.2758   16.0578 C   0  0  0  0  0  0  0  0  0  0  0  0
    3.1882   -9.7190   17.2566 C   0  0  0  0  0  0  0  0  0  0  0  0
    5.3488   -6.1737   26.5092 C   0  0  0  0  0  0  0  0  0  0  0  0
    7.4567   -6.9464   27.2858 C   0  0  0  0  0  0  0  0  0  0  0  0
    0.1921   -5.7592   27.1123 C   0  0  0  0  0  0  0  0  0  0  0  0
    3.5517   -7.7407   25.9711 C   0  0  0  0  0  0  0  0  0  0  0  0
  1  4  4  0
  1 22  4  0
  2 20  4  0
  2 27  4  0
  3 12  4  0
  3 23  4  0
  4 25  4  0
  4 28  1  0
  5  8  4  0
  5 17  4  0
  6  7  4  0
  6 16  4  0
  7 18  4  0
  8 27  4  0
  9 13  4  0
  9 23  4  0
 10 11  1  0
 11 14  2  0
 11 27  1  0
 12 19  1  0
 12 24  4  0
 13 24  4  0
 15 18  1  0
 16 25  4  0
 16 26  4  0
 17 20  4  0
 17 28  1  0
 18 21  4  0
 21 26  4  0
 22 26  4  0
M  END
$$$$

 Created by Python create_sdf_string function

 28 30  0  0  0  0  0  0  0  0999 V2000
    5.7174   -8.4529   26.7190 C   0  0  0  0  0  0  0  0  0  0  0  0
    0.3974   -7.0711   27.5149 C   0  0  0  0  0  0  0  0  0  0  0  0
    2.5338   -7.6891   16.0102 C   0  0  0  0  0  0  0  0  0  0  0  0
    4.8690   -7.4380   26.4151 C   0  0  0  0  0  0  0  0  0  0  0  0
    2.3021   -5.6726   26.0378 C   0  0  0  0  0  0  0  0  0  0  0  0
    7.0880   -4.6163   27.0010 C   0  0  0  0  0  0  0  0  0  0  0  0
    8.3117   -4.3698   27.4436 C   0  0  0  0  0  0  0  0  0  0  0  0
    1.1339   -5.0515   26.3541 C   0  0  0  0  0  0  0  0  0  0  0  0
    4.8080   -8.0362   16.7101 C   0  0  0  0  0  0  0  0  0  0  0  0
   -1.2173   -3.9294   26.9717 O   0  0  0  0  0  0  0  0  0  0  0  0
   -1.0025   -5.0942   27.4586 C   0  0  0  0  0  0  0  0  0  0  0  0
    2.2474   -8.9123   16.6273 C   0  0  0  0  0  0  0  0  0  0  0  0
    4.4957   -9.2636   17.3041 C   0  0  0  0  0  0  0  0  0  0  0  0
   -1.8070   -5.6086   28.1920 O   0  0  0  0  0  0  0  0  0  0  0  0
   10.4296   -5.1799   28.3140 C   0  0  0  0  0  0  0  0  0  0  0  0
    6.6017   -5.9004   26.9187 C   0  0  0  0  0  0  0  0  0  0  0  0
    2.4761   -6.9940   26.4111 N   0  0  0  0  0  0  0  0  0  0  0  0
    9.1353   -5.4053   27.8239 C   0  0  0  0  0  0  0  0  0  0  0  0
    0.9922   -9.3232   16.5995 O   0  0  0  0  0  0  0  0  0  0  0  0
    1.5232   -7.6869   27.1182 C   0  0  0  0  0  0  0  0  0  0  0  0
    8.6878   -6.6715   27.7262 N   0  0  0  0  0  0  0  0  0  0  0  0
    6.9911   -8.2423   27.1808 C   0  0  0  0  0  0  0  0  0  0  0  0
    3.8436   -7.2758   16.0578 C   0  0  0  0  0  0  0  0  0  0  0  0
    3.1882   -9.7190   17.2566 C   0  0  0  0  0  0  0  0  0  0  0  0
    5.3488   -6.1737   26.5092 C   0  0  0  0  0  0  0  0  0  0  0  0
    7.4567   -6.9464   27.2858 C   0  0  0  0  0  0  0  0  0  0  0  0
    0.1921   -5.7592   27.1123 C   0  0  0  0  0  0  0  0  0  0  0  0
    3.5517   -7.7407   25.9711 C   0  0  0  0  0  0  0  0  0  0  0  0
  1  4  4  0
  1 22  4  0
  2 20  4  0
  2 27  4  0
  3 12  4  0
  3 23  4  0
  4 25  4  0
  4 28  1  0
  5  8  4  0
  5 17  4  0
  6  7  4  0
  6 16  4  0
  7 18  4  0
  8 27  4  0
  9 13  4  0
  9 23  4  0
 10 11  1  0
 11 14  2  0
 11 27  1  0
 12 19  1  0
 12 24  4  0
 13 24  4  0
 15 18  1  0
 16 25  4  0
 16 26  4  0
 17 20  4  0
 17 28  1  0
 18 21  4  0
 21 26  4  0
 22 26  4  0
M  END
$$$$

 Created by Python create_sdf_string function

 28 30  0  0  0  0  0  0  0  0999 V2000
    5.7174   -8.4529   26.7190 C   0  0  0  0  0  0  0  0  0  0  0  0
    0.3974   -7.0711   27.5149 C   0  0  0  0  0  0  0  0  0  0  0  0
    2.5338   -7.6891   16.0102 C   0  0  0  0  0  0  0  0  0  0  0  0
    4.8690   -7.4380   26.4151 C   0  0  0  0  0  0  0  0  0  0  0  0
    2.3021   -5.6726   26.0378 C   0  0  0  0  0  0  0  0  0  0  0  0
    7.0880   -4.6163   27.0010 C   0  0  0  0  0  0  0  0  0  0  0  0
    8.3117   -4.3698   27.4436 C   0  0  0  0  0  0  0  0  0  0  0  0
    1.1339   -5.0515   26.3541 C   0  0  0  0  0  0  0  0  0  0  0  0
    4.8080   -8.0362   16.7101 C   0  0  0  0  0  0  0  0  0  0  0  0
   -1.2173   -3.9294   26.9717 O   0  0  0  0  0  0  0  0  0  0  0  0
   -1.0025   -5.0942   27.4586 C   0  0  0  0  0  0  0  0  0  0  0  0
    2.2474   -8.9123   16.6273 C   0  0  0  0  0  0  0  0  0  0  0  0
    4.4957   -9.2636   17.3041 C   0  0  0  0  0  0  0  0  0  0  0  0
   -1.8070   -5.6086   28.1920 O   0  0  0  0  0  0  0  0  0  0  0  0
   10.4296   -5.1799   28.3140 C   0  0  0  0  0  0  0  0  0  0  0  0
    6.6017   -5.9004   26.9187 C   0  0  0  0  0  0  0  0  0  0  0  0
    2.4761   -6.9940   26.4111 N   0  0  0  0  0  0  0  0  0  0  0  0
    9.1353   -5.4053   27.8239 C   0  0  0  0  0  0  0  0  0  0  0  0
    0.9922   -9.3232   16.5995 O   0  0  0  0  0  0  0  0  0  0  0  0
    1.5232   -7.6869   27.1182 C   0  0  0  0  0  0  0  0  0  0  0  0
    8.6878   -6.6715   27.7262 N   0  0  0  0  0  0  0  0  0  0  0  0
    6.9911   -8.2423   27.1808 C   0  0  0  0  0  0  0  0  0  0  0  0
    3.8436   -7.2758   16.0578 C   0  0  0  0  0  0  0  0  0  0  0  0
    3.1882   -9.7190   17.2566 C   0  0  0  0  0  0  0  0  0  0  0  0
    5.3488   -6.1737   26.5092 C   0  0  0  0  0  0  0  0  0  0  0  0
    7.4567   -6.9464   27.2858 C   0  0  0  0  0  0  0  0  0  0  0  0
    0.1921   -5.7592   27.1123 C   0  0  0  0  0  0  0  0  0  0  0  0
    3.5517   -7.7407   25.9711 C   0  0  0  0  0  0  0  0  0  0  0  0
  1  4  4  0
  1 22  4  0
  2 20  4  0
  2 27  4  0
  3 12  4  0
  3 23  4  0
  4 25  4  0
  4 28  1  0
  5  8  4  0
  5 17  4  0
  6  7  4  0
  6 16  4  0
  7 18  4  0
  8 27  4  0
  9 13  4  0
  9 23  4  0
 10 11  1  0
 11 14  2  0
 11 27  1  0
 12 19  1  0
 12 24  4  0
 13 24  4  0
 15 18  1  0
 16 25  4  0
 16 26  4  0
 17 20  4  0
 17 28  1  0
 18 21  4  0
 21 26  4  0
 22 26  4  0
M  END
$$$$

 Created by Python create_sdf_string function

 28 30  0  0  0  0  0  0  0  0999 V2000
    5.7174   -8.4529   26.7190 C   0  0  0  0  0  0  0  0  0  0  0  0
    0.3974   -7.0711   27.5149 C   0  0  0  0  0  0  0  0  0  0  0  0
    2.5338   -7.6891   16.0102 C   0  0  0  0  0  0  0  0  0  0  0  0
    4.8690   -7.4380   26.4151 C   0  0  0  0  0  0  0  0  0  0  0  0
    2.3021   -5.6726   26.0378 C   0  0  0  0  0  0  0  0  0  0  0  0
    7.0880   -4.6163   27.0010 C   0  0  0  0  0  0  0  0  0  0  0  0
    8.3117   -4.3698   27.4436 C   0  0  0  0  0  0  0  0  0  0  0  0
    1.1339   -5.0515   26.3541 C   0  0  0  0  0  0  0  0  0  0  0  0
    4.8080   -8.0362   16.7101 C   0  0  0  0  0  0  0  0  0  0  0  0
   -1.2173   -3.9294   26.9717 O   0  0  0  0  0  0  0  0  0  0  0  0
   -1.0025   -5.0942   27.4586 C   0  0  0  0  0  0  0  0  0  0  0  0
    2.2474   -8.9123   16.6273 C   0  0  0  0  0  0  0  0  0  0  0  0
    4.4957   -9.2636   17.3041 C   0  0  0  0  0  0  0  0  0  0  0  0
   -1.8070   -5.6086   28.1920 O   0  0  0  0  0  0  0  0  0  0  0  0
   10.4296   -5.1799   28.3140 C   0  0  0  0  0  0  0  0  0  0  0  0
    6.6017   -5.9004   26.9187 C   0  0  0  0  0  0  0  0  0  0  0  0
    2.4761   -6.9940   26.4111 N   0  0  0  0  0  0  0  0  0  0  0  0
    9.1353   -5.4053   27.8239 C   0  0  0  0  0  0  0  0  0  0  0  0
    0.9922   -9.3232   16.5995 O   0  0  0  0  0  0  0  0  0  0  0  0
    1.5232   -7.6869   27.1182 C   0  0  0  0  0  0  0  0  0  0  0  0
    8.6878   -6.6715   27.7262 N   0  0  0  0  0  0  0  0  0  0  0  0
    6.9911   -8.2423   27.1808 C   0  0  0  0  0  0  0  0  0  0  0  0
    3.8436   -7.2758   16.0578 C   0  0  0  0  0  0  0  0  0  0  0  0
    3.1882   -9.7190   17.2566 C   0  0  0  0  0  0  0  0  0  0  0  0
    5.3488   -6.1737   26.5092 C   0  0  0  0  0  0  0  0  0  0  0  0
    7.4567   -6.9464   27.2858 C   0  0  0  0  0  0  0  0  0  0  0  0
    0.1921   -5.7592   27.1123 C   0  0  0  0  0  0  0  0  0  0  0  0
    3.5517   -7.7407   25.9711 C   0  0  0  0  0  0  0  0  0  0  0  0
  1  4  4  0
  1 22  4  0
  2 20  4  0
  2 27  4  0
  3 12  4  0
  3 23  4  0
  4 25  4  0
  4 28  1  0
  5  8  4  0
  5 17  4  0
  6  7  4  0
  6 16  4  0
  7 18  4  0
  8 27  4  0
  9 13  4  0
  9 23  4  0
 10 11  1  0
 11 14  2  0
 11 27  1  0
 12 19  1  0
 12 24  4  0
 13 24  4  0
 15 18  1  0
 16 25  4  0
 16 26  4  0
 17 20  4  0
 17 28  1  0
 18 21  4  0
 21 26  4  0
 22 26  4  0
M  END
$$$$

 Created by Python create_sdf_string function

 28 30  0  0  0  0  0  0  0  0999 V2000
    5.7174   -8.4529   26.7190 C   0  0  0  0  0  0  0  0  0  0  0  0
    0.3974   -7.0711   27.5149 C   0  0  0  0  0  0  0  0  0  0  0  0
    2.5338   -7.6891   16.0102 C   0  0  0  0  0  0  0  0  0  0  0  0
    4.8690   -7.4380   26.4151 C   0  0  0  0  0  0  0  0  0  0  0  0
    2.3021   -5.6726   26.0378 C   0  0  0  0  0  0  0  0  0  0  0  0
    7.0880   -4.6163   27.0010 C   0  0  0  0  0  0  0  0  0  0  0  0
    8.3117   -4.3698   27.4436 C   0  0  0  0  0  0  0  0  0  0  0  0
    1.1339   -5.0515   26.3541 C   0  0  0  0  0  0  0  0  0  0  0  0
    4.8080   -8.0362   16.7101 C   0  0  0  0  0  0  0  0  0  0  0  0
   -1.2173   -3.9294   26.9717 O   0  0  0  0  0  0  0  0  0  0  0  0
   -1.0025   -5.0942   27.4586 C   0  0  0  0  0  0  0  0  0  0  0  0
    2.2474   -8.9123   16.6273 C   0  0  0  0  0  0  0  0  0  0  0  0
    4.4957   -9.2636   17.3041 C   0  0  0  0  0  0  0  0  0  0  0  0
   -1.8070   -5.6086   28.1920 O   0  0  0  0  0  0  0  0  0  0  0  0
   10.4296   -5.1799   28.3140 C   0  0  0  0  0  0  0  0  0  0  0  0
    6.6017   -5.9004   26.9187 C   0  0  0  0  0  0  0  0  0  0  0  0
    2.4761   -6.9940   26.4111 N   0  0  0  0  0  0  0  0  0  0  0  0
    9.1353   -5.4053   27.8239 C   0  0  0  0  0  0  0  0  0  0  0  0
    0.9922   -9.3232   16.5995 O   0  0  0  0  0  0  0  0  0  0  0  0
    1.5232   -7.6869   27.1182 C   0  0  0  0  0  0  0  0  0  0  0  0
    8.6878   -6.6715   27.7262 N   0  0  0  0  0  0  0  0  0  0  0  0
    6.9911   -8.2423   27.1808 C   0  0  0  0  0  0  0  0  0  0  0  0
    3.8436   -7.2758   16.0578 C   0  0  0  0  0  0  0  0  0  0  0  0
    3.1882   -9.7190   17.2566 C   0  0  0  0  0  0  0  0  0  0  0  0
    5.3488   -6.1737   26.5092 C   0  0  0  0  0  0  0  0  0  0  0  0
    7.4567   -6.9464   27.2858 C   0  0  0  0  0  0  0  0  0  0  0  0
    0.1921   -5.7592   27.1123 C   0  0  0  0  0  0  0  0  0  0  0  0
    3.5517   -7.7407   25.9711 C   0  0  0  0  0  0  0  0  0  0  0  0
  1  4  4  0
  1 22  4  0
  2 20  4  0
  2 27  4  0
  3 12  4  0
  3 23  4  0
  4 25  4  0
  4 28  1  0
  5  8  4  0
  5 17  4  0
  6  7  4  0
  6 16  4  0
  7 18  4  0
  8 27  4  0
  9 13  4  0
  9 23  4  0
 10 11  1  0
 11 14  2  0
 11 27  1  0
 12 19  1  0
 12 24  4  0
 13 24  4  0
 15 18  1  0
 16 25  4  0
 16 26  4  0
 17 20  4  0
 17 28  1  0
 18 21  4  0
 21 26  4  0
 22 26  4  0
M  END
$$$$

 Created by Python create_sdf_string function

 28 30  0  0  0  0  0  0  0  0999 V2000
    5.7174   -8.4529   26.7190 C   0  0  0  0  0  0  0  0  0  0  0  0
    0.3974   -7.0711   27.5149 C   0  0  0  0  0  0  0  0  0  0  0  0
    2.5338   -7.6891   16.0102 C   0  0  0  0  0  0  0  0  0  0  0  0
    4.8690   -7.4380   26.4151 C   0  0  0  0  0  0  0  0  0  0  0  0
    2.3021   -5.6726   26.0378 C   0  0  0  0  0  0  0  0  0  0  0  0
    7.0880   -4.6163   27.0010 C   0  0  0  0  0  0  0  0  0  0  0  0
    8.3117   -4.3698   27.4436 C   0  0  0  0  0  0  0  0  0  0  0  0
    1.1339   -5.0515   26.3541 C   0  0  0  0  0  0  0  0  0  0  0  0
    4.8080   -8.0362   16.7101 C   0  0  0  0  0  0  0  0  0  0  0  0
   -1.2173   -3.9294   26.9717 O   0  0  0  0  0  0  0  0  0  0  0  0
   -1.0025   -5.0942   27.4586 C   0  0  0  0  0  0  0  0  0  0  0  0
    2.2474   -8.9123   16.6273 C   0  0  0  0  0  0  0  0  0  0  0  0
    4.4957   -9.2636   17.3041 C   0  0  0  0  0  0  0  0  0  0  0  0
   -1.8070   -5.6086   28.1920 O   0  0  0  0  0  0  0  0  0  0  0  0
   10.4296   -5.1799   28.3140 C   0  0  0  0  0  0  0  0  0  0  0  0
    6.6017   -5.9004   26.9187 C   0  0  0  0  0  0  0  0  0  0  0  0
    2.4761   -6.9940   26.4111 N   0  0  0  0  0  0  0  0  0  0  0  0
    9.1353   -5.4053   27.8239 C   0  0  0  0  0  0  0  0  0  0  0  0
    0.9922   -9.3232   16.5995 O   0  0  0  0  0  0  0  0  0  0  0  0
    1.5232   -7.6869   27.1182 C   0  0  0  0  0  0  0  0  0  0  0  0
    8.6878   -6.6715   27.7262 N   0  0  0  0  0  0  0  0  0  0  0  0
    6.9911   -8.2423   27.1808 C   0  0  0  0  0  0  0  0  0  0  0  0
    3.8436   -7.2758   16.0578 C   0  0  0  0  0  0  0  0  0  0  0  0
    3.1882   -9.7190   17.2566 C   0  0  0  0  0  0  0  0  0  0  0  0
    5.3488   -6.1737   26.5092 C   0  0  0  0  0  0  0  0  0  0  0  0
    7.4567   -6.9464   27.2858 C   0  0  0  0  0  0  0  0  0  0  0  0
    0.1921   -5.7592   27.1123 C   0  0  0  0  0  0  0  0  0  0  0  0
    3.5517   -7.7407   25.9711 C   0  0  0  0  0  0  0  0  0  0  0  0
  1  4  4  0
  1 22  4  0
  2 20  4  0
  2 27  4  0
  3 12  4  0
  3 23  4  0
  4 25  4  0
  4 28  1  0
  5  8  4  0
  5 17  4  0
  6  7  4  0
  6 16  4  0
  7 18  4  0
  8 27  4  0
  9 13  4  0
  9 23  4  0
 10 11  1  0
 11 14  2  0
 11 27  1  0
 12 19  1  0
 12 24  4  0
 13 24  4  0
 15 18  1  0
 16 25  4  0
 16 26  4  0
 17 20  4  0
 17 28  1  0
 18 21  4  0
 21 26  4  0
 22 26  4  0
M  END
$$$$

 Created by Python create_sdf_string function

 28 30  0  0  0  0  0  0  0  0999 V2000
    5.7174   -8.4529   26.7190 C   0  0  0  0  0  0  0  0  0  0  0  0
    0.3974   -7.0711   27.5149 C   0  0  0  0  0  0  0  0  0  0  0  0
    2.5338   -7.6891   16.0102 C   0  0  0  0  0  0  0  0  0  0  0  0
    4.8690   -7.4380   26.4151 C   0  0  0  0  0  0  0  0  0  0  0  0
    2.3021   -5.6726   26.0378 C   0  0  0  0  0  0  0  0  0  0  0  0
    7.0880   -4.6163   27.0010 C   0  0  0  0  0  0  0  0  0  0  0  0
    8.3117   -4.3698   27.4436 C   0  0  0  0  0  0  0  0  0  0  0  0
    1.1339   -5.0515   26.3541 C   0  0  0  0  0  0  0  0  0  0  0  0
    4.8080   -8.0362   16.7101 C   0  0  0  0  0  0  0  0  0  0  0  0
   -1.2173   -3.9294   26.9717 O   0  0  0  0  0  0  0  0  0  0  0  0
   -1.0025   -5.0942   27.4586 C   0  0  0  0  0  0  0  0  0  0  0  0
    2.2474   -8.9123   16.6273 C   0  0  0  0  0  0  0  0  0  0  0  0
    4.4957   -9.2636   17.3041 C   0  0  0  0  0  0  0  0  0  0  0  0
   -1.8070   -5.6086   28.1920 O   0  0  0  0  0  0  0  0  0  0  0  0
   10.4296   -5.1799   28.3140 C   0  0  0  0  0  0  0  0  0  0  0  0
    6.6017   -5.9004   26.9187 C   0  0  0  0  0  0  0  0  0  0  0  0
    2.4761   -6.9940   26.4111 N   0  0  0  0  0  0  0  0  0  0  0  0
    9.1353   -5.4053   27.8239 C   0  0  0  0  0  0  0  0  0  0  0  0
    0.9922   -9.3232   16.5995 O   0  0  0  0  0  0  0  0  0  0  0  0
    1.5232   -7.6869   27.1182 C   0  0  0  0  0  0  0  0  0  0  0  0
    8.6878   -6.6715   27.7262 N   0  0  0  0  0  0  0  0  0  0  0  0
    6.9911   -8.2423   27.1808 C   0  0  0  0  0  0  0  0  0  0  0  0
    3.8436   -7.2758   16.0578 C   0  0  0  0  0  0  0  0  0  0  0  0
    3.1882   -9.7190   17.2566 C   0  0  0  0  0  0  0  0  0  0  0  0
    5.3488   -6.1737   26.5092 C   0  0  0  0  0  0  0  0  0  0  0  0
    7.4567   -6.9464   27.2858 C   0  0  0  0  0  0  0  0  0  0  0  0
    0.1921   -5.7592   27.1123 C   0  0  0  0  0  0  0  0  0  0  0  0
    3.5517   -7.7407   25.9711 C   0  0  0  0  0  0  0  0  0  0  0  0
  1  4  4  0
  1 22  4  0
  2 20  4  0
  2 27  4  0
  3 12  4  0
  3 23  4  0
  4 25  4  0
  4 28  1  0
  5  8  4  0
  5 17  4  0
  6  7  4  0
  6 16  4  0
  7 18  4  0
  8 27  4  0
  9 13  4  0
  9 23  4  0
 10 11  1  0
 11 14  2  0
 11 27  1  0
 12 19  1  0
 12 24  4  0
 13 24  4  0
 15 18  1  0
 16 25  4  0
 16 26  4  0
 17 20  4  0
 17 28  1  0
 18 21  4  0
 21 26  4  0
 22 26  4  0
M  END
$$$$

 Created by Python create_sdf_string function

 28 30  0  0  0  0  0  0  0  0999 V2000
    5.7174   -8.4529   26.7190 C   0  0  0  0  0  0  0  0  0  0  0  0
    0.3974   -7.0711   27.5149 C   0  0  0  0  0  0  0  0  0  0  0  0
    2.5338   -7.6891   16.0102 C   0  0  0  0  0  0  0  0  0  0  0  0
    4.8690   -7.4380   26.4151 C   0  0  0  0  0  0  0  0  0  0  0  0
    2.3021   -5.6726   26.0378 C   0  0  0  0  0  0  0  0  0  0  0  0
    7.0880   -4.6163   27.0010 C   0  0  0  0  0  0  0  0  0  0  0  0
    8.3117   -4.3698   27.4436 C   0  0  0  0  0  0  0  0  0  0  0  0
    1.1339   -5.0515   26.3541 C   0  0  0  0  0  0  0  0  0  0  0  0
    4.8080   -8.0362   16.7101 C   0  0  0  0  0  0  0  0  0  0  0  0
   -1.2173   -3.9294   26.9717 O   0  0  0  0  0  0  0  0  0  0  0  0
   -1.0025   -5.0942   27.4586 C   0  0  0  0  0  0  0  0  0  0  0  0
    2.2474   -8.9123   16.6273 C   0  0  0  0  0  0  0  0  0  0  0  0
    4.4957   -9.2636   17.3041 C   0  0  0  0  0  0  0  0  0  0  0  0
   -1.8070   -5.6086   28.1920 O   0  0  0  0  0  0  0  0  0  0  0  0
   10.4296   -5.1799   28.3140 C   0  0  0  0  0  0  0  0  0  0  0  0
    6.6017   -5.9004   26.9187 C   0  0  0  0  0  0  0  0  0  0  0  0
    2.4761   -6.9940   26.4111 N   0  0  0  0  0  0  0  0  0  0  0  0
    9.1353   -5.4053   27.8239 C   0  0  0  0  0  0  0  0  0  0  0  0
    0.9922   -9.3232   16.5995 O   0  0  0  0  0  0  0  0  0  0  0  0
    1.5232   -7.6869   27.1182 C   0  0  0  0  0  0  0  0  0  0  0  0
    8.6878   -6.6715   27.7262 N   0  0  0  0  0  0  0  0  0  0  0  0
    6.9911   -8.2423   27.1808 C   0  0  0  0  0  0  0  0  0  0  0  0
    3.8436   -7.2758   16.0578 C   0  0  0  0  0  0  0  0  0  0  0  0
    3.1882   -9.7190   17.2566 C   0  0  0  0  0  0  0  0  0  0  0  0
    5.3488   -6.1737   26.5092 C   0  0  0  0  0  0  0  0  0  0  0  0
    7.4567   -6.9464   27.2858 C   0  0  0  0  0  0  0  0  0  0  0  0
    0.1921   -5.7592   27.1123 C   0  0  0  0  0  0  0  0  0  0  0  0
    3.5517   -7.7407   25.9711 C   0  0  0  0  0  0  0  0  0  0  0  0
  1  4  4  0
  1 22  4  0
  2 20  4  0
  2 27  4  0
  3 12  4  0
  3 23  4  0
  4 25  4  0
  4 28  1  0
  5  8  4  0
  5 17  4  0
  6  7  4  0
  6 16  4  0
  7 18  4  0
  8 27  4  0
  9 13  4  0
  9 23  4  0
 10 11  1  0
 11 14  2  0
 11 27  1  0
 12 19  1  0
 12 24  4  0
 13 24  4  0
 15 18  1  0
 16 25  4  0
 16 26  4  0
 17 20  4  0
 17 28  1  0
 18 21  4  0
 21 26  4  0
 22 26  4  0
M  END
$$$$

 Created by Python create_sdf_string function

 28 30  0  0  0  0  0  0  0  0999 V2000
    5.7174   -8.4529   26.7190 C   0  0  0  0  0  0  0  0  0  0  0  0
    0.3974   -7.0711   27.5149 C   0  0  0  0  0  0  0  0  0  0  0  0
    2.5338   -7.6891   16.0102 C   0  0  0  0  0  0  0  0  0  0  0  0
    4.8690   -7.4380   26.4151 C   0  0  0  0  0  0  0  0  0  0  0  0
    2.3021   -5.6726   26.0378 C   0  0  0  0  0  0  0  0  0  0  0  0
    7.0880   -4.6163   27.0010 C   0  0  0  0  0  0  0  0  0  0  0  0
    8.3117   -4.3698   27.4436 C   0  0  0  0  0  0  0  0  0  0  0  0
    1.1339   -5.0515   26.3541 C   0  0  0  0  0  0  0  0  0  0  0  0
    4.8080   -8.0362   16.7101 C   0  0  0  0  0  0  0  0  0  0  0  0
   -1.2173   -3.9294   26.9717 O   0  0  0  0  0  0  0  0  0  0  0  0
   -1.0025   -5.0942   27.4586 C   0  0  0  0  0  0  0  0  0  0  0  0
    2.2474   -8.9123   16.6273 C   0  0  0  0  0  0  0  0  0  0  0  0
    4.4957   -9.2636   17.3041 C   0  0  0  0  0  0  0  0  0  0  0  0
   -1.8070   -5.6086   28.1920 O   0  0  0  0  0  0  0  0  0  0  0  0
   10.4296   -5.1799   28.3140 C   0  0  0  0  0  0  0  0  0  0  0  0
    6.6017   -5.9004   26.9187 C   0  0  0  0  0  0  0  0  0  0  0  0
    2.4761   -6.9940   26.4111 N   0  0  0  0  0  0  0  0  0  0  0  0
    9.1353   -5.4053   27.8239 C   0  0  0  0  0  0  0  0  0  0  0  0
    0.9922   -9.3232   16.5995 O   0  0  0  0  0  0  0  0  0  0  0  0
    1.5232   -7.6869   27.1182 C   0  0  0  0  0  0  0  0  0  0  0  0
    8.6878   -6.6715   27.7262 N   0  0  0  0  0  0  0  0  0  0  0  0
    6.9911   -8.2423   27.1808 C   0  0  0  0  0  0  0  0  0  0  0  0
    3.8436   -7.2758   16.0578 C   0  0  0  0  0  0  0  0  0  0  0  0
    3.1882   -9.7190   17.2566 C   0  0  0  0  0  0  0  0  0  0  0  0
    5.3488   -6.1737   26.5092 C   0  0  0  0  0  0  0  0  0  0  0  0
    7.4567   -6.9464   27.2858 C   0  0  0  0  0  0  0  0  0  0  0  0
    0.1921   -5.7592   27.1123 C   0  0  0  0  0  0  0  0  0  0  0  0
    3.5517   -7.7407   25.9711 C   0  0  0  0  0  0  0  0  0  0  0  0
  1  4  4  0
  1 22  4  0
  2 20  4  0
  2 27  4  0
  3 12  4  0
  3 23  4  0
  4 25  4  0
  4 28  1  0
  5  8  4  0
  5 17  4  0
  6  7  4  0
  6 16  4  0
  7 18  4  0
  8 27  4  0
  9 13  4  0
  9 23  4  0
 10 11  1  0
 11 14  2  0
 11 27  1  0
 12 19  1  0
 12 24  4  0
 13 24  4  0
 15 18  1  0
 16 25  4  0
 16 26  4  0
 17 20  4  0
 17 28  1  0
 18 21  4  0
 21 26  4  0
 22 26  4  0
M  END
$$$$

 Created by Python create_sdf_string function

 28 30  0  0  0  0  0  0  0  0999 V2000
    5.7174   -8.4529   26.7190 C   0  0  0  0  0  0  0  0  0  0  0  0
    0.3974   -7.0711   27.5149 C   0  0  0  0  0  0  0  0  0  0  0  0
    2.5338   -7.6891   16.0102 C   0  0  0  0  0  0  0  0  0  0  0  0
    4.8690   -7.4380   26.4151 C   0  0  0  0  0  0  0  0  0  0  0  0
    2.3021   -5.6726   26.0378 C   0  0  0  0  0  0  0  0  0  0  0  0
    7.0880   -4.6163   27.0010 C   0  0  0  0  0  0  0  0  0  0  0  0
    8.3117   -4.3698   27.4436 C   0  0  0  0  0  0  0  0  0  0  0  0
    1.1339   -5.0515   26.3541 C   0  0  0  0  0  0  0  0  0  0  0  0
    4.8080   -8.0362   16.7101 C   0  0  0  0  0  0  0  0  0  0  0  0
   -1.2173   -3.9294   26.9717 O   0  0  0  0  0  0  0  0  0  0  0  0
   -1.0025   -5.0942   27.4586 C   0  0  0  0  0  0  0  0  0  0  0  0
    2.2474   -8.9123   16.6273 C   0  0  0  0  0  0  0  0  0  0  0  0
    4.4957   -9.2636   17.3041 C   0  0  0  0  0  0  0  0  0  0  0  0
   -1.8070   -5.6086   28.1920 O   0  0  0  0  0  0  0  0  0  0  0  0
   10.4296   -5.1799   28.3140 C   0  0  0  0  0  0  0  0  0  0  0  0
    6.6017   -5.9004   26.9187 C   0  0  0  0  0  0  0  0  0  0  0  0
    2.4761   -6.9940   26.4111 N   0  0  0  0  0  0  0  0  0  0  0  0
    9.1353   -5.4053   27.8239 C   0  0  0  0  0  0  0  0  0  0  0  0
    0.9922   -9.3232   16.5995 O   0  0  0  0  0  0  0  0  0  0  0  0
    1.5232   -7.6869   27.1182 C   0  0  0  0  0  0  0  0  0  0  0  0
    8.6878   -6.6715   27.7262 N   0  0  0  0  0  0  0  0  0  0  0  0
    6.9911   -8.2423   27.1808 C   0  0  0  0  0  0  0  0  0  0  0  0
    3.8436   -7.2758   16.0578 C   0  0  0  0  0  0  0  0  0  0  0  0
    3.1882   -9.7190   17.2566 C   0  0  0  0  0  0  0  0  0  0  0  0
    5.3488   -6.1737   26.5092 C   0  0  0  0  0  0  0  0  0  0  0  0
    7.4567   -6.9464   27.2858 C   0  0  0  0  0  0  0  0  0  0  0  0
    0.1921   -5.7592   27.1123 C   0  0  0  0  0  0  0  0  0  0  0  0
    3.5517   -7.7407   25.9711 C   0  0  0  0  0  0  0  0  0  0  0  0
  1  4  4  0
  1 22  4  0
  2 20  4  0
  2 27  4  0
  3 12  4  0
  3 23  4  0
  4 25  4  0
  4 28  1  0
  5  8  4  0
  5 17  4  0
  6  7  4  0
  6 16  4  0
  7 18  4  0
  8 27  4  0
  9 13  4  0
  9 23  4  0
 10 11  1  0
 11 14  2  0
 11 27  1  0
 12 19  1  0
 12 24  4  0
 13 24  4  0
 15 18  1  0
 16 25  4  0
 16 26  4  0
 17 20  4  0
 17 28  1  0
 18 21  4  0
 21 26  4  0
 22 26  4  0
M  END
$$$$

 Created by Python create_sdf_string function

 28 30  0  0  0  0  0  0  0  0999 V2000
    5.7174   -8.4529   26.7190 C   0  0  0  0  0  0  0  0  0  0  0  0
    0.3974   -7.0711   27.5149 C   0  0  0  0  0  0  0  0  0  0  0  0
    2.5338   -7.6891   16.0102 C   0  0  0  0  0  0  0  0  0  0  0  0
    4.8690   -7.4380   26.4151 C   0  0  0  0  0  0  0  0  0  0  0  0
    2.3021   -5.6726   26.0378 C   0  0  0  0  0  0  0  0  0  0  0  0
    7.0880   -4.6163   27.0010 C   0  0  0  0  0  0  0  0  0  0  0  0
    8.3117   -4.3698   27.4436 C   0  0  0  0  0  0  0  0  0  0  0  0
    1.1339   -5.0515   26.3541 C   0  0  0  0  0  0  0  0  0  0  0  0
    4.8080   -8.0362   16.7101 C   0  0  0  0  0  0  0  0  0  0  0  0
   -1.2173   -3.9294   26.9717 O   0  0  0  0  0  0  0  0  0  0  0  0
   -1.0025   -5.0942   27.4586 C   0  0  0  0  0  0  0  0  0  0  0  0
    2.2474   -8.9123   16.6273 C   0  0  0  0  0  0  0  0  0  0  0  0
    4.4957   -9.2636   17.3041 C   0  0  0  0  0  0  0  0  0  0  0  0
   -1.8070   -5.6086   28.1920 O   0  0  0  0  0  0  0  0  0  0  0  0
   10.4296   -5.1799   28.3140 C   0  0  0  0  0  0  0  0  0  0  0  0
    6.6017   -5.9004   26.9187 C   0  0  0  0  0  0  0  0  0  0  0  0
    2.4761   -6.9940   26.4111 N   0  0  0  0  0  0  0  0  0  0  0  0
    9.1353   -5.4053   27.8239 C   0  0  0  0  0  0  0  0  0  0  0  0
    0.9922   -9.3232   16.5995 O   0  0  0  0  0  0  0  0  0  0  0  0
    1.5232   -7.6869   27.1182 C   0  0  0  0  0  0  0  0  0  0  0  0
    8.6878   -6.6715   27.7262 N   0  0  0  0  0  0  0  0  0  0  0  0
    6.9911   -8.2423   27.1808 C   0  0  0  0  0  0  0  0  0  0  0  0
    3.8436   -7.2758   16.0578 C   0  0  0  0  0  0  0  0  0  0  0  0
    3.1882   -9.7190   17.2566 C   0  0  0  0  0  0  0  0  0  0  0  0
    5.3488   -6.1737   26.5092 C   0  0  0  0  0  0  0  0  0  0  0  0
    7.4567   -6.9464   27.2858 C   0  0  0  0  0  0  0  0  0  0  0  0
    0.1921   -5.7592   27.1123 C   0  0  0  0  0  0  0  0  0  0  0  0
    3.5517   -7.7407   25.9711 C   0  0  0  0  0  0  0  0  0  0  0  0
  1  4  4  0
  1 22  4  0
  2 20  4  0
  2 27  4  0
  3 12  4  0
  3 23  4  0
  4 25  4  0
  4 28  1  0
  5  8  4  0
  5 17  4  0
  6  7  4  0
  6 16  4  0
  7 18  4  0
  8 27  4  0
  9 13  4  0
  9 23  4  0
 10 11  1  0
 11 14  2  0
 11 27  1  0
 12 19  1  0
 12 24  4  0
 13 24  4  0
 15 18  1  0
 16 25  4  0
 16 26  4  0
 17 20  4  0
 17 28  1  0
 18 21  4  0
 21 26  4  0
 22 26  4  0
M  END
$$$$

 Created by Python create_sdf_string function

 28 30  0  0  0  0  0  0  0  0999 V2000
    5.7174   -8.4529   26.7190 C   0  0  0  0  0  0  0  0  0  0  0  0
    0.3974   -7.0711   27.5149 C   0  0  0  0  0  0  0  0  0  0  0  0
    2.5338   -7.6891   16.0102 C   0  0  0  0  0  0  0  0  0  0  0  0
    4.8690   -7.4380   26.4151 C   0  0  0  0  0  0  0  0  0  0  0  0
    2.3021   -5.6726   26.0378 C   0  0  0  0  0  0  0  0  0  0  0  0
    7.0880   -4.6163   27.0010 C   0  0  0  0  0  0  0  0  0  0  0  0
    8.3117   -4.3698   27.4436 C   0  0  0  0  0  0  0  0  0  0  0  0
    1.1339   -5.0515   26.3541 C   0  0  0  0  0  0  0  0  0  0  0  0
    4.8080   -8.0362   16.7101 C   0  0  0  0  0  0  0  0  0  0  0  0
   -1.2173   -3.9294   26.9717 O   0  0  0  0  0  0  0  0  0  0  0  0
   -1.0025   -5.0942   27.4586 C   0  0  0  0  0  0  0  0  0  0  0  0
    2.2474   -8.9123   16.6273 C   0  0  0  0  0  0  0  0  0  0  0  0
    4.4957   -9.2636   17.3041 C   0  0  0  0  0  0  0  0  0  0  0  0
   -1.8070   -5.6086   28.1920 O   0  0  0  0  0  0  0  0  0  0  0  0
   10.4296   -5.1799   28.3140 C   0  0  0  0  0  0  0  0  0  0  0  0
    6.6017   -5.9004   26.9187 C   0  0  0  0  0  0  0  0  0  0  0  0
    2.4761   -6.9940   26.4111 N   0  0  0  0  0  0  0  0  0  0  0  0
    9.1353   -5.4053   27.8239 C   0  0  0  0  0  0  0  0  0  0  0  0
    0.9922   -9.3232   16.5995 O   0  0  0  0  0  0  0  0  0  0  0  0
    1.5232   -7.6869   27.1182 C   0  0  0  0  0  0  0  0  0  0  0  0
    8.6878   -6.6715   27.7262 N   0  0  0  0  0  0  0  0  0  0  0  0
    6.9911   -8.2423   27.1808 C   0  0  0  0  0  0  0  0  0  0  0  0
    3.8436   -7.2758   16.0578 C   0  0  0  0  0  0  0  0  0  0  0  0
    3.1882   -9.7190   17.2566 C   0  0  0  0  0  0  0  0  0  0  0  0
    5.3488   -6.1737   26.5092 C   0  0  0  0  0  0  0  0  0  0  0  0
    7.4567   -6.9464   27.2858 C   0  0  0  0  0  0  0  0  0  0  0  0
    0.1921   -5.7592   27.1123 C   0  0  0  0  0  0  0  0  0  0  0  0
    3.5517   -7.7407   25.9711 C   0  0  0  0  0  0  0  0  0  0  0  0
  1  4  4  0
  1 22  4  0
  2 20  4  0
  2 27  4  0
  3 12  4  0
  3 23  4  0
  4 25  4  0
  4 28  1  0
  5  8  4  0
  5 17  4  0
  6  7  4  0
  6 16  4  0
  7 18  4  0
  8 27  4  0
  9 13  4  0
  9 23  4  0
 10 11  1  0
 11 14  2  0
 11 27  1  0
 12 19  1  0
 12 24  4  0
 13 24  4  0
 15 18  1  0
 16 25  4  0
 16 26  4  0
 17 20  4  0
 17 28  1  0
 18 21  4  0
 21 26  4  0
 22 26  4  0
M  END
$$$$

 Created by Python create_sdf_string function

 28 30  0  0  0  0  0  0  0  0999 V2000
    5.7174   -8.4529   26.7190 C   0  0  0  0  0  0  0  0  0  0  0  0
    0.3974   -7.0711   27.5149 C   0  0  0  0  0  0  0  0  0  0  0  0
    2.5338   -7.6891   16.0102 C   0  0  0  0  0  0  0  0  0  0  0  0
    4.8690   -7.4380   26.4151 C   0  0  0  0  0  0  0  0  0  0  0  0
    2.3021   -5.6726   26.0378 C   0  0  0  0  0  0  0  0  0  0  0  0
    7.0880   -4.6163   27.0010 C   0  0  0  0  0  0  0  0  0  0  0  0
    8.3117   -4.3698   27.4436 C   0  0  0  0  0  0  0  0  0  0  0  0
    1.1339   -5.0515   26.3541 C   0  0  0  0  0  0  0  0  0  0  0  0
    4.8080   -8.0362   16.7101 C   0  0  0  0  0  0  0  0  0  0  0  0
   -1.2173   -3.9294   26.9717 O   0  0  0  0  0  0  0  0  0  0  0  0
   -1.0025   -5.0942   27.4586 C   0  0  0  0  0  0  0  0  0  0  0  0
    2.2474   -8.9123   16.6273 C   0  0  0  0  0  0  0  0  0  0  0  0
    4.4957   -9.2636   17.3041 C   0  0  0  0  0  0  0  0  0  0  0  0
   -1.8070   -5.6086   28.1920 O   0  0  0  0  0  0  0  0  0  0  0  0
   10.4296   -5.1799   28.3140 C   0  0  0  0  0  0  0  0  0  0  0  0
    6.6017   -5.9004   26.9187 C   0  0  0  0  0  0  0  0  0  0  0  0
    2.4761   -6.9940   26.4111 N   0  0  0  0  0  0  0  0  0  0  0  0
    9.1353   -5.4053   27.8239 C   0  0  0  0  0  0  0  0  0  0  0  0
    0.9922   -9.3232   16.5995 O   0  0  0  0  0  0  0  0  0  0  0  0
    1.5232   -7.6869   27.1182 C   0  0  0  0  0  0  0  0  0  0  0  0
    8.6878   -6.6715   27.7262 N   0  0  0  0  0  0  0  0  0  0  0  0
    6.9911   -8.2423   27.1808 C   0  0  0  0  0  0  0  0  0  0  0  0
    3.8436   -7.2758   16.0578 C   0  0  0  0  0  0  0  0  0  0  0  0
    3.1882   -9.7190   17.2566 C   0  0  0  0  0  0  0  0  0  0  0  0
    5.3488   -6.1737   26.5092 C   0  0  0  0  0  0  0  0  0  0  0  0
    7.4567   -6.9464   27.2858 C   0  0  0  0  0  0  0  0  0  0  0  0
    0.1921   -5.7592   27.1123 C   0  0  0  0  0  0  0  0  0  0  0  0
    3.5517   -7.7407   25.9711 C   0  0  0  0  0  0  0  0  0  0  0  0
  1  4  4  0
  1 22  4  0
  2 20  4  0
  2 27  4  0
  3 12  4  0
  3 23  4  0
  4 25  4  0
  4 28  1  0
  5  8  4  0
  5 17  4  0
  6  7  4  0
  6 16  4  0
  7 18  4  0
  8 27  4  0
  9 13  4  0
  9 23  4  0
 10 11  1  0
 11 14  2  0
 11 27  1  0
 12 19  1  0
 12 24  4  0
 13 24  4  0
 15 18  1  0
 16 25  4  0
 16 26  4  0
 17 20  4  0
 17 28  1  0
 18 21  4  0
 21 26  4  0
 22 26  4  0
M  END
$$$$

 Created by Python create_sdf_string function

 28 30  0  0  0  0  0  0  0  0999 V2000
    5.7174   -8.4529   26.7190 C   0  0  0  0  0  0  0  0  0  0  0  0
    0.3974   -7.0711   27.5149 C   0  0  0  0  0  0  0  0  0  0  0  0
    2.5338   -7.6891   16.0102 C   0  0  0  0  0  0  0  0  0  0  0  0
    4.8690   -7.4380   26.4151 C   0  0  0  0  0  0  0  0  0  0  0  0
    2.3021   -5.6726   26.0378 C   0  0  0  0  0  0  0  0  0  0  0  0
    7.0880   -4.6163   27.0010 C   0  0  0  0  0  0  0  0  0  0  0  0
    8.3117   -4.3698   27.4436 C   0  0  0  0  0  0  0  0  0  0  0  0
    1.1339   -5.0515   26.3541 C   0  0  0  0  0  0  0  0  0  0  0  0
    4.8080   -8.0362   16.7101 C   0  0  0  0  0  0  0  0  0  0  0  0
   -1.2173   -3.9294   26.9717 O   0  0  0  0  0  0  0  0  0  0  0  0
   -1.0025   -5.0942   27.4586 C   0  0  0  0  0  0  0  0  0  0  0  0
    2.2474   -8.9123   16.6273 C   0  0  0  0  0  0  0  0  0  0  0  0
    4.4957   -9.2636   17.3041 C   0  0  0  0  0  0  0  0  0  0  0  0
   -1.8070   -5.6086   28.1920 O   0  0  0  0  0  0  0  0  0  0  0  0
   10.4296   -5.1799   28.3140 C   0  0  0  0  0  0  0  0  0  0  0  0
    6.6017   -5.9004   26.9187 C   0  0  0  0  0  0  0  0  0  0  0  0
    2.4761   -6.9940   26.4111 N   0  0  0  0  0  0  0  0  0  0  0  0
    9.1353   -5.4053   27.8239 C   0  0  0  0  0  0  0  0  0  0  0  0
    0.9922   -9.3232   16.5995 O   0  0  0  0  0  0  0  0  0  0  0  0
    1.5232   -7.6869   27.1182 C   0  0  0  0  0  0  0  0  0  0  0  0
    8.6878   -6.6715   27.7262 N   0  0  0  0  0  0  0  0  0  0  0  0
    6.9911   -8.2423   27.1808 C   0  0  0  0  0  0  0  0  0  0  0  0
    3.8436   -7.2758   16.0578 C   0  0  0  0  0  0  0  0  0  0  0  0
    3.1882   -9.7190   17.2566 C   0  0  0  0  0  0  0  0  0  0  0  0
    5.3488   -6.1737   26.5092 C   0  0  0  0  0  0  0  0  0  0  0  0
    7.4567   -6.9464   27.2858 C   0  0  0  0  0  0  0  0  0  0  0  0
    0.1921   -5.7592   27.1123 C   0  0  0  0  0  0  0  0  0  0  0  0
    3.5517   -7.7407   25.9711 C   0  0  0  0  0  0  0  0  0  0  0  0
  1  4  4  0
  1 22  4  0
  2 20  4  0
  2 27  4  0
  3 12  4  0
  3 23  4  0
  4 25  4  0
  4 28  1  0
  5  8  4  0
  5 17  4  0
  6  7  4  0
  6 16  4  0
  7 18  4  0
  8 27  4  0
  9 13  4  0
  9 23  4  0
 10 11  1  0
 11 14  2  0
 11 27  1  0
 12 19  1  0
 12 24  4  0
 13 24  4  0
 15 18  1  0
 16 25  4  0
 16 26  4  0
 17 20  4  0
 17 28  1  0
 18 21  4  0
 21 26  4  0
 22 26  4  0
M  END
$$$$

 Created by Python create_sdf_string function

 28 30  0  0  0  0  0  0  0  0999 V2000
    5.7174   -8.4529   26.7190 C   0  0  0  0  0  0  0  0  0  0  0  0
    0.3974   -7.0711   27.5149 C   0  0  0  0  0  0  0  0  0  0  0  0
    2.5338   -7.6891   16.0102 C   0  0  0  0  0  0  0  0  0  0  0  0
    4.8690   -7.4380   26.4151 C   0  0  0  0  0  0  0  0  0  0  0  0
    2.3021   -5.6726   26.0378 C   0  0  0  0  0  0  0  0  0  0  0  0
    7.0880   -4.6163   27.0010 C   0  0  0  0  0  0  0  0  0  0  0  0
    8.3117   -4.3698   27.4436 C   0  0  0  0  0  0  0  0  0  0  0  0
    1.1339   -5.0515   26.3541 C   0  0  0  0  0  0  0  0  0  0  0  0
    4.8080   -8.0362   16.7101 C   0  0  0  0  0  0  0  0  0  0  0  0
   -1.2173   -3.9294   26.9717 O   0  0  0  0  0  0  0  0  0  0  0  0
   -1.0025   -5.0942   27.4586 C   0  0  0  0  0  0  0  0  0  0  0  0
    2.2474   -8.9123   16.6273 C   0  0  0  0  0  0  0  0  0  0  0  0
    4.4957   -9.2636   17.3041 C   0  0  0  0  0  0  0  0  0  0  0  0
   -1.8070   -5.6086   28.1920 O   0  0  0  0  0  0  0  0  0  0  0  0
   10.4296   -5.1799   28.3140 C   0  0  0  0  0  0  0  0  0  0  0  0
    6.6017   -5.9004   26.9187 C   0  0  0  0  0  0  0  0  0  0  0  0
    2.4761   -6.9940   26.4111 N   0  0  0  0  0  0  0  0  0  0  0  0
    9.1353   -5.4053   27.8239 C   0  0  0  0  0  0  0  0  0  0  0  0
    0.9922   -9.3232   16.5995 O   0  0  0  0  0  0  0  0  0  0  0  0
    1.5232   -7.6869   27.1182 C   0  0  0  0  0  0  0  0  0  0  0  0
    8.6878   -6.6715   27.7262 N   0  0  0  0  0  0  0  0  0  0  0  0
    6.9911   -8.2423   27.1808 C   0  0  0  0  0  0  0  0  0  0  0  0
    3.8436   -7.2758   16.0578 C   0  0  0  0  0  0  0  0  0  0  0  0
    3.1882   -9.7190   17.2566 C   0  0  0  0  0  0  0  0  0  0  0  0
    5.3488   -6.1737   26.5092 C   0  0  0  0  0  0  0  0  0  0  0  0
    7.4567   -6.9464   27.2858 C   0  0  0  0  0  0  0  0  0  0  0  0
    0.1921   -5.7592   27.1123 C   0  0  0  0  0  0  0  0  0  0  0  0
    3.5517   -7.7407   25.9711 C   0  0  0  0  0  0  0  0  0  0  0  0
  1  4  4  0
  1 22  4  0
  2 20  4  0
  2 27  4  0
  3 12  4  0
  3 23  4  0
  4 25  4  0
  4 28  1  0
  5  8  4  0
  5 17  4  0
  6  7  4  0
  6 16  4  0
  7 18  4  0
  8 27  4  0
  9 13  4  0
  9 23  4  0
 10 11  1  0
 11 14  2  0
 11 27  1  0
 12 19  1  0
 12 24  4  0
 13 24  4  0
 15 18  1  0
 16 25  4  0
 16 26  4  0
 17 20  4  0
 17 28  1  0
 18 21  4  0
 21 26  4  0
 22 26  4  0
M  END
$$$$

 Created by Python create_sdf_string function

 28 30  0  0  0  0  0  0  0  0999 V2000
    5.7174   -8.4529   26.7190 C   0  0  0  0  0  0  0  0  0  0  0  0
    0.3974   -7.0711   27.5149 C   0  0  0  0  0  0  0  0  0  0  0  0
    2.5338   -7.6891   16.0102 C   0  0  0  0  0  0  0  0  0  0  0  0
    4.8690   -7.4380   26.4151 C   0  0  0  0  0  0  0  0  0  0  0  0
    2.3021   -5.6726   26.0378 C   0  0  0  0  0  0  0  0  0  0  0  0
    7.0880   -4.6163   27.0010 C   0  0  0  0  0  0  0  0  0  0  0  0
    8.3117   -4.3698   27.4436 C   0  0  0  0  0  0  0  0  0  0  0  0
    1.1339   -5.0515   26.3541 C   0  0  0  0  0  0  0  0  0  0  0  0
    4.8080   -8.0362   16.7101 C   0  0  0  0  0  0  0  0  0  0  0  0
   -1.2173   -3.9294   26.9717 O   0  0  0  0  0  0  0  0  0  0  0  0
   -1.0025   -5.0942   27.4586 C   0  0  0  0  0  0  0  0  0  0  0  0
    2.2474   -8.9123   16.6273 C   0  0  0  0  0  0  0  0  0  0  0  0
    4.4957   -9.2636   17.3041 C   0  0  0  0  0  0  0  0  0  0  0  0
   -1.8070   -5.6086   28.1920 O   0  0  0  0  0  0  0  0  0  0  0  0
   10.4296   -5.1799   28.3140 C   0  0  0  0  0  0  0  0  0  0  0  0
    6.6017   -5.9004   26.9187 C   0  0  0  0  0  0  0  0  0  0  0  0
    2.4761   -6.9940   26.4111 N   0  0  0  0  0  0  0  0  0  0  0  0
    9.1353   -5.4053   27.8239 C   0  0  0  0  0  0  0  0  0  0  0  0
    0.9922   -9.3232   16.5995 O   0  0  0  0  0  0  0  0  0  0  0  0
    1.5232   -7.6869   27.1182 C   0  0  0  0  0  0  0  0  0  0  0  0
    8.6878   -6.6715   27.7262 N   0  0  0  0  0  0  0  0  0  0  0  0
    6.9911   -8.2423   27.1808 C   0  0  0  0  0  0  0  0  0  0  0  0
    3.8436   -7.2758   16.0578 C   0  0  0  0  0  0  0  0  0  0  0  0
    3.1882   -9.7190   17.2566 C   0  0  0  0  0  0  0  0  0  0  0  0
    5.3488   -6.1737   26.5092 C   0  0  0  0  0  0  0  0  0  0  0  0
    7.4567   -6.9464   27.2858 C   0  0  0  0  0  0  0  0  0  0  0  0
    0.1921   -5.7592   27.1123 C   0  0  0  0  0  0  0  0  0  0  0  0
    3.5517   -7.7407   25.9711 C   0  0  0  0  0  0  0  0  0  0  0  0
  1  4  4  0
  1 22  4  0
  2 20  4  0
  2 27  4  0
  3 12  4  0
  3 23  4  0
  4 25  4  0
  4 28  1  0
  5  8  4  0
  5 17  4  0
  6  7  4  0
  6 16  4  0
  7 18  4  0
  8 27  4  0
  9 13  4  0
  9 23  4  0
 10 11  1  0
 11 14  2  0
 11 27  1  0
 12 19  1  0
 12 24  4  0
 13 24  4  0
 15 18  1  0
 16 25  4  0
 16 26  4  0
 17 20  4  0
 17 28  1  0
 18 21  4  0
 21 26  4  0
 22 26  4  0
M  END
$$$$

 Created by Python create_sdf_string function

 28 30  0  0  0  0  0  0  0  0999 V2000
    5.7174   -8.4529   26.7190 C   0  0  0  0  0  0  0  0  0  0  0  0
    0.3974   -7.0711   27.5149 C   0  0  0  0  0  0  0  0  0  0  0  0
    2.5338   -7.6891   16.0102 C   0  0  0  0  0  0  0  0  0  0  0  0
    4.8690   -7.4380   26.4151 C   0  0  0  0  0  0  0  0  0  0  0  0
    2.3021   -5.6726   26.0378 C   0  0  0  0  0  0  0  0  0  0  0  0
    7.0880   -4.6163   27.0010 C   0  0  0  0  0  0  0  0  0  0  0  0
    8.3117   -4.3698   27.4436 C   0  0  0  0  0  0  0  0  0  0  0  0
    1.1339   -5.0515   26.3541 C   0  0  0  0  0  0  0  0  0  0  0  0
    4.8080   -8.0362   16.7101 C   0  0  0  0  0  0  0  0  0  0  0  0
   -1.2173   -3.9294   26.9717 O   0  0  0  0  0  0  0  0  0  0  0  0
   -1.0025   -5.0942   27.4586 C   0  0  0  0  0  0  0  0  0  0  0  0
    2.2474   -8.9123   16.6273 C   0  0  0  0  0  0  0  0  0  0  0  0
    4.4957   -9.2636   17.3041 C   0  0  0  0  0  0  0  0  0  0  0  0
   -1.8070   -5.6086   28.1920 O   0  0  0  0  0  0  0  0  0  0  0  0
   10.4296   -5.1799   28.3140 C   0  0  0  0  0  0  0  0  0  0  0  0
    6.6017   -5.9004   26.9187 C   0  0  0  0  0  0  0  0  0  0  0  0
    2.4761   -6.9940   26.4111 N   0  0  0  0  0  0  0  0  0  0  0  0
    9.1353   -5.4053   27.8239 C   0  0  0  0  0  0  0  0  0  0  0  0
    0.9922   -9.3232   16.5995 O   0  0  0  0  0  0  0  0  0  0  0  0
    1.5232   -7.6869   27.1182 C   0  0  0  0  0  0  0  0  0  0  0  0
    8.6878   -6.6715   27.7262 N   0  0  0  0  0  0  0  0  0  0  0  0
    6.9911   -8.2423   27.1808 C   0  0  0  0  0  0  0  0  0  0  0  0
    3.8436   -7.2758   16.0578 C   0  0  0  0  0  0  0  0  0  0  0  0
    3.1882   -9.7190   17.2566 C   0  0  0  0  0  0  0  0  0  0  0  0
    5.3488   -6.1737   26.5092 C   0  0  0  0  0  0  0  0  0  0  0  0
    7.4567   -6.9464   27.2858 C   0  0  0  0  0  0  0  0  0  0  0  0
    0.1921   -5.7592   27.1123 C   0  0  0  0  0  0  0  0  0  0  0  0
    3.5517   -7.7407   25.9711 C   0  0  0  0  0  0  0  0  0  0  0  0
  1  4  4  0
  1 22  4  0
  2 20  4  0
  2 27  4  0
  3 12  4  0
  3 23  4  0
  4 25  4  0
  4 28  1  0
  5  8  4  0
  5 17  4  0
  6  7  4  0
  6 16  4  0
  7 18  4  0
  8 27  4  0
  9 13  4  0
  9 23  4  0
 10 11  1  0
 11 14  2  0
 11 27  1  0
 12 19  1  0
 12 24  4  0
 13 24  4  0
 15 18  1  0
 16 25  4  0
 16 26  4  0
 17 20  4  0
 17 28  1  0
 18 21  4  0
 21 26  4  0
 22 26  4  0
M  END
$$$$

 Created by Python create_sdf_string function

 28 30  0  0  0  0  0  0  0  0999 V2000
    5.7174   -8.4529   26.7190 C   0  0  0  0  0  0  0  0  0  0  0  0
    0.3974   -7.0711   27.5149 C   0  0  0  0  0  0  0  0  0  0  0  0
    2.5338   -7.6891   16.0102 C   0  0  0  0  0  0  0  0  0  0  0  0
    4.8690   -7.4380   26.4151 C   0  0  0  0  0  0  0  0  0  0  0  0
    2.3021   -5.6726   26.0378 C   0  0  0  0  0  0  0  0  0  0  0  0
    7.0880   -4.6163   27.0010 C   0  0  0  0  0  0  0  0  0  0  0  0
    8.3117   -4.3698   27.4436 C   0  0  0  0  0  0  0  0  0  0  0  0
    1.1339   -5.0515   26.3541 C   0  0  0  0  0  0  0  0  0  0  0  0
    4.8080   -8.0362   16.7101 C   0  0  0  0  0  0  0  0  0  0  0  0
   -1.2173   -3.9294   26.9717 O   0  0  0  0  0  0  0  0  0  0  0  0
   -1.0025   -5.0942   27.4586 C   0  0  0  0  0  0  0  0  0  0  0  0
    2.2474   -8.9123   16.6273 C   0  0  0  0  0  0  0  0  0  0  0  0
    4.4957   -9.2636   17.3041 C   0  0  0  0  0  0  0  0  0  0  0  0
   -1.8070   -5.6086   28.1920 O   0  0  0  0  0  0  0  0  0  0  0  0
   10.4296   -5.1799   28.3140 C   0  0  0  0  0  0  0  0  0  0  0  0
    6.6017   -5.9004   26.9187 C   0  0  0  0  0  0  0  0  0  0  0  0
    2.4761   -6.9940   26.4111 N   0  0  0  0  0  0  0  0  0  0  0  0
    9.1353   -5.4053   27.8239 C   0  0  0  0  0  0  0  0  0  0  0  0
    0.9922   -9.3232   16.5995 O   0  0  0  0  0  0  0  0  0  0  0  0
    1.5232   -7.6869   27.1182 C   0  0  0  0  0  0  0  0  0  0  0  0
    8.6878   -6.6715   27.7262 N   0  0  0  0  0  0  0  0  0  0  0  0
    6.9911   -8.2423   27.1808 C   0  0  0  0  0  0  0  0  0  0  0  0
    3.8436   -7.2758   16.0578 C   0  0  0  0  0  0  0  0  0  0  0  0
    3.1882   -9.7190   17.2566 C   0  0  0  0  0  0  0  0  0  0  0  0
    5.3488   -6.1737   26.5092 C   0  0  0  0  0  0  0  0  0  0  0  0
    7.4567   -6.9464   27.2858 C   0  0  0  0  0  0  0  0  0  0  0  0
    0.1921   -5.7592   27.1123 C   0  0  0  0  0  0  0  0  0  0  0  0
    3.5517   -7.7407   25.9711 C   0  0  0  0  0  0  0  0  0  0  0  0
  1  4  4  0
  1 22  4  0
  2 20  4  0
  2 27  4  0
  3 12  4  0
  3 23  4  0
  4 25  4  0
  4 28  1  0
  5  8  4  0
  5 17  4  0
  6  7  4  0
  6 16  4  0
  7 18  4  0
  8 27  4  0
  9 13  4  0
  9 23  4  0
 10 11  1  0
 11 14  2  0
 11 27  1  0
 12 19  1  0
 12 24  4  0
 13 24  4  0
 15 18  1  0
 16 25  4  0
 16 26  4  0
 17 20  4  0
 17 28  1  0
 18 21  4  0
 21 26  4  0
 22 26  4  0
M  END
$$$$

 Created by Python create_sdf_string function

 28 30  0  0  0  0  0  0  0  0999 V2000
    5.7174   -8.4529   26.7190 C   0  0  0  0  0  0  0  0  0  0  0  0
    0.3974   -7.0711   27.5149 C   0  0  0  0  0  0  0  0  0  0  0  0
    2.5338   -7.6891   16.0102 C   0  0  0  0  0  0  0  0  0  0  0  0
    4.8690   -7.4380   26.4151 C   0  0  0  0  0  0  0  0  0  0  0  0
    2.3021   -5.6726   26.0378 C   0  0  0  0  0  0  0  0  0  0  0  0
    7.0880   -4.6163   27.0010 C   0  0  0  0  0  0  0  0  0  0  0  0
    8.3117   -4.3698   27.4436 C   0  0  0  0  0  0  0  0  0  0  0  0
    1.1339   -5.0515   26.3541 C   0  0  0  0  0  0  0  0  0  0  0  0
    4.8080   -8.0362   16.7101 C   0  0  0  0  0  0  0  0  0  0  0  0
   -1.2173   -3.9294   26.9717 O   0  0  0  0  0  0  0  0  0  0  0  0
   -1.0025   -5.0942   27.4586 C   0  0  0  0  0  0  0  0  0  0  0  0
    2.2474   -8.9123   16.6273 C   0  0  0  0  0  0  0  0  0  0  0  0
    4.4957   -9.2636   17.3041 C   0  0  0  0  0  0  0  0  0  0  0  0
   -1.8070   -5.6086   28.1920 O   0  0  0  0  0  0  0  0  0  0  0  0
   10.4296   -5.1799   28.3140 C   0  0  0  0  0  0  0  0  0  0  0  0
    6.6017   -5.9004   26.9187 C   0  0  0  0  0  0  0  0  0  0  0  0
    2.4761   -6.9940   26.4111 N   0  0  0  0  0  0  0  0  0  0  0  0
    9.1353   -5.4053   27.8239 C   0  0  0  0  0  0  0  0  0  0  0  0
    0.9922   -9.3232   16.5995 O   0  0  0  0  0  0  0  0  0  0  0  0
    1.5232   -7.6869   27.1182 C   0  0  0  0  0  0  0  0  0  0  0  0
    8.6878   -6.6715   27.7262 N   0  0  0  0  0  0  0  0  0  0  0  0
    6.9911   -8.2423   27.1808 C   0  0  0  0  0  0  0  0  0  0  0  0
    3.8436   -7.2758   16.0578 C   0  0  0  0  0  0  0  0  0  0  0  0
    3.1882   -9.7190   17.2566 C   0  0  0  0  0  0  0  0  0  0  0  0
    5.3488   -6.1737   26.5092 C   0  0  0  0  0  0  0  0  0  0  0  0
    7.4567   -6.9464   27.2858 C   0  0  0  0  0  0  0  0  0  0  0  0
    0.1921   -5.7592   27.1123 C   0  0  0  0  0  0  0  0  0  0  0  0
    3.5517   -7.7407   25.9711 C   0  0  0  0  0  0  0  0  0  0  0  0
  1  4  4  0
  1 22  4  0
  2 20  4  0
  2 27  4  0
  3 12  4  0
  3 23  4  0
  4 25  4  0
  4 28  1  0
  5  8  4  0
  5 17  4  0
  6  7  4  0
  6 16  4  0
  7 18  4  0
  8 27  4  0
  9 13  4  0
  9 23  4  0
 10 11  1  0
 11 14  2  0
 11 27  1  0
 12 19  1  0
 12 24  4  0
 13 24  4  0
 15 18  1  0
 16 25  4  0
 16 26  4  0
 17 20  4  0
 17 28  1  0
 18 21  4  0
 21 26  4  0
 22 26  4  0
M  END
$$$$

 Created by Python create_sdf_string function

 28 30  0  0  0  0  0  0  0  0999 V2000
    5.7174   -8.4529   26.7190 C   0  0  0  0  0  0  0  0  0  0  0  0
    0.3974   -7.0711   27.5149 C   0  0  0  0  0  0  0  0  0  0  0  0
    2.5338   -7.6891   16.0102 C   0  0  0  0  0  0  0  0  0  0  0  0
    4.8690   -7.4380   26.4151 C   0  0  0  0  0  0  0  0  0  0  0  0
    2.3021   -5.6726   26.0378 C   0  0  0  0  0  0  0  0  0  0  0  0
    7.0880   -4.6163   27.0010 C   0  0  0  0  0  0  0  0  0  0  0  0
    8.3117   -4.3698   27.4436 C   0  0  0  0  0  0  0  0  0  0  0  0
    1.1339   -5.0515   26.3541 C   0  0  0  0  0  0  0  0  0  0  0  0
    4.8080   -8.0362   16.7101 C   0  0  0  0  0  0  0  0  0  0  0  0
   -1.2173   -3.9294   26.9717 O   0  0  0  0  0  0  0  0  0  0  0  0
   -1.0025   -5.0942   27.4586 C   0  0  0  0  0  0  0  0  0  0  0  0
    2.2474   -8.9123   16.6273 C   0  0  0  0  0  0  0  0  0  0  0  0
    4.4957   -9.2636   17.3041 C   0  0  0  0  0  0  0  0  0  0  0  0
   -1.8070   -5.6086   28.1920 O   0  0  0  0  0  0  0  0  0  0  0  0
   10.4296   -5.1799   28.3140 C   0  0  0  0  0  0  0  0  0  0  0  0
    6.6017   -5.9004   26.9187 C   0  0  0  0  0  0  0  0  0  0  0  0
    2.4761   -6.9940   26.4111 N   0  0  0  0  0  0  0  0  0  0  0  0
    9.1353   -5.4053   27.8239 C   0  0  0  0  0  0  0  0  0  0  0  0
    0.9922   -9.3232   16.5995 O   0  0  0  0  0  0  0  0  0  0  0  0
    1.5232   -7.6869   27.1182 C   0  0  0  0  0  0  0  0  0  0  0  0
    8.6878   -6.6715   27.7262 N   0  0  0  0  0  0  0  0  0  0  0  0
    6.9911   -8.2423   27.1808 C   0  0  0  0  0  0  0  0  0  0  0  0
    3.8436   -7.2758   16.0578 C   0  0  0  0  0  0  0  0  0  0  0  0
    3.1882   -9.7190   17.2566 C   0  0  0  0  0  0  0  0  0  0  0  0
    5.3488   -6.1737   26.5092 C   0  0  0  0  0  0  0  0  0  0  0  0
    7.4567   -6.9464   27.2858 C   0  0  0  0  0  0  0  0  0  0  0  0
    0.1921   -5.7592   27.1123 C   0  0  0  0  0  0  0  0  0  0  0  0
    3.5517   -7.7407   25.9711 C   0  0  0  0  0  0  0  0  0  0  0  0
  1  4  4  0
  1 22  4  0
  2 20  4  0
  2 27  4  0
  3 12  4  0
  3 23  4  0
  4 25  4  0
  4 28  1  0
  5  8  4  0
  5 17  4  0
  6  7  4  0
  6 16  4  0
  7 18  4  0
  8 27  4  0
  9 13  4  0
  9 23  4  0
 10 11  1  0
 11 14  2  0
 11 27  1  0
 12 19  1  0
 12 24  4  0
 13 24  4  0
 15 18  1  0
 16 25  4  0
 16 26  4  0
 17 20  4  0
 17 28  1  0
 18 21  4  0
 21 26  4  0
 22 26  4  0
M  END
$$$$

 Created by Python create_sdf_string function

 28 30  0  0  0  0  0  0  0  0999 V2000
    5.7174   -8.4529   26.7190 C   0  0  0  0  0  0  0  0  0  0  0  0
    0.3974   -7.0711   27.5149 C   0  0  0  0  0  0  0  0  0  0  0  0
    2.5338   -7.6891   16.0102 C   0  0  0  0  0  0  0  0  0  0  0  0
    4.8690   -7.4380   26.4151 C   0  0  0  0  0  0  0  0  0  0  0  0
    2.3021   -5.6726   26.0378 C   0  0  0  0  0  0  0  0  0  0  0  0
    7.0880   -4.6163   27.0010 C   0  0  0  0  0  0  0  0  0  0  0  0
    8.3117   -4.3698   27.4436 C   0  0  0  0  0  0  0  0  0  0  0  0
    1.1339   -5.0515   26.3541 C   0  0  0  0  0  0  0  0  0  0  0  0
    4.8080   -8.0362   16.7101 C   0  0  0  0  0  0  0  0  0  0  0  0
   -1.2173   -3.9294   26.9717 O   0  0  0  0  0  0  0  0  0  0  0  0
   -1.0025   -5.0942   27.4586 C   0  0  0  0  0  0  0  0  0  0  0  0
    2.2474   -8.9123   16.6273 C   0  0  0  0  0  0  0  0  0  0  0  0
    4.4957   -9.2636   17.3041 C   0  0  0  0  0  0  0  0  0  0  0  0
   -1.8070   -5.6086   28.1920 O   0  0  0  0  0  0  0  0  0  0  0  0
   10.4296   -5.1799   28.3140 C   0  0  0  0  0  0  0  0  0  0  0  0
    6.6017   -5.9004   26.9187 C   0  0  0  0  0  0  0  0  0  0  0  0
    2.4761   -6.9940   26.4111 N   0  0  0  0  0  0  0  0  0  0  0  0
    9.1353   -5.4053   27.8239 C   0  0  0  0  0  0  0  0  0  0  0  0
    0.9922   -9.3232   16.5995 O   0  0  0  0  0  0  0  0  0  0  0  0
    1.5232   -7.6869   27.1182 C   0  0  0  0  0  0  0  0  0  0  0  0
    8.6878   -6.6715   27.7262 N   0  0  0  0  0  0  0  0  0  0  0  0
    6.9911   -8.2423   27.1808 C   0  0  0  0  0  0  0  0  0  0  0  0
    3.8436   -7.2758   16.0578 C   0  0  0  0  0  0  0  0  0  0  0  0
    3.1882   -9.7190   17.2566 C   0  0  0  0  0  0  0  0  0  0  0  0
    5.3488   -6.1737   26.5092 C   0  0  0  0  0  0  0  0  0  0  0  0
    7.4567   -6.9464   27.2858 C   0  0  0  0  0  0  0  0  0  0  0  0
    0.1921   -5.7592   27.1123 C   0  0  0  0  0  0  0  0  0  0  0  0
    3.5517   -7.7407   25.9711 C   0  0  0  0  0  0  0  0  0  0  0  0
  1  4  4  0
  1 22  4  0
  2 20  4  0
  2 27  4  0
  3 12  4  0
  3 23  4  0
  4 25  4  0
  4 28  1  0
  5  8  4  0
  5 17  4  0
  6  7  4  0
  6 16  4  0
  7 18  4  0
  8 27  4  0
  9 13  4  0
  9 23  4  0
 10 11  1  0
 11 14  2  0
 11 27  1  0
 12 19  1  0
 12 24  4  0
 13 24  4  0
 15 18  1  0
 16 25  4  0
 16 26  4  0
 17 20  4  0
 17 28  1  0
 18 21  4  0
 21 26  4  0
 22 26  4  0
M  END
$$$$

 Created by Python create_sdf_string function

 28 30  0  0  0  0  0  0  0  0999 V2000
    5.7174   -8.4529   26.7190 C   0  0  0  0  0  0  0  0  0  0  0  0
    0.3974   -7.0711   27.5149 C   0  0  0  0  0  0  0  0  0  0  0  0
    2.5338   -7.6891   16.0102 C   0  0  0  0  0  0  0  0  0  0  0  0
    4.8690   -7.4380   26.4151 C   0  0  0  0  0  0  0  0  0  0  0  0
    2.3021   -5.6726   26.0378 C   0  0  0  0  0  0  0  0  0  0  0  0
    7.0880   -4.6163   27.0010 C   0  0  0  0  0  0  0  0  0  0  0  0
    8.3117   -4.3698   27.4436 C   0  0  0  0  0  0  0  0  0  0  0  0
    1.1339   -5.0515   26.3541 C   0  0  0  0  0  0  0  0  0  0  0  0
    4.8080   -8.0362   16.7101 C   0  0  0  0  0  0  0  0  0  0  0  0
   -1.2173   -3.9294   26.9717 O   0  0  0  0  0  0  0  0  0  0  0  0
   -1.0025   -5.0942   27.4586 C   0  0  0  0  0  0  0  0  0  0  0  0
    2.2474   -8.9123   16.6273 C   0  0  0  0  0  0  0  0  0  0  0  0
    4.4957   -9.2636   17.3041 C   0  0  0  0  0  0  0  0  0  0  0  0
   -1.8070   -5.6086   28.1920 O   0  0  0  0  0  0  0  0  0  0  0  0
   10.4296   -5.1799   28.3140 C   0  0  0  0  0  0  0  0  0  0  0  0
    6.6017   -5.9004   26.9187 C   0  0  0  0  0  0  0  0  0  0  0  0
    2.4761   -6.9940   26.4111 N   0  0  0  0  0  0  0  0  0  0  0  0
    9.1353   -5.4053   27.8239 C   0  0  0  0  0  0  0  0  0  0  0  0
    0.9922   -9.3232   16.5995 O   0  0  0  0  0  0  0  0  0  0  0  0
    1.5232   -7.6869   27.1182 C   0  0  0  0  0  0  0  0  0  0  0  0
    8.6878   -6.6715   27.7262 N   0  0  0  0  0  0  0  0  0  0  0  0
    6.9911   -8.2423   27.1808 C   0  0  0  0  0  0  0  0  0  0  0  0
    3.8436   -7.2758   16.0578 C   0  0  0  0  0  0  0  0  0  0  0  0
    3.1882   -9.7190   17.2566 C   0  0  0  0  0  0  0  0  0  0  0  0
    5.3488   -6.1737   26.5092 C   0  0  0  0  0  0  0  0  0  0  0  0
    7.4567   -6.9464   27.2858 C   0  0  0  0  0  0  0  0  0  0  0  0
    0.1921   -5.7592   27.1123 C   0  0  0  0  0  0  0  0  0  0  0  0
    3.5517   -7.7407   25.9711 C   0  0  0  0  0  0  0  0  0  0  0  0
  1  4  4  0
  1 22  4  0
  2 20  4  0
  2 27  4  0
  3 12  4  0
  3 23  4  0
  4 25  4  0
  4 28  1  0
  5  8  4  0
  5 17  4  0
  6  7  4  0
  6 16  4  0
  7 18  4  0
  8 27  4  0
  9 13  4  0
  9 23  4  0
 10 11  1  0
 11 14  2  0
 11 27  1  0
 12 19  1  0
 12 24  4  0
 13 24  4  0
 15 18  1  0
 16 25  4  0
 16 26  4  0
 17 20  4  0
 17 28  1  0
 18 21  4  0
 21 26  4  0
 22 26  4  0
M  END
$$$$

 Created by Python create_sdf_string function

 28 30  0  0  0  0  0  0  0  0999 V2000
    5.7174   -8.4529   26.7190 C   0  0  0  0  0  0  0  0  0  0  0  0
    0.3974   -7.0711   27.5149 C   0  0  0  0  0  0  0  0  0  0  0  0
    2.5338   -7.6891   16.0102 C   0  0  0  0  0  0  0  0  0  0  0  0
    4.8690   -7.4380   26.4151 C   0  0  0  0  0  0  0  0  0  0  0  0
    2.3021   -5.6726   26.0378 C   0  0  0  0  0  0  0  0  0  0  0  0
    7.0880   -4.6163   27.0010 C   0  0  0  0  0  0  0  0  0  0  0  0
    8.3117   -4.3698   27.4436 C   0  0  0  0  0  0  0  0  0  0  0  0
    1.1339   -5.0515   26.3541 C   0  0  0  0  0  0  0  0  0  0  0  0
    4.8080   -8.0362   16.7101 C   0  0  0  0  0  0  0  0  0  0  0  0
   -1.2173   -3.9294   26.9717 O   0  0  0  0  0  0  0  0  0  0  0  0
   -1.0025   -5.0942   27.4586 C   0  0  0  0  0  0  0  0  0  0  0  0
    2.2474   -8.9123   16.6273 C   0  0  0  0  0  0  0  0  0  0  0  0
    4.4957   -9.2636   17.3041 C   0  0  0  0  0  0  0  0  0  0  0  0
   -1.8070   -5.6086   28.1920 O   0  0  0  0  0  0  0  0  0  0  0  0
   10.4296   -5.1799   28.3140 C   0  0  0  0  0  0  0  0  0  0  0  0
    6.6017   -5.9004   26.9187 C   0  0  0  0  0  0  0  0  0  0  0  0
    2.4761   -6.9940   26.4111 N   0  0  0  0  0  0  0  0  0  0  0  0
    9.1353   -5.4053   27.8239 C   0  0  0  0  0  0  0  0  0  0  0  0
    0.9922   -9.3232   16.5995 O   0  0  0  0  0  0  0  0  0  0  0  0
    1.5232   -7.6869   27.1182 C   0  0  0  0  0  0  0  0  0  0  0  0
    8.6878   -6.6715   27.7262 N   0  0  0  0  0  0  0  0  0  0  0  0
    6.9911   -8.2423   27.1808 C   0  0  0  0  0  0  0  0  0  0  0  0
    3.8436   -7.2758   16.0578 C   0  0  0  0  0  0  0  0  0  0  0  0
    3.1882   -9.7190   17.2566 C   0  0  0  0  0  0  0  0  0  0  0  0
    5.3488   -6.1737   26.5092 C   0  0  0  0  0  0  0  0  0  0  0  0
    7.4567   -6.9464   27.2858 C   0  0  0  0  0  0  0  0  0  0  0  0
    0.1921   -5.7592   27.1123 C   0  0  0  0  0  0  0  0  0  0  0  0
    3.5517   -7.7407   25.9711 C   0  0  0  0  0  0  0  0  0  0  0  0
  1  4  4  0
  1 22  4  0
  2 20  4  0
  2 27  4  0
  3 12  4  0
  3 23  4  0
  4 25  4  0
  4 28  1  0
  5  8  4  0
  5 17  4  0
  6  7  4  0
  6 16  4  0
  7 18  4  0
  8 27  4  0
  9 13  4  0
  9 23  4  0
 10 11  1  0
 11 14  2  0
 11 27  1  0
 12 19  1  0
 12 24  4  0
 13 24  4  0
 15 18  1  0
 16 25  4  0
 16 26  4  0
 17 20  4  0
 17 28  1  0
 18 21  4  0
 21 26  4  0
 22 26  4  0
M  END
$$$$

 Created by Python create_sdf_string function

 28 30  0  0  0  0  0  0  0  0999 V2000
    5.7174   -8.4529   26.7190 C   0  0  0  0  0  0  0  0  0  0  0  0
    0.3974   -7.0711   27.5149 C   0  0  0  0  0  0  0  0  0  0  0  0
    2.5338   -7.6891   16.0102 C   0  0  0  0  0  0  0  0  0  0  0  0
    4.8690   -7.4380   26.4151 C   0  0  0  0  0  0  0  0  0  0  0  0
    2.3021   -5.6726   26.0378 C   0  0  0  0  0  0  0  0  0  0  0  0
    7.0880   -4.6163   27.0010 C   0  0  0  0  0  0  0  0  0  0  0  0
    8.3117   -4.3698   27.4436 C   0  0  0  0  0  0  0  0  0  0  0  0
    1.1339   -5.0515   26.3541 C   0  0  0  0  0  0  0  0  0  0  0  0
    4.8080   -8.0362   16.7101 C   0  0  0  0  0  0  0  0  0  0  0  0
   -1.2173   -3.9294   26.9717 O   0  0  0  0  0  0  0  0  0  0  0  0
   -1.0025   -5.0942   27.4586 C   0  0  0  0  0  0  0  0  0  0  0  0
    2.2474   -8.9123   16.6273 C   0  0  0  0  0  0  0  0  0  0  0  0
    4.4957   -9.2636   17.3041 C   0  0  0  0  0  0  0  0  0  0  0  0
   -1.8070   -5.6086   28.1920 O   0  0  0  0  0  0  0  0  0  0  0  0
   10.4296   -5.1799   28.3140 C   0  0  0  0  0  0  0  0  0  0  0  0
    6.6017   -5.9004   26.9187 C   0  0  0  0  0  0  0  0  0  0  0  0
    2.4761   -6.9940   26.4111 N   0  0  0  0  0  0  0  0  0  0  0  0
    9.1353   -5.4053   27.8239 C   0  0  0  0  0  0  0  0  0  0  0  0
    0.9922   -9.3232   16.5995 O   0  0  0  0  0  0  0  0  0  0  0  0
    1.5232   -7.6869   27.1182 C   0  0  0  0  0  0  0  0  0  0  0  0
    8.6878   -6.6715   27.7262 N   0  0  0  0  0  0  0  0  0  0  0  0
    6.9911   -8.2423   27.1808 C   0  0  0  0  0  0  0  0  0  0  0  0
    3.8436   -7.2758   16.0578 C   0  0  0  0  0  0  0  0  0  0  0  0
    3.1882   -9.7190   17.2566 C   0  0  0  0  0  0  0  0  0  0  0  0
    5.3488   -6.1737   26.5092 C   0  0  0  0  0  0  0  0  0  0  0  0
    7.4567   -6.9464   27.2858 C   0  0  0  0  0  0  0  0  0  0  0  0
    0.1921   -5.7592   27.1123 C   0  0  0  0  0  0  0  0  0  0  0  0
    3.5517   -7.7407   25.9711 C   0  0  0  0  0  0  0  0  0  0  0  0
  1  4  4  0
  1 22  4  0
  2 20  4  0
  2 27  4  0
  3 12  4  0
  3 23  4  0
  4 25  4  0
  4 28  1  0
  5  8  4  0
  5 17  4  0
  6  7  4  0
  6 16  4  0
  7 18  4  0
  8 27  4  0
  9 13  4  0
  9 23  4  0
 10 11  1  0
 11 14  2  0
 11 27  1  0
 12 19  1  0
 12 24  4  0
 13 24  4  0
 15 18  1  0
 16 25  4  0
 16 26  4  0
 17 20  4  0
 17 28  1  0
 18 21  4  0
 21 26  4  0
 22 26  4  0
M  END
$$$$

 Created by Python create_sdf_string function

 28 30  0  0  0  0  0  0  0  0999 V2000
    5.7174   -8.4529   26.7190 C   0  0  0  0  0  0  0  0  0  0  0  0
    0.3974   -7.0711   27.5149 C   0  0  0  0  0  0  0  0  0  0  0  0
    2.5338   -7.6891   16.0102 C   0  0  0  0  0  0  0  0  0  0  0  0
    4.8690   -7.4380   26.4151 C   0  0  0  0  0  0  0  0  0  0  0  0
    2.3021   -5.6726   26.0378 C   0  0  0  0  0  0  0  0  0  0  0  0
    7.0880   -4.6163   27.0010 C   0  0  0  0  0  0  0  0  0  0  0  0
    8.3117   -4.3698   27.4436 C   0  0  0  0  0  0  0  0  0  0  0  0
    1.1339   -5.0515   26.3541 C   0  0  0  0  0  0  0  0  0  0  0  0
    4.8080   -8.0362   16.7101 C   0  0  0  0  0  0  0  0  0  0  0  0
   -1.2173   -3.9294   26.9717 O   0  0  0  0  0  0  0  0  0  0  0  0
   -1.0025   -5.0942   27.4586 C   0  0  0  0  0  0  0  0  0  0  0  0
    2.2474   -8.9123   16.6273 C   0  0  0  0  0  0  0  0  0  0  0  0
    4.4957   -9.2636   17.3041 C   0  0  0  0  0  0  0  0  0  0  0  0
   -1.8070   -5.6086   28.1920 O   0  0  0  0  0  0  0  0  0  0  0  0
   10.4296   -5.1799   28.3140 C   0  0  0  0  0  0  0  0  0  0  0  0
    6.6017   -5.9004   26.9187 C   0  0  0  0  0  0  0  0  0  0  0  0
    2.4761   -6.9940   26.4111 N   0  0  0  0  0  0  0  0  0  0  0  0
    9.1353   -5.4053   27.8239 C   0  0  0  0  0  0  0  0  0  0  0  0
    0.9922   -9.3232   16.5995 O   0  0  0  0  0  0  0  0  0  0  0  0
    1.5232   -7.6869   27.1182 C   0  0  0  0  0  0  0  0  0  0  0  0
    8.6878   -6.6715   27.7262 N   0  0  0  0  0  0  0  0  0  0  0  0
    6.9911   -8.2423   27.1808 C   0  0  0  0  0  0  0  0  0  0  0  0
    3.8436   -7.2758   16.0578 C   0  0  0  0  0  0  0  0  0  0  0  0
    3.1882   -9.7190   17.2566 C   0  0  0  0  0  0  0  0  0  0  0  0
    5.3488   -6.1737   26.5092 C   0  0  0  0  0  0  0  0  0  0  0  0
    7.4567   -6.9464   27.2858 C   0  0  0  0  0  0  0  0  0  0  0  0
    0.1921   -5.7592   27.1123 C   0  0  0  0  0  0  0  0  0  0  0  0
    3.5517   -7.7407   25.9711 C   0  0  0  0  0  0  0  0  0  0  0  0
  1  4  4  0
  1 22  4  0
  2 20  4  0
  2 27  4  0
  3 12  4  0
  3 23  4  0
  4 25  4  0
  4 28  1  0
  5  8  4  0
  5 17  4  0
  6  7  4  0
  6 16  4  0
  7 18  4  0
  8 27  4  0
  9 13  4  0
  9 23  4  0
 10 11  1  0
 11 14  2  0
 11 27  1  0
 12 19  1  0
 12 24  4  0
 13 24  4  0
 15 18  1  0
 16 25  4  0
 16 26  4  0
 17 20  4  0
 17 28  1  0
 18 21  4  0
 21 26  4  0
 22 26  4  0
M  END
$$$$

 Created by Python create_sdf_string function

 28 30  0  0  0  0  0  0  0  0999 V2000
    5.7174   -8.4529   26.7190 C   0  0  0  0  0  0  0  0  0  0  0  0
    0.3974   -7.0711   27.5149 C   0  0  0  0  0  0  0  0  0  0  0  0
    2.5338   -7.6891   16.0102 C   0  0  0  0  0  0  0  0  0  0  0  0
    4.8690   -7.4380   26.4151 C   0  0  0  0  0  0  0  0  0  0  0  0
    2.3021   -5.6726   26.0378 C   0  0  0  0  0  0  0  0  0  0  0  0
    7.0880   -4.6163   27.0010 C   0  0  0  0  0  0  0  0  0  0  0  0
    8.3117   -4.3698   27.4436 C   0  0  0  0  0  0  0  0  0  0  0  0
    1.1339   -5.0515   26.3541 C   0  0  0  0  0  0  0  0  0  0  0  0
    4.8080   -8.0362   16.7101 C   0  0  0  0  0  0  0  0  0  0  0  0
   -1.2173   -3.9294   26.9717 O   0  0  0  0  0  0  0  0  0  0  0  0
   -1.0025   -5.0942   27.4586 C   0  0  0  0  0  0  0  0  0  0  0  0
    2.2474   -8.9123   16.6273 C   0  0  0  0  0  0  0  0  0  0  0  0
    4.4957   -9.2636   17.3041 C   0  0  0  0  0  0  0  0  0  0  0  0
   -1.8070   -5.6086   28.1920 O   0  0  0  0  0  0  0  0  0  0  0  0
   10.4296   -5.1799   28.3140 C   0  0  0  0  0  0  0  0  0  0  0  0
    6.6017   -5.9004   26.9187 C   0  0  0  0  0  0  0  0  0  0  0  0
    2.4761   -6.9940   26.4111 N   0  0  0  0  0  0  0  0  0  0  0  0
    9.1353   -5.4053   27.8239 C   0  0  0  0  0  0  0  0  0  0  0  0
    0.9922   -9.3232   16.5995 O   0  0  0  0  0  0  0  0  0  0  0  0
    1.5232   -7.6869   27.1182 C   0  0  0  0  0  0  0  0  0  0  0  0
    8.6878   -6.6715   27.7262 N   0  0  0  0  0  0  0  0  0  0  0  0
    6.9911   -8.2423   27.1808 C   0  0  0  0  0  0  0  0  0  0  0  0
    3.8436   -7.2758   16.0578 C   0  0  0  0  0  0  0  0  0  0  0  0
    3.1882   -9.7190   17.2566 C   0  0  0  0  0  0  0  0  0  0  0  0
    5.3488   -6.1737   26.5092 C   0  0  0  0  0  0  0  0  0  0  0  0
    7.4567   -6.9464   27.2858 C   0  0  0  0  0  0  0  0  0  0  0  0
    0.1921   -5.7592   27.1123 C   0  0  0  0  0  0  0  0  0  0  0  0
    3.5517   -7.7407   25.9711 C   0  0  0  0  0  0  0  0  0  0  0  0
  1  4  4  0
  1 22  4  0
  2 20  4  0
  2 27  4  0
  3 12  4  0
  3 23  4  0
  4 25  4  0
  4 28  1  0
  5  8  4  0
  5 17  4  0
  6  7  4  0
  6 16  4  0
  7 18  4  0
  8 27  4  0
  9 13  4  0
  9 23  4  0
 10 11  1  0
 11 14  2  0
 11 27  1  0
 12 19  1  0
 12 24  4  0
 13 24  4  0
 15 18  1  0
 16 25  4  0
 16 26  4  0
 17 20  4  0
 17 28  1  0
 18 21  4  0
 21 26  4  0
 22 26  4  0
M  END
$$$$

 Created by Python create_sdf_string function

 28 30  0  0  0  0  0  0  0  0999 V2000
    5.7174   -8.4529   26.7190 C   0  0  0  0  0  0  0  0  0  0  0  0
    0.3974   -7.0711   27.5149 C   0  0  0  0  0  0  0  0  0  0  0  0
    2.5338   -7.6891   16.0102 C   0  0  0  0  0  0  0  0  0  0  0  0
    4.8690   -7.4380   26.4151 C   0  0  0  0  0  0  0  0  0  0  0  0
    2.3021   -5.6726   26.0378 C   0  0  0  0  0  0  0  0  0  0  0  0
    7.0880   -4.6163   27.0010 C   0  0  0  0  0  0  0  0  0  0  0  0
    8.3117   -4.3698   27.4436 C   0  0  0  0  0  0  0  0  0  0  0  0
    1.1339   -5.0515   26.3541 C   0  0  0  0  0  0  0  0  0  0  0  0
    4.8080   -8.0362   16.7101 C   0  0  0  0  0  0  0  0  0  0  0  0
   -1.2173   -3.9294   26.9717 O   0  0  0  0  0  0  0  0  0  0  0  0
   -1.0025   -5.0942   27.4586 C   0  0  0  0  0  0  0  0  0  0  0  0
    2.2474   -8.9123   16.6273 C   0  0  0  0  0  0  0  0  0  0  0  0
    4.4957   -9.2636   17.3041 C   0  0  0  0  0  0  0  0  0  0  0  0
   -1.8070   -5.6086   28.1920 O   0  0  0  0  0  0  0  0  0  0  0  0
   10.4296   -5.1799   28.3140 C   0  0  0  0  0  0  0  0  0  0  0  0
    6.6017   -5.9004   26.9187 C   0  0  0  0  0  0  0  0  0  0  0  0
    2.4761   -6.9940   26.4111 N   0  0  0  0  0  0  0  0  0  0  0  0
    9.1353   -5.4053   27.8239 C   0  0  0  0  0  0  0  0  0  0  0  0
    0.9922   -9.3232   16.5995 O   0  0  0  0  0  0  0  0  0  0  0  0
    1.5232   -7.6869   27.1182 C   0  0  0  0  0  0  0  0  0  0  0  0
    8.6878   -6.6715   27.7262 N   0  0  0  0  0  0  0  0  0  0  0  0
    6.9911   -8.2423   27.1808 C   0  0  0  0  0  0  0  0  0  0  0  0
    3.8436   -7.2758   16.0578 C   0  0  0  0  0  0  0  0  0  0  0  0
    3.1882   -9.7190   17.2566 C   0  0  0  0  0  0  0  0  0  0  0  0
    5.3488   -6.1737   26.5092 C   0  0  0  0  0  0  0  0  0  0  0  0
    7.4567   -6.9464   27.2858 C   0  0  0  0  0  0  0  0  0  0  0  0
    0.1921   -5.7592   27.1123 C   0  0  0  0  0  0  0  0  0  0  0  0
    3.5517   -7.7407   25.9711 C   0  0  0  0  0  0  0  0  0  0  0  0
  1  4  4  0
  1 22  4  0
  2 20  4  0
  2 27  4  0
  3 12  4  0
  3 23  4  0
  4 25  4  0
  4 28  1  0
  5  8  4  0
  5 17  4  0
  6  7  4  0
  6 16  4  0
  7 18  4  0
  8 27  4  0
  9 13  4  0
  9 23  4  0
 10 11  1  0
 11 14  2  0
 11 27  1  0
 12 19  1  0
 12 24  4  0
 13 24  4  0
 15 18  1  0
 16 25  4  0
 16 26  4  0
 17 20  4  0
 17 28  1  0
 18 21  4  0
 21 26  4  0
 22 26  4  0
M  END
$$$$

 Created by Python create_sdf_string function

 28 30  0  0  0  0  0  0  0  0999 V2000
    5.7174   -8.4529   26.7190 C   0  0  0  0  0  0  0  0  0  0  0  0
    0.3974   -7.0711   27.5149 C   0  0  0  0  0  0  0  0  0  0  0  0
    2.5338   -7.6891   16.0102 C   0  0  0  0  0  0  0  0  0  0  0  0
    4.8690   -7.4380   26.4151 C   0  0  0  0  0  0  0  0  0  0  0  0
    2.3021   -5.6726   26.0378 C   0  0  0  0  0  0  0  0  0  0  0  0
    7.0880   -4.6163   27.0010 C   0  0  0  0  0  0  0  0  0  0  0  0
    8.3117   -4.3698   27.4436 C   0  0  0  0  0  0  0  0  0  0  0  0
    1.1339   -5.0515   26.3541 C   0  0  0  0  0  0  0  0  0  0  0  0
    4.8080   -8.0362   16.7101 C   0  0  0  0  0  0  0  0  0  0  0  0
   -1.2173   -3.9294   26.9717 O   0  0  0  0  0  0  0  0  0  0  0  0
   -1.0025   -5.0942   27.4586 C   0  0  0  0  0  0  0  0  0  0  0  0
    2.2474   -8.9123   16.6273 C   0  0  0  0  0  0  0  0  0  0  0  0
    4.4957   -9.2636   17.3041 C   0  0  0  0  0  0  0  0  0  0  0  0
   -1.8070   -5.6086   28.1920 O   0  0  0  0  0  0  0  0  0  0  0  0
   10.4296   -5.1799   28.3140 C   0  0  0  0  0  0  0  0  0  0  0  0
    6.6017   -5.9004   26.9187 C   0  0  0  0  0  0  0  0  0  0  0  0
    2.4761   -6.9940   26.4111 N   0  0  0  0  0  0  0  0  0  0  0  0
    9.1353   -5.4053   27.8239 C   0  0  0  0  0  0  0  0  0  0  0  0
    0.9922   -9.3232   16.5995 O   0  0  0  0  0  0  0  0  0  0  0  0
    1.5232   -7.6869   27.1182 C   0  0  0  0  0  0  0  0  0  0  0  0
    8.6878   -6.6715   27.7262 N   0  0  0  0  0  0  0  0  0  0  0  0
    6.9911   -8.2423   27.1808 C   0  0  0  0  0  0  0  0  0  0  0  0
    3.8436   -7.2758   16.0578 C   0  0  0  0  0  0  0  0  0  0  0  0
    3.1882   -9.7190   17.2566 C   0  0  0  0  0  0  0  0  0  0  0  0
    5.3488   -6.1737   26.5092 C   0  0  0  0  0  0  0  0  0  0  0  0
    7.4567   -6.9464   27.2858 C   0  0  0  0  0  0  0  0  0  0  0  0
    0.1921   -5.7592   27.1123 C   0  0  0  0  0  0  0  0  0  0  0  0
    3.5517   -7.7407   25.9711 C   0  0  0  0  0  0  0  0  0  0  0  0
  1  4  4  0
  1 22  4  0
  2 20  4  0
  2 27  4  0
  3 12  4  0
  3 23  4  0
  4 25  4  0
  4 28  1  0
  5  8  4  0
  5 17  4  0
  6  7  4  0
  6 16  4  0
  7 18  4  0
  8 27  4  0
  9 13  4  0
  9 23  4  0
 10 11  1  0
 11 14  2  0
 11 27  1  0
 12 19  1  0
 12 24  4  0
 13 24  4  0
 15 18  1  0
 16 25  4  0
 16 26  4  0
 17 20  4  0
 17 28  1  0
 18 21  4  0
 21 26  4  0
 22 26  4  0
M  END
$$$$

 Created by Python create_sdf_string function

 28 30  0  0  0  0  0  0  0  0999 V2000
    5.7174   -8.4529   26.7190 C   0  0  0  0  0  0  0  0  0  0  0  0
    0.3974   -7.0711   27.5149 C   0  0  0  0  0  0  0  0  0  0  0  0
    2.5338   -7.6891   16.0102 C   0  0  0  0  0  0  0  0  0  0  0  0
    4.8690   -7.4380   26.4151 C   0  0  0  0  0  0  0  0  0  0  0  0
    2.3021   -5.6726   26.0378 C   0  0  0  0  0  0  0  0  0  0  0  0
    7.0880   -4.6163   27.0010 C   0  0  0  0  0  0  0  0  0  0  0  0
    8.3117   -4.3698   27.4436 C   0  0  0  0  0  0  0  0  0  0  0  0
    1.1339   -5.0515   26.3541 C   0  0  0  0  0  0  0  0  0  0  0  0
    4.8080   -8.0362   16.7101 C   0  0  0  0  0  0  0  0  0  0  0  0
   -1.2173   -3.9294   26.9717 O   0  0  0  0  0  0  0  0  0  0  0  0
   -1.0025   -5.0942   27.4586 C   0  0  0  0  0  0  0  0  0  0  0  0
    2.2474   -8.9123   16.6273 C   0  0  0  0  0  0  0  0  0  0  0  0
    4.4957   -9.2636   17.3041 C   0  0  0  0  0  0  0  0  0  0  0  0
   -1.8070   -5.6086   28.1920 O   0  0  0  0  0  0  0  0  0  0  0  0
   10.4296   -5.1799   28.3140 C   0  0  0  0  0  0  0  0  0  0  0  0
    6.6017   -5.9004   26.9187 C   0  0  0  0  0  0  0  0  0  0  0  0
    2.4761   -6.9940   26.4111 N   0  0  0  0  0  0  0  0  0  0  0  0
    9.1353   -5.4053   27.8239 C   0  0  0  0  0  0  0  0  0  0  0  0
    0.9922   -9.3232   16.5995 O   0  0  0  0  0  0  0  0  0  0  0  0
    1.5232   -7.6869   27.1182 C   0  0  0  0  0  0  0  0  0  0  0  0
    8.6878   -6.6715   27.7262 N   0  0  0  0  0  0  0  0  0  0  0  0
    6.9911   -8.2423   27.1808 C   0  0  0  0  0  0  0  0  0  0  0  0
    3.8436   -7.2758   16.0578 C   0  0  0  0  0  0  0  0  0  0  0  0
    3.1882   -9.7190   17.2566 C   0  0  0  0  0  0  0  0  0  0  0  0
    5.3488   -6.1737   26.5092 C   0  0  0  0  0  0  0  0  0  0  0  0
    7.4567   -6.9464   27.2858 C   0  0  0  0  0  0  0  0  0  0  0  0
    0.1921   -5.7592   27.1123 C   0  0  0  0  0  0  0  0  0  0  0  0
    3.5517   -7.7407   25.9711 C   0  0  0  0  0  0  0  0  0  0  0  0
  1  4  4  0
  1 22  4  0
  2 20  4  0
  2 27  4  0
  3 12  4  0
  3 23  4  0
  4 25  4  0
  4 28  1  0
  5  8  4  0
  5 17  4  0
  6  7  4  0
  6 16  4  0
  7 18  4  0
  8 27  4  0
  9 13  4  0
  9 23  4  0
 10 11  1  0
 11 14  2  0
 11 27  1  0
 12 19  1  0
 12 24  4  0
 13 24  4  0
 15 18  1  0
 16 25  4  0
 16 26  4  0
 17 20  4  0
 17 28  1  0
 18 21  4  0
 21 26  4  0
 22 26  4  0
M  END
$$$$

 Created by Python create_sdf_string function

 28 30  0  0  0  0  0  0  0  0999 V2000
    5.7174   -8.4529   26.7190 C   0  0  0  0  0  0  0  0  0  0  0  0
    0.3974   -7.0711   27.5149 C   0  0  0  0  0  0  0  0  0  0  0  0
    2.5338   -7.6891   16.0102 C   0  0  0  0  0  0  0  0  0  0  0  0
    4.8690   -7.4380   26.4151 C   0  0  0  0  0  0  0  0  0  0  0  0
    2.3021   -5.6726   26.0378 C   0  0  0  0  0  0  0  0  0  0  0  0
    7.0880   -4.6163   27.0010 C   0  0  0  0  0  0  0  0  0  0  0  0
    8.3117   -4.3698   27.4436 C   0  0  0  0  0  0  0  0  0  0  0  0
    1.1339   -5.0515   26.3541 C   0  0  0  0  0  0  0  0  0  0  0  0
    4.8080   -8.0362   16.7101 C   0  0  0  0  0  0  0  0  0  0  0  0
   -1.2173   -3.9294   26.9717 O   0  0  0  0  0  0  0  0  0  0  0  0
   -1.0025   -5.0942   27.4586 C   0  0  0  0  0  0  0  0  0  0  0  0
    2.2474   -8.9123   16.6273 C   0  0  0  0  0  0  0  0  0  0  0  0
    4.4957   -9.2636   17.3041 C   0  0  0  0  0  0  0  0  0  0  0  0
   -1.8070   -5.6086   28.1920 O   0  0  0  0  0  0  0  0  0  0  0  0
   10.4296   -5.1799   28.3140 C   0  0  0  0  0  0  0  0  0  0  0  0
    6.6017   -5.9004   26.9187 C   0  0  0  0  0  0  0  0  0  0  0  0
    2.4761   -6.9940   26.4111 N   0  0  0  0  0  0  0  0  0  0  0  0
    9.1353   -5.4053   27.8239 C   0  0  0  0  0  0  0  0  0  0  0  0
    0.9922   -9.3232   16.5995 O   0  0  0  0  0  0  0  0  0  0  0  0
    1.5232   -7.6869   27.1182 C   0  0  0  0  0  0  0  0  0  0  0  0
    8.6878   -6.6715   27.7262 N   0  0  0  0  0  0  0  0  0  0  0  0
    6.9911   -8.2423   27.1808 C   0  0  0  0  0  0  0  0  0  0  0  0
    3.8436   -7.2758   16.0578 C   0  0  0  0  0  0  0  0  0  0  0  0
    3.1882   -9.7190   17.2566 C   0  0  0  0  0  0  0  0  0  0  0  0
    5.3488   -6.1737   26.5092 C   0  0  0  0  0  0  0  0  0  0  0  0
    7.4567   -6.9464   27.2858 C   0  0  0  0  0  0  0  0  0  0  0  0
    0.1921   -5.7592   27.1123 C   0  0  0  0  0  0  0  0  0  0  0  0
    3.5517   -7.7407   25.9711 C   0  0  0  0  0  0  0  0  0  0  0  0
  1  4  4  0
  1 22  4  0
  2 20  4  0
  2 27  4  0
  3 12  4  0
  3 23  4  0
  4 25  4  0
  4 28  1  0
  5  8  4  0
  5 17  4  0
  6  7  4  0
  6 16  4  0
  7 18  4  0
  8 27  4  0
  9 13  4  0
  9 23  4  0
 10 11  1  0
 11 14  2  0
 11 27  1  0
 12 19  1  0
 12 24  4  0
 13 24  4  0
 15 18  1  0
 16 25  4  0
 16 26  4  0
 17 20  4  0
 17 28  1  0
 18 21  4  0
 21 26  4  0
 22 26  4  0
M  END
$$$$

 Created by Python create_sdf_string function

 28 30  0  0  0  0  0  0  0  0999 V2000
    5.7174   -8.4529   26.7190 C   0  0  0  0  0  0  0  0  0  0  0  0
    0.3974   -7.0711   27.5149 C   0  0  0  0  0  0  0  0  0  0  0  0
    2.5338   -7.6891   16.0102 C   0  0  0  0  0  0  0  0  0  0  0  0
    4.8690   -7.4380   26.4151 C   0  0  0  0  0  0  0  0  0  0  0  0
    2.3021   -5.6726   26.0378 C   0  0  0  0  0  0  0  0  0  0  0  0
    7.0880   -4.6163   27.0010 C   0  0  0  0  0  0  0  0  0  0  0  0
    8.3117   -4.3698   27.4436 C   0  0  0  0  0  0  0  0  0  0  0  0
    1.1339   -5.0515   26.3541 C   0  0  0  0  0  0  0  0  0  0  0  0
    4.8080   -8.0362   16.7101 C   0  0  0  0  0  0  0  0  0  0  0  0
   -1.2173   -3.9294   26.9717 O   0  0  0  0  0  0  0  0  0  0  0  0
   -1.0025   -5.0942   27.4586 C   0  0  0  0  0  0  0  0  0  0  0  0
    2.2474   -8.9123   16.6273 C   0  0  0  0  0  0  0  0  0  0  0  0
    4.4957   -9.2636   17.3041 C   0  0  0  0  0  0  0  0  0  0  0  0
   -1.8070   -5.6086   28.1920 O   0  0  0  0  0  0  0  0  0  0  0  0
   10.4296   -5.1799   28.3140 C   0  0  0  0  0  0  0  0  0  0  0  0
    6.6017   -5.9004   26.9187 C   0  0  0  0  0  0  0  0  0  0  0  0
    2.4761   -6.9940   26.4111 N   0  0  0  0  0  0  0  0  0  0  0  0
    9.1353   -5.4053   27.8239 C   0  0  0  0  0  0  0  0  0  0  0  0
    0.9922   -9.3232   16.5995 O   0  0  0  0  0  0  0  0  0  0  0  0
    1.5232   -7.6869   27.1182 C   0  0  0  0  0  0  0  0  0  0  0  0
    8.6878   -6.6715   27.7262 N   0  0  0  0  0  0  0  0  0  0  0  0
    6.9911   -8.2423   27.1808 C   0  0  0  0  0  0  0  0  0  0  0  0
    3.8436   -7.2758   16.0578 C   0  0  0  0  0  0  0  0  0  0  0  0
    3.1882   -9.7190   17.2566 C   0  0  0  0  0  0  0  0  0  0  0  0
    5.3488   -6.1737   26.5092 C   0  0  0  0  0  0  0  0  0  0  0  0
    7.4567   -6.9464   27.2858 C   0  0  0  0  0  0  0  0  0  0  0  0
    0.1921   -5.7592   27.1123 C   0  0  0  0  0  0  0  0  0  0  0  0
    3.5517   -7.7407   25.9711 C   0  0  0  0  0  0  0  0  0  0  0  0
  1  4  4  0
  1 22  4  0
  2 20  4  0
  2 27  4  0
  3 12  4  0
  3 23  4  0
  4 25  4  0
  4 28  1  0
  5  8  4  0
  5 17  4  0
  6  7  4  0
  6 16  4  0
  7 18  4  0
  8 27  4  0
  9 13  4  0
  9 23  4  0
 10 11  1  0
 11 14  2  0
 11 27  1  0
 12 19  1  0
 12 24  4  0
 13 24  4  0
 15 18  1  0
 16 25  4  0
 16 26  4  0
 17 20  4  0
 17 28  1  0
 18 21  4  0
 21 26  4  0
 22 26  4  0
M  END
$$$$

 Created by Python create_sdf_string function

 28 30  0  0  0  0  0  0  0  0999 V2000
    5.7174   -8.4529   26.7190 C   0  0  0  0  0  0  0  0  0  0  0  0
    0.3974   -7.0711   27.5149 C   0  0  0  0  0  0  0  0  0  0  0  0
    2.5338   -7.6891   16.0102 C   0  0  0  0  0  0  0  0  0  0  0  0
    4.8690   -7.4380   26.4151 C   0  0  0  0  0  0  0  0  0  0  0  0
    2.3021   -5.6726   26.0378 C   0  0  0  0  0  0  0  0  0  0  0  0
    7.0880   -4.6163   27.0010 C   0  0  0  0  0  0  0  0  0  0  0  0
    8.3117   -4.3698   27.4436 C   0  0  0  0  0  0  0  0  0  0  0  0
    1.1339   -5.0515   26.3541 C   0  0  0  0  0  0  0  0  0  0  0  0
    4.8080   -8.0362   16.7101 C   0  0  0  0  0  0  0  0  0  0  0  0
   -1.2173   -3.9294   26.9717 O   0  0  0  0  0  0  0  0  0  0  0  0
   -1.0025   -5.0942   27.4586 C   0  0  0  0  0  0  0  0  0  0  0  0
    2.2474   -8.9123   16.6273 C   0  0  0  0  0  0  0  0  0  0  0  0
    4.4957   -9.2636   17.3041 C   0  0  0  0  0  0  0  0  0  0  0  0
   -1.8070   -5.6086   28.1920 O   0  0  0  0  0  0  0  0  0  0  0  0
   10.4296   -5.1799   28.3140 C   0  0  0  0  0  0  0  0  0  0  0  0
    6.6017   -5.9004   26.9187 C   0  0  0  0  0  0  0  0  0  0  0  0
    2.4761   -6.9940   26.4111 N   0  0  0  0  0  0  0  0  0  0  0  0
    9.1353   -5.4053   27.8239 C   0  0  0  0  0  0  0  0  0  0  0  0
    0.9922   -9.3232   16.5995 O   0  0  0  0  0  0  0  0  0  0  0  0
    1.5232   -7.6869   27.1182 C   0  0  0  0  0  0  0  0  0  0  0  0
    8.6878   -6.6715   27.7262 N   0  0  0  0  0  0  0  0  0  0  0  0
    6.9911   -8.2423   27.1808 C   0  0  0  0  0  0  0  0  0  0  0  0
    3.8436   -7.2758   16.0578 C   0  0  0  0  0  0  0  0  0  0  0  0
    3.1882   -9.7190   17.2566 C   0  0  0  0  0  0  0  0  0  0  0  0
    5.3488   -6.1737   26.5092 C   0  0  0  0  0  0  0  0  0  0  0  0
    7.4567   -6.9464   27.2858 C   0  0  0  0  0  0  0  0  0  0  0  0
    0.1921   -5.7592   27.1123 C   0  0  0  0  0  0  0  0  0  0  0  0
    3.5517   -7.7407   25.9711 C   0  0  0  0  0  0  0  0  0  0  0  0
  1  4  4  0
  1 22  4  0
  2 20  4  0
  2 27  4  0
  3 12  4  0
  3 23  4  0
  4 25  4  0
  4 28  1  0
  5  8  4  0
  5 17  4  0
  6  7  4  0
  6 16  4  0
  7 18  4  0
  8 27  4  0
  9 13  4  0
  9 23  4  0
 10 11  1  0
 11 14  2  0
 11 27  1  0
 12 19  1  0
 12 24  4  0
 13 24  4  0
 15 18  1  0
 16 25  4  0
 16 26  4  0
 17 20  4  0
 17 28  1  0
 18 21  4  0
 21 26  4  0
 22 26  4  0
M  END
$$$$

 Created by Python create_sdf_string function

 28 30  0  0  0  0  0  0  0  0999 V2000
    5.7174   -8.4529   26.7190 C   0  0  0  0  0  0  0  0  0  0  0  0
    0.3974   -7.0711   27.5149 C   0  0  0  0  0  0  0  0  0  0  0  0
    2.5338   -7.6891   16.0102 C   0  0  0  0  0  0  0  0  0  0  0  0
    4.8690   -7.4380   26.4151 C   0  0  0  0  0  0  0  0  0  0  0  0
    2.3021   -5.6726   26.0378 C   0  0  0  0  0  0  0  0  0  0  0  0
    7.0880   -4.6163   27.0010 C   0  0  0  0  0  0  0  0  0  0  0  0
    8.3117   -4.3698   27.4436 C   0  0  0  0  0  0  0  0  0  0  0  0
    1.1339   -5.0515   26.3541 C   0  0  0  0  0  0  0  0  0  0  0  0
    4.8080   -8.0362   16.7101 C   0  0  0  0  0  0  0  0  0  0  0  0
   -1.2173   -3.9294   26.9717 O   0  0  0  0  0  0  0  0  0  0  0  0
   -1.0025   -5.0942   27.4586 C   0  0  0  0  0  0  0  0  0  0  0  0
    2.2474   -8.9123   16.6273 C   0  0  0  0  0  0  0  0  0  0  0  0
    4.4957   -9.2636   17.3041 C   0  0  0  0  0  0  0  0  0  0  0  0
   -1.8070   -5.6086   28.1920 O   0  0  0  0  0  0  0  0  0  0  0  0
   10.4296   -5.1799   28.3140 C   0  0  0  0  0  0  0  0  0  0  0  0
    6.6017   -5.9004   26.9187 C   0  0  0  0  0  0  0  0  0  0  0  0
    2.4761   -6.9940   26.4111 N   0  0  0  0  0  0  0  0  0  0  0  0
    9.1353   -5.4053   27.8239 C   0  0  0  0  0  0  0  0  0  0  0  0
    0.9922   -9.3232   16.5995 O   0  0  0  0  0  0  0  0  0  0  0  0
    1.5232   -7.6869   27.1182 C   0  0  0  0  0  0  0  0  0  0  0  0
    8.6878   -6.6715   27.7262 N   0  0  0  0  0  0  0  0  0  0  0  0
    6.9911   -8.2423   27.1808 C   0  0  0  0  0  0  0  0  0  0  0  0
    3.8436   -7.2758   16.0578 C   0  0  0  0  0  0  0  0  0  0  0  0
    3.1882   -9.7190   17.2566 C   0  0  0  0  0  0  0  0  0  0  0  0
    5.3488   -6.1737   26.5092 C   0  0  0  0  0  0  0  0  0  0  0  0
    7.4567   -6.9464   27.2858 C   0  0  0  0  0  0  0  0  0  0  0  0
    0.1921   -5.7592   27.1123 C   0  0  0  0  0  0  0  0  0  0  0  0
    3.5517   -7.7407   25.9711 C   0  0  0  0  0  0  0  0  0  0  0  0
  1  4  4  0
  1 22  4  0
  2 20  4  0
  2 27  4  0
  3 12  4  0
  3 23  4  0
  4 25  4  0
  4 28  1  0
  5  8  4  0
  5 17  4  0
  6  7  4  0
  6 16  4  0
  7 18  4  0
  8 27  4  0
  9 13  4  0
  9 23  4  0
 10 11  1  0
 11 14  2  0
 11 27  1  0
 12 19  1  0
 12 24  4  0
 13 24  4  0
 15 18  1  0
 16 25  4  0
 16 26  4  0
 17 20  4  0
 17 28  1  0
 18 21  4  0
 21 26  4  0
 22 26  4  0
M  END
$$$$

 Created by Python create_sdf_string function

 28 30  0  0  0  0  0  0  0  0999 V2000
    5.7174   -8.4529   26.7190 C   0  0  0  0  0  0  0  0  0  0  0  0
    0.3974   -7.0711   27.5149 C   0  0  0  0  0  0  0  0  0  0  0  0
    2.5338   -7.6891   16.0102 C   0  0  0  0  0  0  0  0  0  0  0  0
    4.8690   -7.4380   26.4151 C   0  0  0  0  0  0  0  0  0  0  0  0
    2.3021   -5.6726   26.0378 C   0  0  0  0  0  0  0  0  0  0  0  0
    7.0880   -4.6163   27.0010 C   0  0  0  0  0  0  0  0  0  0  0  0
    8.3117   -4.3698   27.4436 C   0  0  0  0  0  0  0  0  0  0  0  0
    1.1339   -5.0515   26.3541 C   0  0  0  0  0  0  0  0  0  0  0  0
    4.8080   -8.0362   16.7101 C   0  0  0  0  0  0  0  0  0  0  0  0
   -1.2173   -3.9294   26.9717 O   0  0  0  0  0  0  0  0  0  0  0  0
   -1.0025   -5.0942   27.4586 C   0  0  0  0  0  0  0  0  0  0  0  0
    2.2474   -8.9123   16.6273 C   0  0  0  0  0  0  0  0  0  0  0  0
    4.4957   -9.2636   17.3041 C   0  0  0  0  0  0  0  0  0  0  0  0
   -1.8070   -5.6086   28.1920 O   0  0  0  0  0  0  0  0  0  0  0  0
   10.4296   -5.1799   28.3140 C   0  0  0  0  0  0  0  0  0  0  0  0
    6.6017   -5.9004   26.9187 C   0  0  0  0  0  0  0  0  0  0  0  0
    2.4761   -6.9940   26.4111 N   0  0  0  0  0  0  0  0  0  0  0  0
    9.1353   -5.4053   27.8239 C   0  0  0  0  0  0  0  0  0  0  0  0
    0.9922   -9.3232   16.5995 O   0  0  0  0  0  0  0  0  0  0  0  0
    1.5232   -7.6869   27.1182 C   0  0  0  0  0  0  0  0  0  0  0  0
    8.6878   -6.6715   27.7262 N   0  0  0  0  0  0  0  0  0  0  0  0
    6.9911   -8.2423   27.1808 C   0  0  0  0  0  0  0  0  0  0  0  0
    3.8436   -7.2758   16.0578 C   0  0  0  0  0  0  0  0  0  0  0  0
    3.1882   -9.7190   17.2566 C   0  0  0  0  0  0  0  0  0  0  0  0
    5.3488   -6.1737   26.5092 C   0  0  0  0  0  0  0  0  0  0  0  0
    7.4567   -6.9464   27.2858 C   0  0  0  0  0  0  0  0  0  0  0  0
    0.1921   -5.7592   27.1123 C   0  0  0  0  0  0  0  0  0  0  0  0
    3.5517   -7.7407   25.9711 C   0  0  0  0  0  0  0  0  0  0  0  0
  1  4  4  0
  1 22  4  0
  2 20  4  0
  2 27  4  0
  3 12  4  0
  3 23  4  0
  4 25  4  0
  4 28  1  0
  5  8  4  0
  5 17  4  0
  6  7  4  0
  6 16  4  0
  7 18  4  0
  8 27  4  0
  9 13  4  0
  9 23  4  0
 10 11  1  0
 11 14  2  0
 11 27  1  0
 12 19  1  0
 12 24  4  0
 13 24  4  0
 15 18  1  0
 16 25  4  0
 16 26  4  0
 17 20  4  0
 17 28  1  0
 18 21  4  0
 21 26  4  0
 22 26  4  0
M  END
$$$$

 Created by Python create_sdf_string function

 28 30  0  0  0  0  0  0  0  0999 V2000
    5.7174   -8.4529   26.7190 C   0  0  0  0  0  0  0  0  0  0  0  0
    0.3974   -7.0711   27.5149 C   0  0  0  0  0  0  0  0  0  0  0  0
    2.5338   -7.6891   16.0102 C   0  0  0  0  0  0  0  0  0  0  0  0
    4.8690   -7.4380   26.4151 C   0  0  0  0  0  0  0  0  0  0  0  0
    2.3021   -5.6726   26.0378 C   0  0  0  0  0  0  0  0  0  0  0  0
    7.0880   -4.6163   27.0010 C   0  0  0  0  0  0  0  0  0  0  0  0
    8.3117   -4.3698   27.4436 C   0  0  0  0  0  0  0  0  0  0  0  0
    1.1339   -5.0515   26.3541 C   0  0  0  0  0  0  0  0  0  0  0  0
    4.8080   -8.0362   16.7101 C   0  0  0  0  0  0  0  0  0  0  0  0
   -1.2173   -3.9294   26.9717 O   0  0  0  0  0  0  0  0  0  0  0  0
   -1.0025   -5.0942   27.4586 C   0  0  0  0  0  0  0  0  0  0  0  0
    2.2474   -8.9123   16.6273 C   0  0  0  0  0  0  0  0  0  0  0  0
    4.4957   -9.2636   17.3041 C   0  0  0  0  0  0  0  0  0  0  0  0
   -1.8070   -5.6086   28.1920 O   0  0  0  0  0  0  0  0  0  0  0  0
   10.4296   -5.1799   28.3140 C   0  0  0  0  0  0  0  0  0  0  0  0
    6.6017   -5.9004   26.9187 C   0  0  0  0  0  0  0  0  0  0  0  0
    2.4761   -6.9940   26.4111 N   0  0  0  0  0  0  0  0  0  0  0  0
    9.1353   -5.4053   27.8239 C   0  0  0  0  0  0  0  0  0  0  0  0
    0.9922   -9.3232   16.5995 O   0  0  0  0  0  0  0  0  0  0  0  0
    1.5232   -7.6869   27.1182 C   0  0  0  0  0  0  0  0  0  0  0  0
    8.6878   -6.6715   27.7262 N   0  0  0  0  0  0  0  0  0  0  0  0
    6.9911   -8.2423   27.1808 C   0  0  0  0  0  0  0  0  0  0  0  0
    3.8436   -7.2758   16.0578 C   0  0  0  0  0  0  0  0  0  0  0  0
    3.1882   -9.7190   17.2566 C   0  0  0  0  0  0  0  0  0  0  0  0
    5.3488   -6.1737   26.5092 C   0  0  0  0  0  0  0  0  0  0  0  0
    7.4567   -6.9464   27.2858 C   0  0  0  0  0  0  0  0  0  0  0  0
    0.1921   -5.7592   27.1123 C   0  0  0  0  0  0  0  0  0  0  0  0
    3.5517   -7.7407   25.9711 C   0  0  0  0  0  0  0  0  0  0  0  0
  1  4  4  0
  1 22  4  0
  2 20  4  0
  2 27  4  0
  3 12  4  0
  3 23  4  0
  4 25  4  0
  4 28  1  0
  5  8  4  0
  5 17  4  0
  6  7  4  0
  6 16  4  0
  7 18  4  0
  8 27  4  0
  9 13  4  0
  9 23  4  0
 10 11  1  0
 11 14  2  0
 11 27  1  0
 12 19  1  0
 12 24  4  0
 13 24  4  0
 15 18  1  0
 16 25  4  0
 16 26  4  0
 17 20  4  0
 17 28  1  0
 18 21  4  0
 21 26  4  0
 22 26  4  0
M  END
$$$$

 Created by Python create_sdf_string function

 28 30  0  0  0  0  0  0  0  0999 V2000
    5.7174   -8.4529   26.7190 C   0  0  0  0  0  0  0  0  0  0  0  0
    0.3974   -7.0711   27.5149 C   0  0  0  0  0  0  0  0  0  0  0  0
    2.5338   -7.6891   16.0102 C   0  0  0  0  0  0  0  0  0  0  0  0
    4.8690   -7.4380   26.4151 C   0  0  0  0  0  0  0  0  0  0  0  0
    2.3021   -5.6726   26.0378 C   0  0  0  0  0  0  0  0  0  0  0  0
    7.0880   -4.6163   27.0010 C   0  0  0  0  0  0  0  0  0  0  0  0
    8.3117   -4.3698   27.4436 C   0  0  0  0  0  0  0  0  0  0  0  0
    1.1339   -5.0515   26.3541 C   0  0  0  0  0  0  0  0  0  0  0  0
    4.8080   -8.0362   16.7101 C   0  0  0  0  0  0  0  0  0  0  0  0
   -1.2173   -3.9294   26.9717 O   0  0  0  0  0  0  0  0  0  0  0  0
   -1.0025   -5.0942   27.4586 C   0  0  0  0  0  0  0  0  0  0  0  0
    2.2474   -8.9123   16.6273 C   0  0  0  0  0  0  0  0  0  0  0  0
    4.4957   -9.2636   17.3041 C   0  0  0  0  0  0  0  0  0  0  0  0
   -1.8070   -5.6086   28.1920 O   0  0  0  0  0  0  0  0  0  0  0  0
   10.4296   -5.1799   28.3140 C   0  0  0  0  0  0  0  0  0  0  0  0
    6.6017   -5.9004   26.9187 C   0  0  0  0  0  0  0  0  0  0  0  0
    2.4761   -6.9940   26.4111 N   0  0  0  0  0  0  0  0  0  0  0  0
    9.1353   -5.4053   27.8239 C   0  0  0  0  0  0  0  0  0  0  0  0
    0.9922   -9.3232   16.5995 O   0  0  0  0  0  0  0  0  0  0  0  0
    1.5232   -7.6869   27.1182 C   0  0  0  0  0  0  0  0  0  0  0  0
    8.6878   -6.6715   27.7262 N   0  0  0  0  0  0  0  0  0  0  0  0
    6.9911   -8.2423   27.1808 C   0  0  0  0  0  0  0  0  0  0  0  0
    3.8436   -7.2758   16.0578 C   0  0  0  0  0  0  0  0  0  0  0  0
    3.1882   -9.7190   17.2566 C   0  0  0  0  0  0  0  0  0  0  0  0
    5.3488   -6.1737   26.5092 C   0  0  0  0  0  0  0  0  0  0  0  0
    7.4567   -6.9464   27.2858 C   0  0  0  0  0  0  0  0  0  0  0  0
    0.1921   -5.7592   27.1123 C   0  0  0  0  0  0  0  0  0  0  0  0
    3.5517   -7.7407   25.9711 C   0  0  0  0  0  0  0  0  0  0  0  0
  1  4  4  0
  1 22  4  0
  2 20  4  0
  2 27  4  0
  3 12  4  0
  3 23  4  0
  4 25  4  0
  4 28  1  0
  5  8  4  0
  5 17  4  0
  6  7  4  0
  6 16  4  0
  7 18  4  0
  8 27  4  0
  9 13  4  0
  9 23  4  0
 10 11  1  0
 11 14  2  0
 11 27  1  0
 12 19  1  0
 12 24  4  0
 13 24  4  0
 15 18  1  0
 16 25  4  0
 16 26  4  0
 17 20  4  0
 17 28  1  0
 18 21  4  0
 21 26  4  0
 22 26  4  0
M  END
$$$$

 Created by Python create_sdf_string function

 28 30  0  0  0  0  0  0  0  0999 V2000
    5.7174   -8.4529   26.7190 C   0  0  0  0  0  0  0  0  0  0  0  0
    0.3974   -7.0711   27.5149 C   0  0  0  0  0  0  0  0  0  0  0  0
    2.5338   -7.6891   16.0102 C   0  0  0  0  0  0  0  0  0  0  0  0
    4.8690   -7.4380   26.4151 C   0  0  0  0  0  0  0  0  0  0  0  0
    2.3021   -5.6726   26.0378 C   0  0  0  0  0  0  0  0  0  0  0  0
    7.0880   -4.6163   27.0010 C   0  0  0  0  0  0  0  0  0  0  0  0
    8.3117   -4.3698   27.4436 C   0  0  0  0  0  0  0  0  0  0  0  0
    1.1339   -5.0515   26.3541 C   0  0  0  0  0  0  0  0  0  0  0  0
    4.8080   -8.0362   16.7101 C   0  0  0  0  0  0  0  0  0  0  0  0
   -1.2173   -3.9294   26.9717 O   0  0  0  0  0  0  0  0  0  0  0  0
   -1.0025   -5.0942   27.4586 C   0  0  0  0  0  0  0  0  0  0  0  0
    2.2474   -8.9123   16.6273 C   0  0  0  0  0  0  0  0  0  0  0  0
    4.4957   -9.2636   17.3041 C   0  0  0  0  0  0  0  0  0  0  0  0
   -1.8070   -5.6086   28.1920 O   0  0  0  0  0  0  0  0  0  0  0  0
   10.4296   -5.1799   28.3140 C   0  0  0  0  0  0  0  0  0  0  0  0
    6.6017   -5.9004   26.9187 C   0  0  0  0  0  0  0  0  0  0  0  0
    2.4761   -6.9940   26.4111 N   0  0  0  0  0  0  0  0  0  0  0  0
    9.1353   -5.4053   27.8239 C   0  0  0  0  0  0  0  0  0  0  0  0
    0.9922   -9.3232   16.5995 O   0  0  0  0  0  0  0  0  0  0  0  0
    1.5232   -7.6869   27.1182 C   0  0  0  0  0  0  0  0  0  0  0  0
    8.6878   -6.6715   27.7262 N   0  0  0  0  0  0  0  0  0  0  0  0
    6.9911   -8.2423   27.1808 C   0  0  0  0  0  0  0  0  0  0  0  0
    3.8436   -7.2758   16.0578 C   0  0  0  0  0  0  0  0  0  0  0  0
    3.1882   -9.7190   17.2566 C   0  0  0  0  0  0  0  0  0  0  0  0
    5.3488   -6.1737   26.5092 C   0  0  0  0  0  0  0  0  0  0  0  0
    7.4567   -6.9464   27.2858 C   0  0  0  0  0  0  0  0  0  0  0  0
    0.1921   -5.7592   27.1123 C   0  0  0  0  0  0  0  0  0  0  0  0
    3.5517   -7.7407   25.9711 C   0  0  0  0  0  0  0  0  0  0  0  0
  1  4  4  0
  1 22  4  0
  2 20  4  0
  2 27  4  0
  3 12  4  0
  3 23  4  0
  4 25  4  0
  4 28  1  0
  5  8  4  0
  5 17  4  0
  6  7  4  0
  6 16  4  0
  7 18  4  0
  8 27  4  0
  9 13  4  0
  9 23  4  0
 10 11  1  0
 11 14  2  0
 11 27  1  0
 12 19  1  0
 12 24  4  0
 13 24  4  0
 15 18  1  0
 16 25  4  0
 16 26  4  0
 17 20  4  0
 17 28  1  0
 18 21  4  0
 21 26  4  0
 22 26  4  0
M  END
$$$$

 Created by Python create_sdf_string function

 28 30  0  0  0  0  0  0  0  0999 V2000
    5.7174   -8.4529   26.7190 C   0  0  0  0  0  0  0  0  0  0  0  0
    0.3974   -7.0711   27.5149 C   0  0  0  0  0  0  0  0  0  0  0  0
    2.5338   -7.6891   16.0102 C   0  0  0  0  0  0  0  0  0  0  0  0
    4.8690   -7.4380   26.4151 C   0  0  0  0  0  0  0  0  0  0  0  0
    2.3021   -5.6726   26.0378 C   0  0  0  0  0  0  0  0  0  0  0  0
    7.0880   -4.6163   27.0010 C   0  0  0  0  0  0  0  0  0  0  0  0
    8.3117   -4.3698   27.4436 C   0  0  0  0  0  0  0  0  0  0  0  0
    1.1339   -5.0515   26.3541 C   0  0  0  0  0  0  0  0  0  0  0  0
    4.8080   -8.0362   16.7101 C   0  0  0  0  0  0  0  0  0  0  0  0
   -1.2173   -3.9294   26.9717 O   0  0  0  0  0  0  0  0  0  0  0  0
   -1.0025   -5.0942   27.4586 C   0  0  0  0  0  0  0  0  0  0  0  0
    2.2474   -8.9123   16.6273 C   0  0  0  0  0  0  0  0  0  0  0  0
    4.4957   -9.2636   17.3041 C   0  0  0  0  0  0  0  0  0  0  0  0
   -1.8070   -5.6086   28.1920 O   0  0  0  0  0  0  0  0  0  0  0  0
   10.4296   -5.1799   28.3140 C   0  0  0  0  0  0  0  0  0  0  0  0
    6.6017   -5.9004   26.9187 C   0  0  0  0  0  0  0  0  0  0  0  0
    2.4761   -6.9940   26.4111 N   0  0  0  0  0  0  0  0  0  0  0  0
    9.1353   -5.4053   27.8239 C   0  0  0  0  0  0  0  0  0  0  0  0
    0.9922   -9.3232   16.5995 O   0  0  0  0  0  0  0  0  0  0  0  0
    1.5232   -7.6869   27.1182 C   0  0  0  0  0  0  0  0  0  0  0  0
    8.6878   -6.6715   27.7262 N   0  0  0  0  0  0  0  0  0  0  0  0
    6.9911   -8.2423   27.1808 C   0  0  0  0  0  0  0  0  0  0  0  0
    3.8436   -7.2758   16.0578 C   0  0  0  0  0  0  0  0  0  0  0  0
    3.1882   -9.7190   17.2566 C   0  0  0  0  0  0  0  0  0  0  0  0
    5.3488   -6.1737   26.5092 C   0  0  0  0  0  0  0  0  0  0  0  0
    7.4567   -6.9464   27.2858 C   0  0  0  0  0  0  0  0  0  0  0  0
    0.1921   -5.7592   27.1123 C   0  0  0  0  0  0  0  0  0  0  0  0
    3.5517   -7.7407   25.9711 C   0  0  0  0  0  0  0  0  0  0  0  0
  1  4  4  0
  1 22  4  0
  2 20  4  0
  2 27  4  0
  3 12  4  0
  3 23  4  0
  4 25  4  0
  4 28  1  0
  5  8  4  0
  5 17  4  0
  6  7  4  0
  6 16  4  0
  7 18  4  0
  8 27  4  0
  9 13  4  0
  9 23  4  0
 10 11  1  0
 11 14  2  0
 11 27  1  0
 12 19  1  0
 12 24  4  0
 13 24  4  0
 15 18  1  0
 16 25  4  0
 16 26  4  0
 17 20  4  0
 17 28  1  0
 18 21  4  0
 21 26  4  0
 22 26  4  0
M  END
$$$$

 Created by Python create_sdf_string function

 28 30  0  0  0  0  0  0  0  0999 V2000
    5.7174   -8.4529   26.7190 C   0  0  0  0  0  0  0  0  0  0  0  0
    0.3974   -7.0711   27.5149 C   0  0  0  0  0  0  0  0  0  0  0  0
    2.5338   -7.6891   16.0102 C   0  0  0  0  0  0  0  0  0  0  0  0
    4.8690   -7.4380   26.4151 C   0  0  0  0  0  0  0  0  0  0  0  0
    2.3021   -5.6726   26.0378 C   0  0  0  0  0  0  0  0  0  0  0  0
    7.0880   -4.6163   27.0010 C   0  0  0  0  0  0  0  0  0  0  0  0
    8.3117   -4.3698   27.4436 C   0  0  0  0  0  0  0  0  0  0  0  0
    1.1339   -5.0515   26.3541 C   0  0  0  0  0  0  0  0  0  0  0  0
    4.8080   -8.0362   16.7101 C   0  0  0  0  0  0  0  0  0  0  0  0
   -1.2173   -3.9294   26.9717 O   0  0  0  0  0  0  0  0  0  0  0  0
   -1.0025   -5.0942   27.4586 C   0  0  0  0  0  0  0  0  0  0  0  0
    2.2474   -8.9123   16.6273 C   0  0  0  0  0  0  0  0  0  0  0  0
    4.4957   -9.2636   17.3041 C   0  0  0  0  0  0  0  0  0  0  0  0
   -1.8070   -5.6086   28.1920 O   0  0  0  0  0  0  0  0  0  0  0  0
   10.4296   -5.1799   28.3140 C   0  0  0  0  0  0  0  0  0  0  0  0
    6.6017   -5.9004   26.9187 C   0  0  0  0  0  0  0  0  0  0  0  0
    2.4761   -6.9940   26.4111 N   0  0  0  0  0  0  0  0  0  0  0  0
    9.1353   -5.4053   27.8239 C   0  0  0  0  0  0  0  0  0  0  0  0
    0.9922   -9.3232   16.5995 O   0  0  0  0  0  0  0  0  0  0  0  0
    1.5232   -7.6869   27.1182 C   0  0  0  0  0  0  0  0  0  0  0  0
    8.6878   -6.6715   27.7262 N   0  0  0  0  0  0  0  0  0  0  0  0
    6.9911   -8.2423   27.1808 C   0  0  0  0  0  0  0  0  0  0  0  0
    3.8436   -7.2758   16.0578 C   0  0  0  0  0  0  0  0  0  0  0  0
    3.1882   -9.7190   17.2566 C   0  0  0  0  0  0  0  0  0  0  0  0
    5.3488   -6.1737   26.5092 C   0  0  0  0  0  0  0  0  0  0  0  0
    7.4567   -6.9464   27.2858 C   0  0  0  0  0  0  0  0  0  0  0  0
    0.1921   -5.7592   27.1123 C   0  0  0  0  0  0  0  0  0  0  0  0
    3.5517   -7.7407   25.9711 C   0  0  0  0  0  0  0  0  0  0  0  0
  1  4  4  0
  1 22  4  0
  2 20  4  0
  2 27  4  0
  3 12  4  0
  3 23  4  0
  4 25  4  0
  4 28  1  0
  5  8  4  0
  5 17  4  0
  6  7  4  0
  6 16  4  0
  7 18  4  0
  8 27  4  0
  9 13  4  0
  9 23  4  0
 10 11  1  0
 11 14  2  0
 11 27  1  0
 12 19  1  0
 12 24  4  0
 13 24  4  0
 15 18  1  0
 16 25  4  0
 16 26  4  0
 17 20  4  0
 17 28  1  0
 18 21  4  0
 21 26  4  0
 22 26  4  0
M  END
$$$$

 Created by Python create_sdf_string function

 28 30  0  0  0  0  0  0  0  0999 V2000
    5.7174   -8.4529   26.7190 C   0  0  0  0  0  0  0  0  0  0  0  0
    0.3974   -7.0711   27.5149 C   0  0  0  0  0  0  0  0  0  0  0  0
    2.5338   -7.6891   16.0102 C   0  0  0  0  0  0  0  0  0  0  0  0
    4.8690   -7.4380   26.4151 C   0  0  0  0  0  0  0  0  0  0  0  0
    2.3021   -5.6726   26.0378 C   0  0  0  0  0  0  0  0  0  0  0  0
    7.0880   -4.6163   27.0010 C   0  0  0  0  0  0  0  0  0  0  0  0
    8.3117   -4.3698   27.4436 C   0  0  0  0  0  0  0  0  0  0  0  0
    1.1339   -5.0515   26.3541 C   0  0  0  0  0  0  0  0  0  0  0  0
    4.8080   -8.0362   16.7101 C   0  0  0  0  0  0  0  0  0  0  0  0
   -1.2173   -3.9294   26.9717 O   0  0  0  0  0  0  0  0  0  0  0  0
   -1.0025   -5.0942   27.4586 C   0  0  0  0  0  0  0  0  0  0  0  0
    2.2474   -8.9123   16.6273 C   0  0  0  0  0  0  0  0  0  0  0  0
    4.4957   -9.2636   17.3041 C   0  0  0  0  0  0  0  0  0  0  0  0
   -1.8070   -5.6086   28.1920 O   0  0  0  0  0  0  0  0  0  0  0  0
   10.4296   -5.1799   28.3140 C   0  0  0  0  0  0  0  0  0  0  0  0
    6.6017   -5.9004   26.9187 C   0  0  0  0  0  0  0  0  0  0  0  0
    2.4761   -6.9940   26.4111 N   0  0  0  0  0  0  0  0  0  0  0  0
    9.1353   -5.4053   27.8239 C   0  0  0  0  0  0  0  0  0  0  0  0
    0.9922   -9.3232   16.5995 O   0  0  0  0  0  0  0  0  0  0  0  0
    1.5232   -7.6869   27.1182 C   0  0  0  0  0  0  0  0  0  0  0  0
    8.6878   -6.6715   27.7262 N   0  0  0  0  0  0  0  0  0  0  0  0
    6.9911   -8.2423   27.1808 C   0  0  0  0  0  0  0  0  0  0  0  0
    3.8436   -7.2758   16.0578 C   0  0  0  0  0  0  0  0  0  0  0  0
    3.1882   -9.7190   17.2566 C   0  0  0  0  0  0  0  0  0  0  0  0
    5.3488   -6.1737   26.5092 C   0  0  0  0  0  0  0  0  0  0  0  0
    7.4567   -6.9464   27.2858 C   0  0  0  0  0  0  0  0  0  0  0  0
    0.1921   -5.7592   27.1123 C   0  0  0  0  0  0  0  0  0  0  0  0
    3.5517   -7.7407   25.9711 C   0  0  0  0  0  0  0  0  0  0  0  0
  1  4  4  0
  1 22  4  0
  2 20  4  0
  2 27  4  0
  3 12  4  0
  3 23  4  0
  4 25  4  0
  4 28  1  0
  5  8  4  0
  5 17  4  0
  6  7  4  0
  6 16  4  0
  7 18  4  0
  8 27  4  0
  9 13  4  0
  9 23  4  0
 10 11  1  0
 11 14  2  0
 11 27  1  0
 12 19  1  0
 12 24  4  0
 13 24  4  0
 15 18  1  0
 16 25  4  0
 16 26  4  0
 17 20  4  0
 17 28  1  0
 18 21  4  0
 21 26  4  0
 22 26  4  0
M  END
$$$$

 Created by Python create_sdf_string function

 28 30  0  0  0  0  0  0  0  0999 V2000
    5.7174   -8.4529   26.7190 C   0  0  0  0  0  0  0  0  0  0  0  0
    0.3974   -7.0711   27.5149 C   0  0  0  0  0  0  0  0  0  0  0  0
    2.5338   -7.6891   16.0102 C   0  0  0  0  0  0  0  0  0  0  0  0
    4.8690   -7.4380   26.4151 C   0  0  0  0  0  0  0  0  0  0  0  0
    2.3021   -5.6726   26.0378 C   0  0  0  0  0  0  0  0  0  0  0  0
    7.0880   -4.6163   27.0010 C   0  0  0  0  0  0  0  0  0  0  0  0
    8.3117   -4.3698   27.4436 C   0  0  0  0  0  0  0  0  0  0  0  0
    1.1339   -5.0515   26.3541 C   0  0  0  0  0  0  0  0  0  0  0  0
    4.8080   -8.0362   16.7101 C   0  0  0  0  0  0  0  0  0  0  0  0
   -1.2173   -3.9294   26.9717 O   0  0  0  0  0  0  0  0  0  0  0  0
   -1.0025   -5.0942   27.4586 C   0  0  0  0  0  0  0  0  0  0  0  0
    2.2474   -8.9123   16.6273 C   0  0  0  0  0  0  0  0  0  0  0  0
    4.4957   -9.2636   17.3041 C   0  0  0  0  0  0  0  0  0  0  0  0
   -1.8070   -5.6086   28.1920 O   0  0  0  0  0  0  0  0  0  0  0  0
   10.4296   -5.1799   28.3140 C   0  0  0  0  0  0  0  0  0  0  0  0
    6.6017   -5.9004   26.9187 C   0  0  0  0  0  0  0  0  0  0  0  0
    2.4761   -6.9940   26.4111 N   0  0  0  0  0  0  0  0  0  0  0  0
    9.1353   -5.4053   27.8239 C   0  0  0  0  0  0  0  0  0  0  0  0
    0.9922   -9.3232   16.5995 O   0  0  0  0  0  0  0  0  0  0  0  0
    1.5232   -7.6869   27.1182 C   0  0  0  0  0  0  0  0  0  0  0  0
    8.6878   -6.6715   27.7262 N   0  0  0  0  0  0  0  0  0  0  0  0
    6.9911   -8.2423   27.1808 C   0  0  0  0  0  0  0  0  0  0  0  0
    3.8436   -7.2758   16.0578 C   0  0  0  0  0  0  0  0  0  0  0  0
    3.1882   -9.7190   17.2566 C   0  0  0  0  0  0  0  0  0  0  0  0
    5.3488   -6.1737   26.5092 C   0  0  0  0  0  0  0  0  0  0  0  0
    7.4567   -6.9464   27.2858 C   0  0  0  0  0  0  0  0  0  0  0  0
    0.1921   -5.7592   27.1123 C   0  0  0  0  0  0  0  0  0  0  0  0
    3.5517   -7.7407   25.9711 C   0  0  0  0  0  0  0  0  0  0  0  0
  1  4  4  0
  1 22  4  0
  2 20  4  0
  2 27  4  0
  3 12  4  0
  3 23  4  0
  4 25  4  0
  4 28  1  0
  5  8  4  0
  5 17  4  0
  6  7  4  0
  6 16  4  0
  7 18  4  0
  8 27  4  0
  9 13  4  0
  9 23  4  0
 10 11  1  0
 11 14  2  0
 11 27  1  0
 12 19  1  0
 12 24  4  0
 13 24  4  0
 15 18  1  0
 16 25  4  0
 16 26  4  0
 17 20  4  0
 17 28  1  0
 18 21  4  0
 21 26  4  0
 22 26  4  0
M  END
$$$$

 Created by Python create_sdf_string function

 28 30  0  0  0  0  0  0  0  0999 V2000
    5.7174   -8.4529   26.7190 C   0  0  0  0  0  0  0  0  0  0  0  0
    0.3974   -7.0711   27.5149 C   0  0  0  0  0  0  0  0  0  0  0  0
    2.5338   -7.6891   16.0102 C   0  0  0  0  0  0  0  0  0  0  0  0
    4.8690   -7.4380   26.4151 C   0  0  0  0  0  0  0  0  0  0  0  0
    2.3021   -5.6726   26.0378 C   0  0  0  0  0  0  0  0  0  0  0  0
    7.0880   -4.6163   27.0010 C   0  0  0  0  0  0  0  0  0  0  0  0
    8.3117   -4.3698   27.4436 C   0  0  0  0  0  0  0  0  0  0  0  0
    1.1339   -5.0515   26.3541 C   0  0  0  0  0  0  0  0  0  0  0  0
    4.8080   -8.0362   16.7101 C   0  0  0  0  0  0  0  0  0  0  0  0
   -1.2173   -3.9294   26.9717 O   0  0  0  0  0  0  0  0  0  0  0  0
   -1.0025   -5.0942   27.4586 C   0  0  0  0  0  0  0  0  0  0  0  0
    2.2474   -8.9123   16.6273 C   0  0  0  0  0  0  0  0  0  0  0  0
    4.4957   -9.2636   17.3041 C   0  0  0  0  0  0  0  0  0  0  0  0
   -1.8070   -5.6086   28.1920 O   0  0  0  0  0  0  0  0  0  0  0  0
   10.4296   -5.1799   28.3140 C   0  0  0  0  0  0  0  0  0  0  0  0
    6.6017   -5.9004   26.9187 C   0  0  0  0  0  0  0  0  0  0  0  0
    2.4761   -6.9940   26.4111 N   0  0  0  0  0  0  0  0  0  0  0  0
    9.1353   -5.4053   27.8239 C   0  0  0  0  0  0  0  0  0  0  0  0
    0.9922   -9.3232   16.5995 O   0  0  0  0  0  0  0  0  0  0  0  0
    1.5232   -7.6869   27.1182 C   0  0  0  0  0  0  0  0  0  0  0  0
    8.6878   -6.6715   27.7262 N   0  0  0  0  0  0  0  0  0  0  0  0
    6.9911   -8.2423   27.1808 C   0  0  0  0  0  0  0  0  0  0  0  0
    3.8436   -7.2758   16.0578 C   0  0  0  0  0  0  0  0  0  0  0  0
    3.1882   -9.7190   17.2566 C   0  0  0  0  0  0  0  0  0  0  0  0
    5.3488   -6.1737   26.5092 C   0  0  0  0  0  0  0  0  0  0  0  0
    7.4567   -6.9464   27.2858 C   0  0  0  0  0  0  0  0  0  0  0  0
    0.1921   -5.7592   27.1123 C   0  0  0  0  0  0  0  0  0  0  0  0
    3.5517   -7.7407   25.9711 C   0  0  0  0  0  0  0  0  0  0  0  0
  1  4  4  0
  1 22  4  0
  2 20  4  0
  2 27  4  0
  3 12  4  0
  3 23  4  0
  4 25  4  0
  4 28  1  0
  5  8  4  0
  5 17  4  0
  6  7  4  0
  6 16  4  0
  7 18  4  0
  8 27  4  0
  9 13  4  0
  9 23  4  0
 10 11  1  0
 11 14  2  0
 11 27  1  0
 12 19  1  0
 12 24  4  0
 13 24  4  0
 15 18  1  0
 16 25  4  0
 16 26  4  0
 17 20  4  0
 17 28  1  0
 18 21  4  0
 21 26  4  0
 22 26  4  0
M  END
$$$$

 Created by Python create_sdf_string function

 28 30  0  0  0  0  0  0  0  0999 V2000
    5.7174   -8.4529   26.7190 C   0  0  0  0  0  0  0  0  0  0  0  0
    0.3974   -7.0711   27.5149 C   0  0  0  0  0  0  0  0  0  0  0  0
    2.5338   -7.6891   16.0102 C   0  0  0  0  0  0  0  0  0  0  0  0
    4.8690   -7.4380   26.4151 C   0  0  0  0  0  0  0  0  0  0  0  0
    2.3021   -5.6726   26.0378 C   0  0  0  0  0  0  0  0  0  0  0  0
    7.0880   -4.6163   27.0010 C   0  0  0  0  0  0  0  0  0  0  0  0
    8.3117   -4.3698   27.4436 C   0  0  0  0  0  0  0  0  0  0  0  0
    1.1339   -5.0515   26.3541 C   0  0  0  0  0  0  0  0  0  0  0  0
    4.8080   -8.0362   16.7101 C   0  0  0  0  0  0  0  0  0  0  0  0
   -1.2173   -3.9294   26.9717 O   0  0  0  0  0  0  0  0  0  0  0  0
   -1.0025   -5.0942   27.4586 C   0  0  0  0  0  0  0  0  0  0  0  0
    2.2474   -8.9123   16.6273 C   0  0  0  0  0  0  0  0  0  0  0  0
    4.4957   -9.2636   17.3041 C   0  0  0  0  0  0  0  0  0  0  0  0
   -1.8070   -5.6086   28.1920 O   0  0  0  0  0  0  0  0  0  0  0  0
   10.4296   -5.1799   28.3140 C   0  0  0  0  0  0  0  0  0  0  0  0
    6.6017   -5.9004   26.9187 C   0  0  0  0  0  0  0  0  0  0  0  0
    2.4761   -6.9940   26.4111 N   0  0  0  0  0  0  0  0  0  0  0  0
    9.1353   -5.4053   27.8239 C   0  0  0  0  0  0  0  0  0  0  0  0
    0.9922   -9.3232   16.5995 O   0  0  0  0  0  0  0  0  0  0  0  0
    1.5232   -7.6869   27.1182 C   0  0  0  0  0  0  0  0  0  0  0  0
    8.6878   -6.6715   27.7262 N   0  0  0  0  0  0  0  0  0  0  0  0
    6.9911   -8.2423   27.1808 C   0  0  0  0  0  0  0  0  0  0  0  0
    3.8436   -7.2758   16.0578 C   0  0  0  0  0  0  0  0  0  0  0  0
    3.1882   -9.7190   17.2566 C   0  0  0  0  0  0  0  0  0  0  0  0
    5.3488   -6.1737   26.5092 C   0  0  0  0  0  0  0  0  0  0  0  0
    7.4567   -6.9464   27.2858 C   0  0  0  0  0  0  0  0  0  0  0  0
    0.1921   -5.7592   27.1123 C   0  0  0  0  0  0  0  0  0  0  0  0
    3.5517   -7.7407   25.9711 C   0  0  0  0  0  0  0  0  0  0  0  0
  1  4  4  0
  1 22  4  0
  2 20  4  0
  2 27  4  0
  3 12  4  0
  3 23  4  0
  4 25  4  0
  4 28  1  0
  5  8  4  0
  5 17  4  0
  6  7  4  0
  6 16  4  0
  7 18  4  0
  8 27  4  0
  9 13  4  0
  9 23  4  0
 10 11  1  0
 11 14  2  0
 11 27  1  0
 12 19  1  0
 12 24  4  0
 13 24  4  0
 15 18  1  0
 16 25  4  0
 16 26  4  0
 17 20  4  0
 17 28  1  0
 18 21  4  0
 21 26  4  0
 22 26  4  0
M  END
$$$$

 Created by Python create_sdf_string function

 28 30  0  0  0  0  0  0  0  0999 V2000
    5.7174   -8.4529   26.7190 C   0  0  0  0  0  0  0  0  0  0  0  0
    0.3974   -7.0711   27.5149 C   0  0  0  0  0  0  0  0  0  0  0  0
    2.5338   -7.6891   16.0102 C   0  0  0  0  0  0  0  0  0  0  0  0
    4.8690   -7.4380   26.4151 C   0  0  0  0  0  0  0  0  0  0  0  0
    2.3021   -5.6726   26.0378 C   0  0  0  0  0  0  0  0  0  0  0  0
    7.0880   -4.6163   27.0010 C   0  0  0  0  0  0  0  0  0  0  0  0
    8.3117   -4.3698   27.4436 C   0  0  0  0  0  0  0  0  0  0  0  0
    1.1339   -5.0515   26.3541 C   0  0  0  0  0  0  0  0  0  0  0  0
    4.8080   -8.0362   16.7101 C   0  0  0  0  0  0  0  0  0  0  0  0
   -1.2173   -3.9294   26.9717 O   0  0  0  0  0  0  0  0  0  0  0  0
   -1.0025   -5.0942   27.4586 C   0  0  0  0  0  0  0  0  0  0  0  0
    2.2474   -8.9123   16.6273 C   0  0  0  0  0  0  0  0  0  0  0  0
    4.4957   -9.2636   17.3041 C   0  0  0  0  0  0  0  0  0  0  0  0
   -1.8070   -5.6086   28.1920 O   0  0  0  0  0  0  0  0  0  0  0  0
   10.4296   -5.1799   28.3140 C   0  0  0  0  0  0  0  0  0  0  0  0
    6.6017   -5.9004   26.9187 C   0  0  0  0  0  0  0  0  0  0  0  0
    2.4761   -6.9940   26.4111 N   0  0  0  0  0  0  0  0  0  0  0  0
    9.1353   -5.4053   27.8239 C   0  0  0  0  0  0  0  0  0  0  0  0
    0.9922   -9.3232   16.5995 O   0  0  0  0  0  0  0  0  0  0  0  0
    1.5232   -7.6869   27.1182 C   0  0  0  0  0  0  0  0  0  0  0  0
    8.6878   -6.6715   27.7262 N   0  0  0  0  0  0  0  0  0  0  0  0
    6.9911   -8.2423   27.1808 C   0  0  0  0  0  0  0  0  0  0  0  0
    3.8436   -7.2758   16.0578 C   0  0  0  0  0  0  0  0  0  0  0  0
    3.1882   -9.7190   17.2566 C   0  0  0  0  0  0  0  0  0  0  0  0
    5.3488   -6.1737   26.5092 C   0  0  0  0  0  0  0  0  0  0  0  0
    7.4567   -6.9464   27.2858 C   0  0  0  0  0  0  0  0  0  0  0  0
    0.1921   -5.7592   27.1123 C   0  0  0  0  0  0  0  0  0  0  0  0
    3.5517   -7.7407   25.9711 C   0  0  0  0  0  0  0  0  0  0  0  0
  1  4  4  0
  1 22  4  0
  2 20  4  0
  2 27  4  0
  3 12  4  0
  3 23  4  0
  4 25  4  0
  4 28  1  0
  5  8  4  0
  5 17  4  0
  6  7  4  0
  6 16  4  0
  7 18  4  0
  8 27  4  0
  9 13  4  0
  9 23  4  0
 10 11  1  0
 11 14  2  0
 11 27  1  0
 12 19  1  0
 12 24  4  0
 13 24  4  0
 15 18  1  0
 16 25  4  0
 16 26  4  0
 17 20  4  0
 17 28  1  0
 18 21  4  0
 21 26  4  0
 22 26  4  0
M  END
$$$$

 Created by Python create_sdf_string function

 28 30  0  0  0  0  0  0  0  0999 V2000
    5.7174   -8.4529   26.7190 C   0  0  0  0  0  0  0  0  0  0  0  0
    0.3974   -7.0711   27.5149 C   0  0  0  0  0  0  0  0  0  0  0  0
    2.5338   -7.6891   16.0102 C   0  0  0  0  0  0  0  0  0  0  0  0
    4.8690   -7.4380   26.4151 C   0  0  0  0  0  0  0  0  0  0  0  0
    2.3021   -5.6726   26.0378 C   0  0  0  0  0  0  0  0  0  0  0  0
    7.0880   -4.6163   27.0010 C   0  0  0  0  0  0  0  0  0  0  0  0
    8.3117   -4.3698   27.4436 C   0  0  0  0  0  0  0  0  0  0  0  0
    1.1339   -5.0515   26.3541 C   0  0  0  0  0  0  0  0  0  0  0  0
    4.8080   -8.0362   16.7101 C   0  0  0  0  0  0  0  0  0  0  0  0
   -1.2173   -3.9294   26.9717 O   0  0  0  0  0  0  0  0  0  0  0  0
   -1.0025   -5.0942   27.4586 C   0  0  0  0  0  0  0  0  0  0  0  0
    2.2474   -8.9123   16.6273 C   0  0  0  0  0  0  0  0  0  0  0  0
    4.4957   -9.2636   17.3041 C   0  0  0  0  0  0  0  0  0  0  0  0
   -1.8070   -5.6086   28.1920 O   0  0  0  0  0  0  0  0  0  0  0  0
   10.4296   -5.1799   28.3140 C   0  0  0  0  0  0  0  0  0  0  0  0
    6.6017   -5.9004   26.9187 C   0  0  0  0  0  0  0  0  0  0  0  0
    2.4761   -6.9940   26.4111 N   0  0  0  0  0  0  0  0  0  0  0  0
    9.1353   -5.4053   27.8239 C   0  0  0  0  0  0  0  0  0  0  0  0
    0.9922   -9.3232   16.5995 O   0  0  0  0  0  0  0  0  0  0  0  0
    1.5232   -7.6869   27.1182 C   0  0  0  0  0  0  0  0  0  0  0  0
    8.6878   -6.6715   27.7262 N   0  0  0  0  0  0  0  0  0  0  0  0
    6.9911   -8.2423   27.1808 C   0  0  0  0  0  0  0  0  0  0  0  0
    3.8436   -7.2758   16.0578 C   0  0  0  0  0  0  0  0  0  0  0  0
    3.1882   -9.7190   17.2566 C   0  0  0  0  0  0  0  0  0  0  0  0
    5.3488   -6.1737   26.5092 C   0  0  0  0  0  0  0  0  0  0  0  0
    7.4567   -6.9464   27.2858 C   0  0  0  0  0  0  0  0  0  0  0  0
    0.1921   -5.7592   27.1123 C   0  0  0  0  0  0  0  0  0  0  0  0
    3.5517   -7.7407   25.9711 C   0  0  0  0  0  0  0  0  0  0  0  0
  1  4  4  0
  1 22  4  0
  2 20  4  0
  2 27  4  0
  3 12  4  0
  3 23  4  0
  4 25  4  0
  4 28  1  0
  5  8  4  0
  5 17  4  0
  6  7  4  0
  6 16  4  0
  7 18  4  0
  8 27  4  0
  9 13  4  0
  9 23  4  0
 10 11  1  0
 11 14  2  0
 11 27  1  0
 12 19  1  0
 12 24  4  0
 13 24  4  0
 15 18  1  0
 16 25  4  0
 16 26  4  0
 17 20  4  0
 17 28  1  0
 18 21  4  0
 21 26  4  0
 22 26  4  0
M  END
$$$$

 Created by Python create_sdf_string function

 28 30  0  0  0  0  0  0  0  0999 V2000
    5.7174   -8.4529   26.7190 C   0  0  0  0  0  0  0  0  0  0  0  0
    0.3974   -7.0711   27.5149 C   0  0  0  0  0  0  0  0  0  0  0  0
    2.5338   -7.6891   16.0102 C   0  0  0  0  0  0  0  0  0  0  0  0
    4.8690   -7.4380   26.4151 C   0  0  0  0  0  0  0  0  0  0  0  0
    2.3021   -5.6726   26.0378 C   0  0  0  0  0  0  0  0  0  0  0  0
    7.0880   -4.6163   27.0010 C   0  0  0  0  0  0  0  0  0  0  0  0
    8.3117   -4.3698   27.4436 C   0  0  0  0  0  0  0  0  0  0  0  0
    1.1339   -5.0515   26.3541 C   0  0  0  0  0  0  0  0  0  0  0  0
    4.8080   -8.0362   16.7101 C   0  0  0  0  0  0  0  0  0  0  0  0
   -1.2173   -3.9294   26.9717 O   0  0  0  0  0  0  0  0  0  0  0  0
   -1.0025   -5.0942   27.4586 C   0  0  0  0  0  0  0  0  0  0  0  0
    2.2474   -8.9123   16.6273 C   0  0  0  0  0  0  0  0  0  0  0  0
    4.4957   -9.2636   17.3041 C   0  0  0  0  0  0  0  0  0  0  0  0
   -1.8070   -5.6086   28.1920 O   0  0  0  0  0  0  0  0  0  0  0  0
   10.4296   -5.1799   28.3140 C   0  0  0  0  0  0  0  0  0  0  0  0
    6.6017   -5.9004   26.9187 C   0  0  0  0  0  0  0  0  0  0  0  0
    2.4761   -6.9940   26.4111 N   0  0  0  0  0  0  0  0  0  0  0  0
    9.1353   -5.4053   27.8239 C   0  0  0  0  0  0  0  0  0  0  0  0
    0.9922   -9.3232   16.5995 O   0  0  0  0  0  0  0  0  0  0  0  0
    1.5232   -7.6869   27.1182 C   0  0  0  0  0  0  0  0  0  0  0  0
    8.6878   -6.6715   27.7262 N   0  0  0  0  0  0  0  0  0  0  0  0
    6.9911   -8.2423   27.1808 C   0  0  0  0  0  0  0  0  0  0  0  0
    3.8436   -7.2758   16.0578 C   0  0  0  0  0  0  0  0  0  0  0  0
    3.1882   -9.7190   17.2566 C   0  0  0  0  0  0  0  0  0  0  0  0
    5.3488   -6.1737   26.5092 C   0  0  0  0  0  0  0  0  0  0  0  0
    7.4567   -6.9464   27.2858 C   0  0  0  0  0  0  0  0  0  0  0  0
    0.1921   -5.7592   27.1123 C   0  0  0  0  0  0  0  0  0  0  0  0
    3.5517   -7.7407   25.9711 C   0  0  0  0  0  0  0  0  0  0  0  0
  1  4  4  0
  1 22  4  0
  2 20  4  0
  2 27  4  0
  3 12  4  0
  3 23  4  0
  4 25  4  0
  4 28  1  0
  5  8  4  0
  5 17  4  0
  6  7  4  0
  6 16  4  0
  7 18  4  0
  8 27  4  0
  9 13  4  0
  9 23  4  0
 10 11  1  0
 11 14  2  0
 11 27  1  0
 12 19  1  0
 12 24  4  0
 13 24  4  0
 15 18  1  0
 16 25  4  0
 16 26  4  0
 17 20  4  0
 17 28  1  0
 18 21  4  0
 21 26  4  0
 22 26  4  0
M  END
$$$$

 Created by Python create_sdf_string function

 28 30  0  0  0  0  0  0  0  0999 V2000
    5.7174   -8.4529   26.7190 C   0  0  0  0  0  0  0  0  0  0  0  0
    0.3974   -7.0711   27.5149 C   0  0  0  0  0  0  0  0  0  0  0  0
    2.5338   -7.6891   16.0102 C   0  0  0  0  0  0  0  0  0  0  0  0
    4.8690   -7.4380   26.4151 C   0  0  0  0  0  0  0  0  0  0  0  0
    2.3021   -5.6726   26.0378 C   0  0  0  0  0  0  0  0  0  0  0  0
    7.0880   -4.6163   27.0010 C   0  0  0  0  0  0  0  0  0  0  0  0
    8.3117   -4.3698   27.4436 C   0  0  0  0  0  0  0  0  0  0  0  0
    1.1339   -5.0515   26.3541 C   0  0  0  0  0  0  0  0  0  0  0  0
    4.8080   -8.0362   16.7101 C   0  0  0  0  0  0  0  0  0  0  0  0
   -1.2173   -3.9294   26.9717 O   0  0  0  0  0  0  0  0  0  0  0  0
   -1.0025   -5.0942   27.4586 C   0  0  0  0  0  0  0  0  0  0  0  0
    2.2474   -8.9123   16.6273 C   0  0  0  0  0  0  0  0  0  0  0  0
    4.4957   -9.2636   17.3041 C   0  0  0  0  0  0  0  0  0  0  0  0
   -1.8070   -5.6086   28.1920 O   0  0  0  0  0  0  0  0  0  0  0  0
   10.4296   -5.1799   28.3140 C   0  0  0  0  0  0  0  0  0  0  0  0
    6.6017   -5.9004   26.9187 C   0  0  0  0  0  0  0  0  0  0  0  0
    2.4761   -6.9940   26.4111 N   0  0  0  0  0  0  0  0  0  0  0  0
    9.1353   -5.4053   27.8239 C   0  0  0  0  0  0  0  0  0  0  0  0
    0.9922   -9.3232   16.5995 O   0  0  0  0  0  0  0  0  0  0  0  0
    1.5232   -7.6869   27.1182 C   0  0  0  0  0  0  0  0  0  0  0  0
    8.6878   -6.6715   27.7262 N   0  0  0  0  0  0  0  0  0  0  0  0
    6.9911   -8.2423   27.1808 C   0  0  0  0  0  0  0  0  0  0  0  0
    3.8436   -7.2758   16.0578 C   0  0  0  0  0  0  0  0  0  0  0  0
    3.1882   -9.7190   17.2566 C   0  0  0  0  0  0  0  0  0  0  0  0
    5.3488   -6.1737   26.5092 C   0  0  0  0  0  0  0  0  0  0  0  0
    7.4567   -6.9464   27.2858 C   0  0  0  0  0  0  0  0  0  0  0  0
    0.1921   -5.7592   27.1123 C   0  0  0  0  0  0  0  0  0  0  0  0
    3.5517   -7.7407   25.9711 C   0  0  0  0  0  0  0  0  0  0  0  0
  1  4  4  0
  1 22  4  0
  2 20  4  0
  2 27  4  0
  3 12  4  0
  3 23  4  0
  4 25  4  0
  4 28  1  0
  5  8  4  0
  5 17  4  0
  6  7  4  0
  6 16  4  0
  7 18  4  0
  8 27  4  0
  9 13  4  0
  9 23  4  0
 10 11  1  0
 11 14  2  0
 11 27  1  0
 12 19  1  0
 12 24  4  0
 13 24  4  0
 15 18  1  0
 16 25  4  0
 16 26  4  0
 17 20  4  0
 17 28  1  0
 18 21  4  0
 21 26  4  0
 22 26  4  0
M  END
$$$$

 Created by Python create_sdf_string function

 28 30  0  0  0  0  0  0  0  0999 V2000
    5.7174   -8.4529   26.7190 C   0  0  0  0  0  0  0  0  0  0  0  0
    0.3974   -7.0711   27.5149 C   0  0  0  0  0  0  0  0  0  0  0  0
    2.5338   -7.6891   16.0102 C   0  0  0  0  0  0  0  0  0  0  0  0
    4.8690   -7.4380   26.4151 C   0  0  0  0  0  0  0  0  0  0  0  0
    2.3021   -5.6726   26.0378 C   0  0  0  0  0  0  0  0  0  0  0  0
    7.0880   -4.6163   27.0010 C   0  0  0  0  0  0  0  0  0  0  0  0
    8.3117   -4.3698   27.4436 C   0  0  0  0  0  0  0  0  0  0  0  0
    1.1339   -5.0515   26.3541 C   0  0  0  0  0  0  0  0  0  0  0  0
    4.8080   -8.0362   16.7101 C   0  0  0  0  0  0  0  0  0  0  0  0
   -1.2173   -3.9294   26.9717 O   0  0  0  0  0  0  0  0  0  0  0  0
   -1.0025   -5.0942   27.4586 C   0  0  0  0  0  0  0  0  0  0  0  0
    2.2474   -8.9123   16.6273 C   0  0  0  0  0  0  0  0  0  0  0  0
    4.4957   -9.2636   17.3041 C   0  0  0  0  0  0  0  0  0  0  0  0
   -1.8070   -5.6086   28.1920 O   0  0  0  0  0  0  0  0  0  0  0  0
   10.4296   -5.1799   28.3140 C   0  0  0  0  0  0  0  0  0  0  0  0
    6.6017   -5.9004   26.9187 C   0  0  0  0  0  0  0  0  0  0  0  0
    2.4761   -6.9940   26.4111 N   0  0  0  0  0  0  0  0  0  0  0  0
    9.1353   -5.4053   27.8239 C   0  0  0  0  0  0  0  0  0  0  0  0
    0.9922   -9.3232   16.5995 O   0  0  0  0  0  0  0  0  0  0  0  0
    1.5232   -7.6869   27.1182 C   0  0  0  0  0  0  0  0  0  0  0  0
    8.6878   -6.6715   27.7262 N   0  0  0  0  0  0  0  0  0  0  0  0
    6.9911   -8.2423   27.1808 C   0  0  0  0  0  0  0  0  0  0  0  0
    3.8436   -7.2758   16.0578 C   0  0  0  0  0  0  0  0  0  0  0  0
    3.1882   -9.7190   17.2566 C   0  0  0  0  0  0  0  0  0  0  0  0
    5.3488   -6.1737   26.5092 C   0  0  0  0  0  0  0  0  0  0  0  0
    7.4567   -6.9464   27.2858 C   0  0  0  0  0  0  0  0  0  0  0  0
    0.1921   -5.7592   27.1123 C   0  0  0  0  0  0  0  0  0  0  0  0
    3.5517   -7.7407   25.9711 C   0  0  0  0  0  0  0  0  0  0  0  0
  1  4  4  0
  1 22  4  0
  2 20  4  0
  2 27  4  0
  3 12  4  0
  3 23  4  0
  4 25  4  0
  4 28  1  0
  5  8  4  0
  5 17  4  0
  6  7  4  0
  6 16  4  0
  7 18  4  0
  8 27  4  0
  9 13  4  0
  9 23  4  0
 10 11  1  0
 11 14  2  0
 11 27  1  0
 12 19  1  0
 12 24  4  0
 13 24  4  0
 15 18  1  0
 16 25  4  0
 16 26  4  0
 17 20  4  0
 17 28  1  0
 18 21  4  0
 21 26  4  0
 22 26  4  0
M  END
$$$$

 Created by Python create_sdf_string function

 28 30  0  0  0  0  0  0  0  0999 V2000
    5.7174   -8.4529   26.7190 C   0  0  0  0  0  0  0  0  0  0  0  0
    0.3974   -7.0711   27.5149 C   0  0  0  0  0  0  0  0  0  0  0  0
    2.5338   -7.6891   16.0102 C   0  0  0  0  0  0  0  0  0  0  0  0
    4.8690   -7.4380   26.4151 C   0  0  0  0  0  0  0  0  0  0  0  0
    2.3021   -5.6726   26.0378 C   0  0  0  0  0  0  0  0  0  0  0  0
    7.0880   -4.6163   27.0010 C   0  0  0  0  0  0  0  0  0  0  0  0
    8.3117   -4.3698   27.4436 C   0  0  0  0  0  0  0  0  0  0  0  0
    1.1339   -5.0515   26.3541 C   0  0  0  0  0  0  0  0  0  0  0  0
    4.8080   -8.0362   16.7101 C   0  0  0  0  0  0  0  0  0  0  0  0
   -1.2173   -3.9294   26.9717 O   0  0  0  0  0  0  0  0  0  0  0  0
   -1.0025   -5.0942   27.4586 C   0  0  0  0  0  0  0  0  0  0  0  0
    2.2474   -8.9123   16.6273 C   0  0  0  0  0  0  0  0  0  0  0  0
    4.4957   -9.2636   17.3041 C   0  0  0  0  0  0  0  0  0  0  0  0
   -1.8070   -5.6086   28.1920 O   0  0  0  0  0  0  0  0  0  0  0  0
   10.4296   -5.1799   28.3140 C   0  0  0  0  0  0  0  0  0  0  0  0
    6.6017   -5.9004   26.9187 C   0  0  0  0  0  0  0  0  0  0  0  0
    2.4761   -6.9940   26.4111 N   0  0  0  0  0  0  0  0  0  0  0  0
    9.1353   -5.4053   27.8239 C   0  0  0  0  0  0  0  0  0  0  0  0
    0.9922   -9.3232   16.5995 O   0  0  0  0  0  0  0  0  0  0  0  0
    1.5232   -7.6869   27.1182 C   0  0  0  0  0  0  0  0  0  0  0  0
    8.6878   -6.6715   27.7262 N   0  0  0  0  0  0  0  0  0  0  0  0
    6.9911   -8.2423   27.1808 C   0  0  0  0  0  0  0  0  0  0  0  0
    3.8436   -7.2758   16.0578 C   0  0  0  0  0  0  0  0  0  0  0  0
    3.1882   -9.7190   17.2566 C   0  0  0  0  0  0  0  0  0  0  0  0
    5.3488   -6.1737   26.5092 C   0  0  0  0  0  0  0  0  0  0  0  0
    7.4567   -6.9464   27.2858 C   0  0  0  0  0  0  0  0  0  0  0  0
    0.1921   -5.7592   27.1123 C   0  0  0  0  0  0  0  0  0  0  0  0
    3.5517   -7.7407   25.9711 C   0  0  0  0  0  0  0  0  0  0  0  0
  1  4  4  0
  1 22  4  0
  2 20  4  0
  2 27  4  0
  3 12  4  0
  3 23  4  0
  4 25  4  0
  4 28  1  0
  5  8  4  0
  5 17  4  0
  6  7  4  0
  6 16  4  0
  7 18  4  0
  8 27  4  0
  9 13  4  0
  9 23  4  0
 10 11  1  0
 11 14  2  0
 11 27  1  0
 12 19  1  0
 12 24  4  0
 13 24  4  0
 15 18  1  0
 16 25  4  0
 16 26  4  0
 17 20  4  0
 17 28  1  0
 18 21  4  0
 21 26  4  0
 22 26  4  0
M  END
$$$$

 Created by Python create_sdf_string function

 28 30  0  0  0  0  0  0  0  0999 V2000
    5.7174   -8.4529   26.7190 C   0  0  0  0  0  0  0  0  0  0  0  0
    0.3974   -7.0711   27.5149 C   0  0  0  0  0  0  0  0  0  0  0  0
    2.5338   -7.6891   16.0102 C   0  0  0  0  0  0  0  0  0  0  0  0
    4.8690   -7.4380   26.4151 C   0  0  0  0  0  0  0  0  0  0  0  0
    2.3021   -5.6726   26.0378 C   0  0  0  0  0  0  0  0  0  0  0  0
    7.0880   -4.6163   27.0010 C   0  0  0  0  0  0  0  0  0  0  0  0
    8.3117   -4.3698   27.4436 C   0  0  0  0  0  0  0  0  0  0  0  0
    1.1339   -5.0515   26.3541 C   0  0  0  0  0  0  0  0  0  0  0  0
    4.8080   -8.0362   16.7101 C   0  0  0  0  0  0  0  0  0  0  0  0
   -1.2173   -3.9294   26.9717 O   0  0  0  0  0  0  0  0  0  0  0  0
   -1.0025   -5.0942   27.4586 C   0  0  0  0  0  0  0  0  0  0  0  0
    2.2474   -8.9123   16.6273 C   0  0  0  0  0  0  0  0  0  0  0  0
    4.4957   -9.2636   17.3041 C   0  0  0  0  0  0  0  0  0  0  0  0
   -1.8070   -5.6086   28.1920 O   0  0  0  0  0  0  0  0  0  0  0  0
   10.4296   -5.1799   28.3140 C   0  0  0  0  0  0  0  0  0  0  0  0
    6.6017   -5.9004   26.9187 C   0  0  0  0  0  0  0  0  0  0  0  0
    2.4761   -6.9940   26.4111 N   0  0  0  0  0  0  0  0  0  0  0  0
    9.1353   -5.4053   27.8239 C   0  0  0  0  0  0  0  0  0  0  0  0
    0.9922   -9.3232   16.5995 O   0  0  0  0  0  0  0  0  0  0  0  0
    1.5232   -7.6869   27.1182 C   0  0  0  0  0  0  0  0  0  0  0  0
    8.6878   -6.6715   27.7262 N   0  0  0  0  0  0  0  0  0  0  0  0
    6.9911   -8.2423   27.1808 C   0  0  0  0  0  0  0  0  0  0  0  0
    3.8436   -7.2758   16.0578 C   0  0  0  0  0  0  0  0  0  0  0  0
    3.1882   -9.7190   17.2566 C   0  0  0  0  0  0  0  0  0  0  0  0
    5.3488   -6.1737   26.5092 C   0  0  0  0  0  0  0  0  0  0  0  0
    7.4567   -6.9464   27.2858 C   0  0  0  0  0  0  0  0  0  0  0  0
    0.1921   -5.7592   27.1123 C   0  0  0  0  0  0  0  0  0  0  0  0
    3.5517   -7.7407   25.9711 C   0  0  0  0  0  0  0  0  0  0  0  0
  1  4  4  0
  1 22  4  0
  2 20  4  0
  2 27  4  0
  3 12  4  0
  3 23  4  0
  4 25  4  0
  4 28  1  0
  5  8  4  0
  5 17  4  0
  6  7  4  0
  6 16  4  0
  7 18  4  0
  8 27  4  0
  9 13  4  0
  9 23  4  0
 10 11  1  0
 11 14  2  0
 11 27  1  0
 12 19  1  0
 12 24  4  0
 13 24  4  0
 15 18  1  0
 16 25  4  0
 16 26  4  0
 17 20  4  0
 17 28  1  0
 18 21  4  0
 21 26  4  0
 22 26  4  0
M  END
$$$$

 Created by Python create_sdf_string function

 28 30  0  0  0  0  0  0  0  0999 V2000
    5.7174   -8.4529   26.7190 C   0  0  0  0  0  0  0  0  0  0  0  0
    0.3974   -7.0711   27.5149 C   0  0  0  0  0  0  0  0  0  0  0  0
    2.5338   -7.6891   16.0102 C   0  0  0  0  0  0  0  0  0  0  0  0
    4.8690   -7.4380   26.4151 C   0  0  0  0  0  0  0  0  0  0  0  0
    2.3021   -5.6726   26.0378 C   0  0  0  0  0  0  0  0  0  0  0  0
    7.0880   -4.6163   27.0010 C   0  0  0  0  0  0  0  0  0  0  0  0
    8.3117   -4.3698   27.4436 C   0  0  0  0  0  0  0  0  0  0  0  0
    1.1339   -5.0515   26.3541 C   0  0  0  0  0  0  0  0  0  0  0  0
    4.8080   -8.0362   16.7101 C   0  0  0  0  0  0  0  0  0  0  0  0
   -1.2173   -3.9294   26.9717 O   0  0  0  0  0  0  0  0  0  0  0  0
   -1.0025   -5.0942   27.4586 C   0  0  0  0  0  0  0  0  0  0  0  0
    2.2474   -8.9123   16.6273 C   0  0  0  0  0  0  0  0  0  0  0  0
    4.4957   -9.2636   17.3041 C   0  0  0  0  0  0  0  0  0  0  0  0
   -1.8070   -5.6086   28.1920 O   0  0  0  0  0  0  0  0  0  0  0  0
   10.4296   -5.1799   28.3140 C   0  0  0  0  0  0  0  0  0  0  0  0
    6.6017   -5.9004   26.9187 C   0  0  0  0  0  0  0  0  0  0  0  0
    2.4761   -6.9940   26.4111 N   0  0  0  0  0  0  0  0  0  0  0  0
    9.1353   -5.4053   27.8239 C   0  0  0  0  0  0  0  0  0  0  0  0
    0.9922   -9.3232   16.5995 O   0  0  0  0  0  0  0  0  0  0  0  0
    1.5232   -7.6869   27.1182 C   0  0  0  0  0  0  0  0  0  0  0  0
    8.6878   -6.6715   27.7262 N   0  0  0  0  0  0  0  0  0  0  0  0
    6.9911   -8.2423   27.1808 C   0  0  0  0  0  0  0  0  0  0  0  0
    3.8436   -7.2758   16.0578 C   0  0  0  0  0  0  0  0  0  0  0  0
    3.1882   -9.7190   17.2566 C   0  0  0  0  0  0  0  0  0  0  0  0
    5.3488   -6.1737   26.5092 C   0  0  0  0  0  0  0  0  0  0  0  0
    7.4567   -6.9464   27.2858 C   0  0  0  0  0  0  0  0  0  0  0  0
    0.1921   -5.7592   27.1123 C   0  0  0  0  0  0  0  0  0  0  0  0
    3.5517   -7.7407   25.9711 C   0  0  0  0  0  0  0  0  0  0  0  0
  1  4  4  0
  1 22  4  0
  2 20  4  0
  2 27  4  0
  3 12  4  0
  3 23  4  0
  4 25  4  0
  4 28  1  0
  5  8  4  0
  5 17  4  0
  6  7  4  0
  6 16  4  0
  7 18  4  0
  8 27  4  0
  9 13  4  0
  9 23  4  0
 10 11  1  0
 11 14  2  0
 11 27  1  0
 12 19  1  0
 12 24  4  0
 13 24  4  0
 15 18  1  0
 16 25  4  0
 16 26  4  0
 17 20  4  0
 17 28  1  0
 18 21  4  0
 21 26  4  0
 22 26  4  0
M  END
$$$$

 Created by Python create_sdf_string function

 28 30  0  0  0  0  0  0  0  0999 V2000
    5.7174   -8.4529   26.7190 C   0  0  0  0  0  0  0  0  0  0  0  0
    0.3974   -7.0711   27.5149 C   0  0  0  0  0  0  0  0  0  0  0  0
    2.5338   -7.6891   16.0102 C   0  0  0  0  0  0  0  0  0  0  0  0
    4.8690   -7.4380   26.4151 C   0  0  0  0  0  0  0  0  0  0  0  0
    2.3021   -5.6726   26.0378 C   0  0  0  0  0  0  0  0  0  0  0  0
    7.0880   -4.6163   27.0010 C   0  0  0  0  0  0  0  0  0  0  0  0
    8.3117   -4.3698   27.4436 C   0  0  0  0  0  0  0  0  0  0  0  0
    1.1339   -5.0515   26.3541 C   0  0  0  0  0  0  0  0  0  0  0  0
    4.8080   -8.0362   16.7101 C   0  0  0  0  0  0  0  0  0  0  0  0
   -1.2173   -3.9294   26.9717 O   0  0  0  0  0  0  0  0  0  0  0  0
   -1.0025   -5.0942   27.4586 C   0  0  0  0  0  0  0  0  0  0  0  0
    2.2474   -8.9123   16.6273 C   0  0  0  0  0  0  0  0  0  0  0  0
    4.4957   -9.2636   17.3041 C   0  0  0  0  0  0  0  0  0  0  0  0
   -1.8070   -5.6086   28.1920 O   0  0  0  0  0  0  0  0  0  0  0  0
   10.4296   -5.1799   28.3140 C   0  0  0  0  0  0  0  0  0  0  0  0
    6.6017   -5.9004   26.9187 C   0  0  0  0  0  0  0  0  0  0  0  0
    2.4761   -6.9940   26.4111 N   0  0  0  0  0  0  0  0  0  0  0  0
    9.1353   -5.4053   27.8239 C   0  0  0  0  0  0  0  0  0  0  0  0
    0.9922   -9.3232   16.5995 O   0  0  0  0  0  0  0  0  0  0  0  0
    1.5232   -7.6869   27.1182 C   0  0  0  0  0  0  0  0  0  0  0  0
    8.6878   -6.6715   27.7262 N   0  0  0  0  0  0  0  0  0  0  0  0
    6.9911   -8.2423   27.1808 C   0  0  0  0  0  0  0  0  0  0  0  0
    3.8436   -7.2758   16.0578 C   0  0  0  0  0  0  0  0  0  0  0  0
    3.1882   -9.7190   17.2566 C   0  0  0  0  0  0  0  0  0  0  0  0
    5.3488   -6.1737   26.5092 C   0  0  0  0  0  0  0  0  0  0  0  0
    7.4567   -6.9464   27.2858 C   0  0  0  0  0  0  0  0  0  0  0  0
    0.1921   -5.7592   27.1123 C   0  0  0  0  0  0  0  0  0  0  0  0
    3.5517   -7.7407   25.9711 C   0  0  0  0  0  0  0  0  0  0  0  0
  1  4  4  0
  1 22  4  0
  2 20  4  0
  2 27  4  0
  3 12  4  0
  3 23  4  0
  4 25  4  0
  4 28  1  0
  5  8  4  0
  5 17  4  0
  6  7  4  0
  6 16  4  0
  7 18  4  0
  8 27  4  0
  9 13  4  0
  9 23  4  0
 10 11  1  0
 11 14  2  0
 11 27  1  0
 12 19  1  0
 12 24  4  0
 13 24  4  0
 15 18  1  0
 16 25  4  0
 16 26  4  0
 17 20  4  0
 17 28  1  0
 18 21  4  0
 21 26  4  0
 22 26  4  0
M  END
$$$$

 Created by Python create_sdf_string function

 28 30  0  0  0  0  0  0  0  0999 V2000
    5.7174   -8.4529   26.7190 C   0  0  0  0  0  0  0  0  0  0  0  0
    0.3974   -7.0711   27.5149 C   0  0  0  0  0  0  0  0  0  0  0  0
    2.5338   -7.6891   16.0102 C   0  0  0  0  0  0  0  0  0  0  0  0
    4.8690   -7.4380   26.4151 C   0  0  0  0  0  0  0  0  0  0  0  0
    2.3021   -5.6726   26.0378 C   0  0  0  0  0  0  0  0  0  0  0  0
    7.0880   -4.6163   27.0010 C   0  0  0  0  0  0  0  0  0  0  0  0
    8.3117   -4.3698   27.4436 C   0  0  0  0  0  0  0  0  0  0  0  0
    1.1339   -5.0515   26.3541 C   0  0  0  0  0  0  0  0  0  0  0  0
    4.8080   -8.0362   16.7101 C   0  0  0  0  0  0  0  0  0  0  0  0
   -1.2173   -3.9294   26.9717 O   0  0  0  0  0  0  0  0  0  0  0  0
   -1.0025   -5.0942   27.4586 C   0  0  0  0  0  0  0  0  0  0  0  0
    2.2474   -8.9123   16.6273 C   0  0  0  0  0  0  0  0  0  0  0  0
    4.4957   -9.2636   17.3041 C   0  0  0  0  0  0  0  0  0  0  0  0
   -1.8070   -5.6086   28.1920 O   0  0  0  0  0  0  0  0  0  0  0  0
   10.4296   -5.1799   28.3140 C   0  0  0  0  0  0  0  0  0  0  0  0
    6.6017   -5.9004   26.9187 C   0  0  0  0  0  0  0  0  0  0  0  0
    2.4761   -6.9940   26.4111 N   0  0  0  0  0  0  0  0  0  0  0  0
    9.1353   -5.4053   27.8239 C   0  0  0  0  0  0  0  0  0  0  0  0
    0.9922   -9.3232   16.5995 O   0  0  0  0  0  0  0  0  0  0  0  0
    1.5232   -7.6869   27.1182 C   0  0  0  0  0  0  0  0  0  0  0  0
    8.6878   -6.6715   27.7262 N   0  0  0  0  0  0  0  0  0  0  0  0
    6.9911   -8.2423   27.1808 C   0  0  0  0  0  0  0  0  0  0  0  0
    3.8436   -7.2758   16.0578 C   0  0  0  0  0  0  0  0  0  0  0  0
    3.1882   -9.7190   17.2566 C   0  0  0  0  0  0  0  0  0  0  0  0
    5.3488   -6.1737   26.5092 C   0  0  0  0  0  0  0  0  0  0  0  0
    7.4567   -6.9464   27.2858 C   0  0  0  0  0  0  0  0  0  0  0  0
    0.1921   -5.7592   27.1123 C   0  0  0  0  0  0  0  0  0  0  0  0
    3.5517   -7.7407   25.9711 C   0  0  0  0  0  0  0  0  0  0  0  0
  1  4  4  0
  1 22  4  0
  2 20  4  0
  2 27  4  0
  3 12  4  0
  3 23  4  0
  4 25  4  0
  4 28  1  0
  5  8  4  0
  5 17  4  0
  6  7  4  0
  6 16  4  0
  7 18  4  0
  8 27  4  0
  9 13  4  0
  9 23  4  0
 10 11  1  0
 11 14  2  0
 11 27  1  0
 12 19  1  0
 12 24  4  0
 13 24  4  0
 15 18  1  0
 16 25  4  0
 16 26  4  0
 17 20  4  0
 17 28  1  0
 18 21  4  0
 21 26  4  0
 22 26  4  0
M  END
$$$$

 Created by Python create_sdf_string function

 28 30  0  0  0  0  0  0  0  0999 V2000
    5.7174   -8.4529   26.7190 C   0  0  0  0  0  0  0  0  0  0  0  0
    0.3974   -7.0711   27.5149 C   0  0  0  0  0  0  0  0  0  0  0  0
    2.5338   -7.6891   16.0102 C   0  0  0  0  0  0  0  0  0  0  0  0
    4.8690   -7.4380   26.4151 C   0  0  0  0  0  0  0  0  0  0  0  0
    2.3021   -5.6726   26.0378 C   0  0  0  0  0  0  0  0  0  0  0  0
    7.0880   -4.6163   27.0010 C   0  0  0  0  0  0  0  0  0  0  0  0
    8.3117   -4.3698   27.4436 C   0  0  0  0  0  0  0  0  0  0  0  0
    1.1339   -5.0515   26.3541 C   0  0  0  0  0  0  0  0  0  0  0  0
    4.8080   -8.0362   16.7101 C   0  0  0  0  0  0  0  0  0  0  0  0
   -1.2173   -3.9294   26.9717 O   0  0  0  0  0  0  0  0  0  0  0  0
   -1.0025   -5.0942   27.4586 C   0  0  0  0  0  0  0  0  0  0  0  0
    2.2474   -8.9123   16.6273 C   0  0  0  0  0  0  0  0  0  0  0  0
    4.4957   -9.2636   17.3041 C   0  0  0  0  0  0  0  0  0  0  0  0
   -1.8070   -5.6086   28.1920 O   0  0  0  0  0  0  0  0  0  0  0  0
   10.4296   -5.1799   28.3140 C   0  0  0  0  0  0  0  0  0  0  0  0
    6.6017   -5.9004   26.9187 C   0  0  0  0  0  0  0  0  0  0  0  0
    2.4761   -6.9940   26.4111 N   0  0  0  0  0  0  0  0  0  0  0  0
    9.1353   -5.4053   27.8239 C   0  0  0  0  0  0  0  0  0  0  0  0
    0.9922   -9.3232   16.5995 O   0  0  0  0  0  0  0  0  0  0  0  0
    1.5232   -7.6869   27.1182 C   0  0  0  0  0  0  0  0  0  0  0  0
    8.6878   -6.6715   27.7262 N   0  0  0  0  0  0  0  0  0  0  0  0
    6.9911   -8.2423   27.1808 C   0  0  0  0  0  0  0  0  0  0  0  0
    3.8436   -7.2758   16.0578 C   0  0  0  0  0  0  0  0  0  0  0  0
    3.1882   -9.7190   17.2566 C   0  0  0  0  0  0  0  0  0  0  0  0
    5.3488   -6.1737   26.5092 C   0  0  0  0  0  0  0  0  0  0  0  0
    7.4567   -6.9464   27.2858 C   0  0  0  0  0  0  0  0  0  0  0  0
    0.1921   -5.7592   27.1123 C   0  0  0  0  0  0  0  0  0  0  0  0
    3.5517   -7.7407   25.9711 C   0  0  0  0  0  0  0  0  0  0  0  0
  1  4  4  0
  1 22  4  0
  2 20  4  0
  2 27  4  0
  3 12  4  0
  3 23  4  0
  4 25  4  0
  4 28  1  0
  5  8  4  0
  5 17  4  0
  6  7  4  0
  6 16  4  0
  7 18  4  0
  8 27  4  0
  9 13  4  0
  9 23  4  0
 10 11  1  0
 11 14  2  0
 11 27  1  0
 12 19  1  0
 12 24  4  0
 13 24  4  0
 15 18  1  0
 16 25  4  0
 16 26  4  0
 17 20  4  0
 17 28  1  0
 18 21  4  0
 21 26  4  0
 22 26  4  0
M  END
$$$$

 Created by Python create_sdf_string function

 28 30  0  0  0  0  0  0  0  0999 V2000
    5.7174   -8.4529   26.7190 C   0  0  0  0  0  0  0  0  0  0  0  0
    0.3974   -7.0711   27.5149 C   0  0  0  0  0  0  0  0  0  0  0  0
    2.5338   -7.6891   16.0102 C   0  0  0  0  0  0  0  0  0  0  0  0
    4.8690   -7.4380   26.4151 C   0  0  0  0  0  0  0  0  0  0  0  0
    2.3021   -5.6726   26.0378 C   0  0  0  0  0  0  0  0  0  0  0  0
    7.0880   -4.6163   27.0010 C   0  0  0  0  0  0  0  0  0  0  0  0
    8.3117   -4.3698   27.4436 C   0  0  0  0  0  0  0  0  0  0  0  0
    1.1339   -5.0515   26.3541 C   0  0  0  0  0  0  0  0  0  0  0  0
    4.8080   -8.0362   16.7101 C   0  0  0  0  0  0  0  0  0  0  0  0
   -1.2173   -3.9294   26.9717 O   0  0  0  0  0  0  0  0  0  0  0  0
   -1.0025   -5.0942   27.4586 C   0  0  0  0  0  0  0  0  0  0  0  0
    2.2474   -8.9123   16.6273 C   0  0  0  0  0  0  0  0  0  0  0  0
    4.4957   -9.2636   17.3041 C   0  0  0  0  0  0  0  0  0  0  0  0
   -1.8070   -5.6086   28.1920 O   0  0  0  0  0  0  0  0  0  0  0  0
   10.4296   -5.1799   28.3140 C   0  0  0  0  0  0  0  0  0  0  0  0
    6.6017   -5.9004   26.9187 C   0  0  0  0  0  0  0  0  0  0  0  0
    2.4761   -6.9940   26.4111 N   0  0  0  0  0  0  0  0  0  0  0  0
    9.1353   -5.4053   27.8239 C   0  0  0  0  0  0  0  0  0  0  0  0
    0.9922   -9.3232   16.5995 O   0  0  0  0  0  0  0  0  0  0  0  0
    1.5232   -7.6869   27.1182 C   0  0  0  0  0  0  0  0  0  0  0  0
    8.6878   -6.6715   27.7262 N   0  0  0  0  0  0  0  0  0  0  0  0
    6.9911   -8.2423   27.1808 C   0  0  0  0  0  0  0  0  0  0  0  0
    3.8436   -7.2758   16.0578 C   0  0  0  0  0  0  0  0  0  0  0  0
    3.1882   -9.7190   17.2566 C   0  0  0  0  0  0  0  0  0  0  0  0
    5.3488   -6.1737   26.5092 C   0  0  0  0  0  0  0  0  0  0  0  0
    7.4567   -6.9464   27.2858 C   0  0  0  0  0  0  0  0  0  0  0  0
    0.1921   -5.7592   27.1123 C   0  0  0  0  0  0  0  0  0  0  0  0
    3.5517   -7.7407   25.9711 C   0  0  0  0  0  0  0  0  0  0  0  0
  1  4  4  0
  1 22  4  0
  2 20  4  0
  2 27  4  0
  3 12  4  0
  3 23  4  0
  4 25  4  0
  4 28  1  0
  5  8  4  0
  5 17  4  0
  6  7  4  0
  6 16  4  0
  7 18  4  0
  8 27  4  0
  9 13  4  0
  9 23  4  0
 10 11  1  0
 11 14  2  0
 11 27  1  0
 12 19  1  0
 12 24  4  0
 13 24  4  0
 15 18  1  0
 16 25  4  0
 16 26  4  0
 17 20  4  0
 17 28  1  0
 18 21  4  0
 21 26  4  0
 22 26  4  0
M  END
$$$$

 Created by Python create_sdf_string function

 28 30  0  0  0  0  0  0  0  0999 V2000
    5.7174   -8.4529   26.7190 C   0  0  0  0  0  0  0  0  0  0  0  0
    0.3974   -7.0711   27.5149 C   0  0  0  0  0  0  0  0  0  0  0  0
    2.5338   -7.6891   16.0102 C   0  0  0  0  0  0  0  0  0  0  0  0
    4.8690   -7.4380   26.4151 C   0  0  0  0  0  0  0  0  0  0  0  0
    2.3021   -5.6726   26.0378 C   0  0  0  0  0  0  0  0  0  0  0  0
    7.0880   -4.6163   27.0010 C   0  0  0  0  0  0  0  0  0  0  0  0
    8.3117   -4.3698   27.4436 C   0  0  0  0  0  0  0  0  0  0  0  0
    1.1339   -5.0515   26.3541 C   0  0  0  0  0  0  0  0  0  0  0  0
    4.8080   -8.0362   16.7101 C   0  0  0  0  0  0  0  0  0  0  0  0
   -1.2173   -3.9294   26.9717 O   0  0  0  0  0  0  0  0  0  0  0  0
   -1.0025   -5.0942   27.4586 C   0  0  0  0  0  0  0  0  0  0  0  0
    2.2474   -8.9123   16.6273 C   0  0  0  0  0  0  0  0  0  0  0  0
    4.4957   -9.2636   17.3041 C   0  0  0  0  0  0  0  0  0  0  0  0
   -1.8070   -5.6086   28.1920 O   0  0  0  0  0  0  0  0  0  0  0  0
   10.4296   -5.1799   28.3140 C   0  0  0  0  0  0  0  0  0  0  0  0
    6.6017   -5.9004   26.9187 C   0  0  0  0  0  0  0  0  0  0  0  0
    2.4761   -6.9940   26.4111 N   0  0  0  0  0  0  0  0  0  0  0  0
    9.1353   -5.4053   27.8239 C   0  0  0  0  0  0  0  0  0  0  0  0
    0.9922   -9.3232   16.5995 O   0  0  0  0  0  0  0  0  0  0  0  0
    1.5232   -7.6869   27.1182 C   0  0  0  0  0  0  0  0  0  0  0  0
    8.6878   -6.6715   27.7262 N   0  0  0  0  0  0  0  0  0  0  0  0
    6.9911   -8.2423   27.1808 C   0  0  0  0  0  0  0  0  0  0  0  0
    3.8436   -7.2758   16.0578 C   0  0  0  0  0  0  0  0  0  0  0  0
    3.1882   -9.7190   17.2566 C   0  0  0  0  0  0  0  0  0  0  0  0
    5.3488   -6.1737   26.5092 C   0  0  0  0  0  0  0  0  0  0  0  0
    7.4567   -6.9464   27.2858 C   0  0  0  0  0  0  0  0  0  0  0  0
    0.1921   -5.7592   27.1123 C   0  0  0  0  0  0  0  0  0  0  0  0
    3.5517   -7.7407   25.9711 C   0  0  0  0  0  0  0  0  0  0  0  0
  1  4  4  0
  1 22  4  0
  2 20  4  0
  2 27  4  0
  3 12  4  0
  3 23  4  0
  4 25  4  0
  4 28  1  0
  5  8  4  0
  5 17  4  0
  6  7  4  0
  6 16  4  0
  7 18  4  0
  8 27  4  0
  9 13  4  0
  9 23  4  0
 10 11  1  0
 11 14  2  0
 11 27  1  0
 12 19  1  0
 12 24  4  0
 13 24  4  0
 15 18  1  0
 16 25  4  0
 16 26  4  0
 17 20  4  0
 17 28  1  0
 18 21  4  0
 21 26  4  0
 22 26  4  0
M  END
$$$$

 Created by Python create_sdf_string function

 28 30  0  0  0  0  0  0  0  0999 V2000
    5.7174   -8.4529   26.7190 C   0  0  0  0  0  0  0  0  0  0  0  0
    0.3974   -7.0711   27.5149 C   0  0  0  0  0  0  0  0  0  0  0  0
    2.5338   -7.6891   16.0102 C   0  0  0  0  0  0  0  0  0  0  0  0
    4.8690   -7.4380   26.4151 C   0  0  0  0  0  0  0  0  0  0  0  0
    2.3021   -5.6726   26.0378 C   0  0  0  0  0  0  0  0  0  0  0  0
    7.0880   -4.6163   27.0010 C   0  0  0  0  0  0  0  0  0  0  0  0
    8.3117   -4.3698   27.4436 C   0  0  0  0  0  0  0  0  0  0  0  0
    1.1339   -5.0515   26.3541 C   0  0  0  0  0  0  0  0  0  0  0  0
    4.8080   -8.0362   16.7101 C   0  0  0  0  0  0  0  0  0  0  0  0
   -1.2173   -3.9294   26.9717 O   0  0  0  0  0  0  0  0  0  0  0  0
   -1.0025   -5.0942   27.4586 C   0  0  0  0  0  0  0  0  0  0  0  0
    2.2474   -8.9123   16.6273 C   0  0  0  0  0  0  0  0  0  0  0  0
    4.4957   -9.2636   17.3041 C   0  0  0  0  0  0  0  0  0  0  0  0
   -1.8070   -5.6086   28.1920 O   0  0  0  0  0  0  0  0  0  0  0  0
   10.4296   -5.1799   28.3140 C   0  0  0  0  0  0  0  0  0  0  0  0
    6.6017   -5.9004   26.9187 C   0  0  0  0  0  0  0  0  0  0  0  0
    2.4761   -6.9940   26.4111 N   0  0  0  0  0  0  0  0  0  0  0  0
    9.1353   -5.4053   27.8239 C   0  0  0  0  0  0  0  0  0  0  0  0
    0.9922   -9.3232   16.5995 O   0  0  0  0  0  0  0  0  0  0  0  0
    1.5232   -7.6869   27.1182 C   0  0  0  0  0  0  0  0  0  0  0  0
    8.6878   -6.6715   27.7262 N   0  0  0  0  0  0  0  0  0  0  0  0
    6.9911   -8.2423   27.1808 C   0  0  0  0  0  0  0  0  0  0  0  0
    3.8436   -7.2758   16.0578 C   0  0  0  0  0  0  0  0  0  0  0  0
    3.1882   -9.7190   17.2566 C   0  0  0  0  0  0  0  0  0  0  0  0
    5.3488   -6.1737   26.5092 C   0  0  0  0  0  0  0  0  0  0  0  0
    7.4567   -6.9464   27.2858 C   0  0  0  0  0  0  0  0  0  0  0  0
    0.1921   -5.7592   27.1123 C   0  0  0  0  0  0  0  0  0  0  0  0
    3.5517   -7.7407   25.9711 C   0  0  0  0  0  0  0  0  0  0  0  0
  1  4  4  0
  1 22  4  0
  2 20  4  0
  2 27  4  0
  3 12  4  0
  3 23  4  0
  4 25  4  0
  4 28  1  0
  5  8  4  0
  5 17  4  0
  6  7  4  0
  6 16  4  0
  7 18  4  0
  8 27  4  0
  9 13  4  0
  9 23  4  0
 10 11  1  0
 11 14  2  0
 11 27  1  0
 12 19  1  0
 12 24  4  0
 13 24  4  0
 15 18  1  0
 16 25  4  0
 16 26  4  0
 17 20  4  0
 17 28  1  0
 18 21  4  0
 21 26  4  0
 22 26  4  0
M  END
$$$$

 Created by Python create_sdf_string function

 28 30  0  0  0  0  0  0  0  0999 V2000
    5.7174   -8.4529   26.7190 C   0  0  0  0  0  0  0  0  0  0  0  0
    0.3974   -7.0711   27.5149 C   0  0  0  0  0  0  0  0  0  0  0  0
    2.5338   -7.6891   16.0102 C   0  0  0  0  0  0  0  0  0  0  0  0
    4.8690   -7.4380   26.4151 C   0  0  0  0  0  0  0  0  0  0  0  0
    2.3021   -5.6726   26.0378 C   0  0  0  0  0  0  0  0  0  0  0  0
    7.0880   -4.6163   27.0010 C   0  0  0  0  0  0  0  0  0  0  0  0
    8.3117   -4.3698   27.4436 C   0  0  0  0  0  0  0  0  0  0  0  0
    1.1339   -5.0515   26.3541 C   0  0  0  0  0  0  0  0  0  0  0  0
    4.8080   -8.0362   16.7101 C   0  0  0  0  0  0  0  0  0  0  0  0
   -1.2173   -3.9294   26.9717 O   0  0  0  0  0  0  0  0  0  0  0  0
   -1.0025   -5.0942   27.4586 C   0  0  0  0  0  0  0  0  0  0  0  0
    2.2474   -8.9123   16.6273 C   0  0  0  0  0  0  0  0  0  0  0  0
    4.4957   -9.2636   17.3041 C   0  0  0  0  0  0  0  0  0  0  0  0
   -1.8070   -5.6086   28.1920 O   0  0  0  0  0  0  0  0  0  0  0  0
   10.4296   -5.1799   28.3140 C   0  0  0  0  0  0  0  0  0  0  0  0
    6.6017   -5.9004   26.9187 C   0  0  0  0  0  0  0  0  0  0  0  0
    2.4761   -6.9940   26.4111 N   0  0  0  0  0  0  0  0  0  0  0  0
    9.1353   -5.4053   27.8239 C   0  0  0  0  0  0  0  0  0  0  0  0
    0.9922   -9.3232   16.5995 O   0  0  0  0  0  0  0  0  0  0  0  0
    1.5232   -7.6869   27.1182 C   0  0  0  0  0  0  0  0  0  0  0  0
    8.6878   -6.6715   27.7262 N   0  0  0  0  0  0  0  0  0  0  0  0
    6.9911   -8.2423   27.1808 C   0  0  0  0  0  0  0  0  0  0  0  0
    3.8436   -7.2758   16.0578 C   0  0  0  0  0  0  0  0  0  0  0  0
    3.1882   -9.7190   17.2566 C   0  0  0  0  0  0  0  0  0  0  0  0
    5.3488   -6.1737   26.5092 C   0  0  0  0  0  0  0  0  0  0  0  0
    7.4567   -6.9464   27.2858 C   0  0  0  0  0  0  0  0  0  0  0  0
    0.1921   -5.7592   27.1123 C   0  0  0  0  0  0  0  0  0  0  0  0
    3.5517   -7.7407   25.9711 C   0  0  0  0  0  0  0  0  0  0  0  0
  1  4  4  0
  1 22  4  0
  2 20  4  0
  2 27  4  0
  3 12  4  0
  3 23  4  0
  4 25  4  0
  4 28  1  0
  5  8  4  0
  5 17  4  0
  6  7  4  0
  6 16  4  0
  7 18  4  0
  8 27  4  0
  9 13  4  0
  9 23  4  0
 10 11  1  0
 11 14  2  0
 11 27  1  0
 12 19  1  0
 12 24  4  0
 13 24  4  0
 15 18  1  0
 16 25  4  0
 16 26  4  0
 17 20  4  0
 17 28  1  0
 18 21  4  0
 21 26  4  0
 22 26  4  0
M  END
$$$$

 Created by Python create_sdf_string function

 28 30  0  0  0  0  0  0  0  0999 V2000
    5.7174   -8.4529   26.7190 C   0  0  0  0  0  0  0  0  0  0  0  0
    0.3974   -7.0711   27.5149 C   0  0  0  0  0  0  0  0  0  0  0  0
    2.5338   -7.6891   16.0102 C   0  0  0  0  0  0  0  0  0  0  0  0
    4.8690   -7.4380   26.4151 C   0  0  0  0  0  0  0  0  0  0  0  0
    2.3021   -5.6726   26.0378 C   0  0  0  0  0  0  0  0  0  0  0  0
    7.0880   -4.6163   27.0010 C   0  0  0  0  0  0  0  0  0  0  0  0
    8.3117   -4.3698   27.4436 C   0  0  0  0  0  0  0  0  0  0  0  0
    1.1339   -5.0515   26.3541 C   0  0  0  0  0  0  0  0  0  0  0  0
    4.8080   -8.0362   16.7101 C   0  0  0  0  0  0  0  0  0  0  0  0
   -1.2173   -3.9294   26.9717 O   0  0  0  0  0  0  0  0  0  0  0  0
   -1.0025   -5.0942   27.4586 C   0  0  0  0  0  0  0  0  0  0  0  0
    2.2474   -8.9123   16.6273 C   0  0  0  0  0  0  0  0  0  0  0  0
    4.4957   -9.2636   17.3041 C   0  0  0  0  0  0  0  0  0  0  0  0
   -1.8070   -5.6086   28.1920 O   0  0  0  0  0  0  0  0  0  0  0  0
   10.4296   -5.1799   28.3140 C   0  0  0  0  0  0  0  0  0  0  0  0
    6.6017   -5.9004   26.9187 C   0  0  0  0  0  0  0  0  0  0  0  0
    2.4761   -6.9940   26.4111 N   0  0  0  0  0  0  0  0  0  0  0  0
    9.1353   -5.4053   27.8239 C   0  0  0  0  0  0  0  0  0  0  0  0
    0.9922   -9.3232   16.5995 O   0  0  0  0  0  0  0  0  0  0  0  0
    1.5232   -7.6869   27.1182 C   0  0  0  0  0  0  0  0  0  0  0  0
    8.6878   -6.6715   27.7262 N   0  0  0  0  0  0  0  0  0  0  0  0
    6.9911   -8.2423   27.1808 C   0  0  0  0  0  0  0  0  0  0  0  0
    3.8436   -7.2758   16.0578 C   0  0  0  0  0  0  0  0  0  0  0  0
    3.1882   -9.7190   17.2566 C   0  0  0  0  0  0  0  0  0  0  0  0
    5.3488   -6.1737   26.5092 C   0  0  0  0  0  0  0  0  0  0  0  0
    7.4567   -6.9464   27.2858 C   0  0  0  0  0  0  0  0  0  0  0  0
    0.1921   -5.7592   27.1123 C   0  0  0  0  0  0  0  0  0  0  0  0
    3.5517   -7.7407   25.9711 C   0  0  0  0  0  0  0  0  0  0  0  0
  1  4  4  0
  1 22  4  0
  2 20  4  0
  2 27  4  0
  3 12  4  0
  3 23  4  0
  4 25  4  0
  4 28  1  0
  5  8  4  0
  5 17  4  0
  6  7  4  0
  6 16  4  0
  7 18  4  0
  8 27  4  0
  9 13  4  0
  9 23  4  0
 10 11  1  0
 11 14  2  0
 11 27  1  0
 12 19  1  0
 12 24  4  0
 13 24  4  0
 15 18  1  0
 16 25  4  0
 16 26  4  0
 17 20  4  0
 17 28  1  0
 18 21  4  0
 21 26  4  0
 22 26  4  0
M  END
$$$$

 Created by Python create_sdf_string function

 28 30  0  0  0  0  0  0  0  0999 V2000
    5.7174   -8.4529   26.7190 C   0  0  0  0  0  0  0  0  0  0  0  0
    0.3974   -7.0711   27.5149 C   0  0  0  0  0  0  0  0  0  0  0  0
    2.5338   -7.6891   16.0102 C   0  0  0  0  0  0  0  0  0  0  0  0
    4.8690   -7.4380   26.4151 C   0  0  0  0  0  0  0  0  0  0  0  0
    2.3021   -5.6726   26.0378 C   0  0  0  0  0  0  0  0  0  0  0  0
    7.0880   -4.6163   27.0010 C   0  0  0  0  0  0  0  0  0  0  0  0
    8.3117   -4.3698   27.4436 C   0  0  0  0  0  0  0  0  0  0  0  0
    1.1339   -5.0515   26.3541 C   0  0  0  0  0  0  0  0  0  0  0  0
    4.8080   -8.0362   16.7101 C   0  0  0  0  0  0  0  0  0  0  0  0
   -1.2173   -3.9294   26.9717 O   0  0  0  0  0  0  0  0  0  0  0  0
   -1.0025   -5.0942   27.4586 C   0  0  0  0  0  0  0  0  0  0  0  0
    2.2474   -8.9123   16.6273 C   0  0  0  0  0  0  0  0  0  0  0  0
    4.4957   -9.2636   17.3041 C   0  0  0  0  0  0  0  0  0  0  0  0
   -1.8070   -5.6086   28.1920 O   0  0  0  0  0  0  0  0  0  0  0  0
   10.4296   -5.1799   28.3140 C   0  0  0  0  0  0  0  0  0  0  0  0
    6.6017   -5.9004   26.9187 C   0  0  0  0  0  0  0  0  0  0  0  0
    2.4761   -6.9940   26.4111 N   0  0  0  0  0  0  0  0  0  0  0  0
    9.1353   -5.4053   27.8239 C   0  0  0  0  0  0  0  0  0  0  0  0
    0.9922   -9.3232   16.5995 O   0  0  0  0  0  0  0  0  0  0  0  0
    1.5232   -7.6869   27.1182 C   0  0  0  0  0  0  0  0  0  0  0  0
    8.6878   -6.6715   27.7262 N   0  0  0  0  0  0  0  0  0  0  0  0
    6.9911   -8.2423   27.1808 C   0  0  0  0  0  0  0  0  0  0  0  0
    3.8436   -7.2758   16.0578 C   0  0  0  0  0  0  0  0  0  0  0  0
    3.1882   -9.7190   17.2566 C   0  0  0  0  0  0  0  0  0  0  0  0
    5.3488   -6.1737   26.5092 C   0  0  0  0  0  0  0  0  0  0  0  0
    7.4567   -6.9464   27.2858 C   0  0  0  0  0  0  0  0  0  0  0  0
    0.1921   -5.7592   27.1123 C   0  0  0  0  0  0  0  0  0  0  0  0
    3.5517   -7.7407   25.9711 C   0  0  0  0  0  0  0  0  0  0  0  0
  1  4  4  0
  1 22  4  0
  2 20  4  0
  2 27  4  0
  3 12  4  0
  3 23  4  0
  4 25  4  0
  4 28  1  0
  5  8  4  0
  5 17  4  0
  6  7  4  0
  6 16  4  0
  7 18  4  0
  8 27  4  0
  9 13  4  0
  9 23  4  0
 10 11  1  0
 11 14  2  0
 11 27  1  0
 12 19  1  0
 12 24  4  0
 13 24  4  0
 15 18  1  0
 16 25  4  0
 16 26  4  0
 17 20  4  0
 17 28  1  0
 18 21  4  0
 21 26  4  0
 22 26  4  0
M  END
$$$$

 Created by Python create_sdf_string function

 28 30  0  0  0  0  0  0  0  0999 V2000
    5.7174   -8.4529   26.7190 C   0  0  0  0  0  0  0  0  0  0  0  0
    0.3974   -7.0711   27.5149 C   0  0  0  0  0  0  0  0  0  0  0  0
    2.5338   -7.6891   16.0102 C   0  0  0  0  0  0  0  0  0  0  0  0
    4.8690   -7.4380   26.4151 C   0  0  0  0  0  0  0  0  0  0  0  0
    2.3021   -5.6726   26.0378 C   0  0  0  0  0  0  0  0  0  0  0  0
    7.0880   -4.6163   27.0010 C   0  0  0  0  0  0  0  0  0  0  0  0
    8.3117   -4.3698   27.4436 C   0  0  0  0  0  0  0  0  0  0  0  0
    1.1339   -5.0515   26.3541 C   0  0  0  0  0  0  0  0  0  0  0  0
    4.8080   -8.0362   16.7101 C   0  0  0  0  0  0  0  0  0  0  0  0
   -1.2173   -3.9294   26.9717 O   0  0  0  0  0  0  0  0  0  0  0  0
   -1.0025   -5.0942   27.4586 C   0  0  0  0  0  0  0  0  0  0  0  0
    2.2474   -8.9123   16.6273 C   0  0  0  0  0  0  0  0  0  0  0  0
    4.4957   -9.2636   17.3041 C   0  0  0  0  0  0  0  0  0  0  0  0
   -1.8070   -5.6086   28.1920 O   0  0  0  0  0  0  0  0  0  0  0  0
   10.4296   -5.1799   28.3140 C   0  0  0  0  0  0  0  0  0  0  0  0
    6.6017   -5.9004   26.9187 C   0  0  0  0  0  0  0  0  0  0  0  0
    2.4761   -6.9940   26.4111 N   0  0  0  0  0  0  0  0  0  0  0  0
    9.1353   -5.4053   27.8239 C   0  0  0  0  0  0  0  0  0  0  0  0
    0.9922   -9.3232   16.5995 O   0  0  0  0  0  0  0  0  0  0  0  0
    1.5232   -7.6869   27.1182 C   0  0  0  0  0  0  0  0  0  0  0  0
    8.6878   -6.6715   27.7262 N   0  0  0  0  0  0  0  0  0  0  0  0
    6.9911   -8.2423   27.1808 C   0  0  0  0  0  0  0  0  0  0  0  0
    3.8436   -7.2758   16.0578 C   0  0  0  0  0  0  0  0  0  0  0  0
    3.1882   -9.7190   17.2566 C   0  0  0  0  0  0  0  0  0  0  0  0
    5.3488   -6.1737   26.5092 C   0  0  0  0  0  0  0  0  0  0  0  0
    7.4567   -6.9464   27.2858 C   0  0  0  0  0  0  0  0  0  0  0  0
    0.1921   -5.7592   27.1123 C   0  0  0  0  0  0  0  0  0  0  0  0
    3.5517   -7.7407   25.9711 C   0  0  0  0  0  0  0  0  0  0  0  0
  1  4  4  0
  1 22  4  0
  2 20  4  0
  2 27  4  0
  3 12  4  0
  3 23  4  0
  4 25  4  0
  4 28  1  0
  5  8  4  0
  5 17  4  0
  6  7  4  0
  6 16  4  0
  7 18  4  0
  8 27  4  0
  9 13  4  0
  9 23  4  0
 10 11  1  0
 11 14  2  0
 11 27  1  0
 12 19  1  0
 12 24  4  0
 13 24  4  0
 15 18  1  0
 16 25  4  0
 16 26  4  0
 17 20  4  0
 17 28  1  0
 18 21  4  0
 21 26  4  0
 22 26  4  0
M  END
$$$$

 Created by Python create_sdf_string function

 28 30  0  0  0  0  0  0  0  0999 V2000
    5.7174   -8.4529   26.7190 C   0  0  0  0  0  0  0  0  0  0  0  0
    0.3974   -7.0711   27.5149 C   0  0  0  0  0  0  0  0  0  0  0  0
    2.5338   -7.6891   16.0102 C   0  0  0  0  0  0  0  0  0  0  0  0
    4.8690   -7.4380   26.4151 C   0  0  0  0  0  0  0  0  0  0  0  0
    2.3021   -5.6726   26.0378 C   0  0  0  0  0  0  0  0  0  0  0  0
    7.0880   -4.6163   27.0010 C   0  0  0  0  0  0  0  0  0  0  0  0
    8.3117   -4.3698   27.4436 C   0  0  0  0  0  0  0  0  0  0  0  0
    1.1339   -5.0515   26.3541 C   0  0  0  0  0  0  0  0  0  0  0  0
    4.8080   -8.0362   16.7101 C   0  0  0  0  0  0  0  0  0  0  0  0
   -1.2173   -3.9294   26.9717 O   0  0  0  0  0  0  0  0  0  0  0  0
   -1.0025   -5.0942   27.4586 C   0  0  0  0  0  0  0  0  0  0  0  0
    2.2474   -8.9123   16.6273 C   0  0  0  0  0  0  0  0  0  0  0  0
    4.4957   -9.2636   17.3041 C   0  0  0  0  0  0  0  0  0  0  0  0
   -1.8070   -5.6086   28.1920 O   0  0  0  0  0  0  0  0  0  0  0  0
   10.4296   -5.1799   28.3140 C   0  0  0  0  0  0  0  0  0  0  0  0
    6.6017   -5.9004   26.9187 C   0  0  0  0  0  0  0  0  0  0  0  0
    2.4761   -6.9940   26.4111 N   0  0  0  0  0  0  0  0  0  0  0  0
    9.1353   -5.4053   27.8239 C   0  0  0  0  0  0  0  0  0  0  0  0
    0.9922   -9.3232   16.5995 O   0  0  0  0  0  0  0  0  0  0  0  0
    1.5232   -7.6869   27.1182 C   0  0  0  0  0  0  0  0  0  0  0  0
    8.6878   -6.6715   27.7262 N   0  0  0  0  0  0  0  0  0  0  0  0
    6.9911   -8.2423   27.1808 C   0  0  0  0  0  0  0  0  0  0  0  0
    3.8436   -7.2758   16.0578 C   0  0  0  0  0  0  0  0  0  0  0  0
    3.1882   -9.7190   17.2566 C   0  0  0  0  0  0  0  0  0  0  0  0
    5.3488   -6.1737   26.5092 C   0  0  0  0  0  0  0  0  0  0  0  0
    7.4567   -6.9464   27.2858 C   0  0  0  0  0  0  0  0  0  0  0  0
    0.1921   -5.7592   27.1123 C   0  0  0  0  0  0  0  0  0  0  0  0
    3.5517   -7.7407   25.9711 C   0  0  0  0  0  0  0  0  0  0  0  0
  1  4  4  0
  1 22  4  0
  2 20  4  0
  2 27  4  0
  3 12  4  0
  3 23  4  0
  4 25  4  0
  4 28  1  0
  5  8  4  0
  5 17  4  0
  6  7  4  0
  6 16  4  0
  7 18  4  0
  8 27  4  0
  9 13  4  0
  9 23  4  0
 10 11  1  0
 11 14  2  0
 11 27  1  0
 12 19  1  0
 12 24  4  0
 13 24  4  0
 15 18  1  0
 16 25  4  0
 16 26  4  0
 17 20  4  0
 17 28  1  0
 18 21  4  0
 21 26  4  0
 22 26  4  0
M  END
$$$$

 Created by Python create_sdf_string function

 28 30  0  0  0  0  0  0  0  0999 V2000
    5.7174   -8.4529   26.7190 C   0  0  0  0  0  0  0  0  0  0  0  0
    0.3974   -7.0711   27.5149 C   0  0  0  0  0  0  0  0  0  0  0  0
    2.5338   -7.6891   16.0102 C   0  0  0  0  0  0  0  0  0  0  0  0
    4.8690   -7.4380   26.4151 C   0  0  0  0  0  0  0  0  0  0  0  0
    2.3021   -5.6726   26.0378 C   0  0  0  0  0  0  0  0  0  0  0  0
    7.0880   -4.6163   27.0010 C   0  0  0  0  0  0  0  0  0  0  0  0
    8.3117   -4.3698   27.4436 C   0  0  0  0  0  0  0  0  0  0  0  0
    1.1339   -5.0515   26.3541 C   0  0  0  0  0  0  0  0  0  0  0  0
    4.8080   -8.0362   16.7101 C   0  0  0  0  0  0  0  0  0  0  0  0
   -1.2173   -3.9294   26.9717 O   0  0  0  0  0  0  0  0  0  0  0  0
   -1.0025   -5.0942   27.4586 C   0  0  0  0  0  0  0  0  0  0  0  0
    2.2474   -8.9123   16.6273 C   0  0  0  0  0  0  0  0  0  0  0  0
    4.4957   -9.2636   17.3041 C   0  0  0  0  0  0  0  0  0  0  0  0
   -1.8070   -5.6086   28.1920 O   0  0  0  0  0  0  0  0  0  0  0  0
   10.4296   -5.1799   28.3140 C   0  0  0  0  0  0  0  0  0  0  0  0
    6.6017   -5.9004   26.9187 C   0  0  0  0  0  0  0  0  0  0  0  0
    2.4761   -6.9940   26.4111 N   0  0  0  0  0  0  0  0  0  0  0  0
    9.1353   -5.4053   27.8239 C   0  0  0  0  0  0  0  0  0  0  0  0
    0.9922   -9.3232   16.5995 O   0  0  0  0  0  0  0  0  0  0  0  0
    1.5232   -7.6869   27.1182 C   0  0  0  0  0  0  0  0  0  0  0  0
    8.6878   -6.6715   27.7262 N   0  0  0  0  0  0  0  0  0  0  0  0
    6.9911   -8.2423   27.1808 C   0  0  0  0  0  0  0  0  0  0  0  0
    3.8436   -7.2758   16.0578 C   0  0  0  0  0  0  0  0  0  0  0  0
    3.1882   -9.7190   17.2566 C   0  0  0  0  0  0  0  0  0  0  0  0
    5.3488   -6.1737   26.5092 C   0  0  0  0  0  0  0  0  0  0  0  0
    7.4567   -6.9464   27.2858 C   0  0  0  0  0  0  0  0  0  0  0  0
    0.1921   -5.7592   27.1123 C   0  0  0  0  0  0  0  0  0  0  0  0
    3.5517   -7.7407   25.9711 C   0  0  0  0  0  0  0  0  0  0  0  0
  1  4  4  0
  1 22  4  0
  2 20  4  0
  2 27  4  0
  3 12  4  0
  3 23  4  0
  4 25  4  0
  4 28  1  0
  5  8  4  0
  5 17  4  0
  6  7  4  0
  6 16  4  0
  7 18  4  0
  8 27  4  0
  9 13  4  0
  9 23  4  0
 10 11  1  0
 11 14  2  0
 11 27  1  0
 12 19  1  0
 12 24  4  0
 13 24  4  0
 15 18  1  0
 16 25  4  0
 16 26  4  0
 17 20  4  0
 17 28  1  0
 18 21  4  0
 21 26  4  0
 22 26  4  0
M  END
$$$$

 Created by Python create_sdf_string function

 28 30  0  0  0  0  0  0  0  0999 V2000
    5.7174   -8.4529   26.7190 C   0  0  0  0  0  0  0  0  0  0  0  0
    0.3974   -7.0711   27.5149 C   0  0  0  0  0  0  0  0  0  0  0  0
    2.5338   -7.6891   16.0102 C   0  0  0  0  0  0  0  0  0  0  0  0
    4.8690   -7.4380   26.4151 C   0  0  0  0  0  0  0  0  0  0  0  0
    2.3021   -5.6726   26.0378 C   0  0  0  0  0  0  0  0  0  0  0  0
    7.0880   -4.6163   27.0010 C   0  0  0  0  0  0  0  0  0  0  0  0
    8.3117   -4.3698   27.4436 C   0  0  0  0  0  0  0  0  0  0  0  0
    1.1339   -5.0515   26.3541 C   0  0  0  0  0  0  0  0  0  0  0  0
    4.8080   -8.0362   16.7101 C   0  0  0  0  0  0  0  0  0  0  0  0
   -1.2173   -3.9294   26.9717 O   0  0  0  0  0  0  0  0  0  0  0  0
   -1.0025   -5.0942   27.4586 C   0  0  0  0  0  0  0  0  0  0  0  0
    2.2474   -8.9123   16.6273 C   0  0  0  0  0  0  0  0  0  0  0  0
    4.4957   -9.2636   17.3041 C   0  0  0  0  0  0  0  0  0  0  0  0
   -1.8070   -5.6086   28.1920 O   0  0  0  0  0  0  0  0  0  0  0  0
   10.4296   -5.1799   28.3140 C   0  0  0  0  0  0  0  0  0  0  0  0
    6.6017   -5.9004   26.9187 C   0  0  0  0  0  0  0  0  0  0  0  0
    2.4761   -6.9940   26.4111 N   0  0  0  0  0  0  0  0  0  0  0  0
    9.1353   -5.4053   27.8239 C   0  0  0  0  0  0  0  0  0  0  0  0
    0.9922   -9.3232   16.5995 O   0  0  0  0  0  0  0  0  0  0  0  0
    1.5232   -7.6869   27.1182 C   0  0  0  0  0  0  0  0  0  0  0  0
    8.6878   -6.6715   27.7262 N   0  0  0  0  0  0  0  0  0  0  0  0
    6.9911   -8.2423   27.1808 C   0  0  0  0  0  0  0  0  0  0  0  0
    3.8436   -7.2758   16.0578 C   0  0  0  0  0  0  0  0  0  0  0  0
    3.1882   -9.7190   17.2566 C   0  0  0  0  0  0  0  0  0  0  0  0
    5.3488   -6.1737   26.5092 C   0  0  0  0  0  0  0  0  0  0  0  0
    7.4567   -6.9464   27.2858 C   0  0  0  0  0  0  0  0  0  0  0  0
    0.1921   -5.7592   27.1123 C   0  0  0  0  0  0  0  0  0  0  0  0
    3.5517   -7.7407   25.9711 C   0  0  0  0  0  0  0  0  0  0  0  0
  1  4  4  0
  1 22  4  0
  2 20  4  0
  2 27  4  0
  3 12  4  0
  3 23  4  0
  4 25  4  0
  4 28  1  0
  5  8  4  0
  5 17  4  0
  6  7  4  0
  6 16  4  0
  7 18  4  0
  8 27  4  0
  9 13  4  0
  9 23  4  0
 10 11  1  0
 11 14  2  0
 11 27  1  0
 12 19  1  0
 12 24  4  0
 13 24  4  0
 15 18  1  0
 16 25  4  0
 16 26  4  0
 17 20  4  0
 17 28  1  0
 18 21  4  0
 21 26  4  0
 22 26  4  0
M  END
$$$$

 Created by Python create_sdf_string function

 28 30  0  0  0  0  0  0  0  0999 V2000
    5.7174   -8.4529   26.7190 C   0  0  0  0  0  0  0  0  0  0  0  0
    0.3974   -7.0711   27.5149 C   0  0  0  0  0  0  0  0  0  0  0  0
    2.5338   -7.6891   16.0102 C   0  0  0  0  0  0  0  0  0  0  0  0
    4.8690   -7.4380   26.4151 C   0  0  0  0  0  0  0  0  0  0  0  0
    2.3021   -5.6726   26.0378 C   0  0  0  0  0  0  0  0  0  0  0  0
    7.0880   -4.6163   27.0010 C   0  0  0  0  0  0  0  0  0  0  0  0
    8.3117   -4.3698   27.4436 C   0  0  0  0  0  0  0  0  0  0  0  0
    1.1339   -5.0515   26.3541 C   0  0  0  0  0  0  0  0  0  0  0  0
    4.8080   -8.0362   16.7101 C   0  0  0  0  0  0  0  0  0  0  0  0
   -1.2173   -3.9294   26.9717 O   0  0  0  0  0  0  0  0  0  0  0  0
   -1.0025   -5.0942   27.4586 C   0  0  0  0  0  0  0  0  0  0  0  0
    2.2474   -8.9123   16.6273 C   0  0  0  0  0  0  0  0  0  0  0  0
    4.4957   -9.2636   17.3041 C   0  0  0  0  0  0  0  0  0  0  0  0
   -1.8070   -5.6086   28.1920 O   0  0  0  0  0  0  0  0  0  0  0  0
   10.4296   -5.1799   28.3140 C   0  0  0  0  0  0  0  0  0  0  0  0
    6.6017   -5.9004   26.9187 C   0  0  0  0  0  0  0  0  0  0  0  0
    2.4761   -6.9940   26.4111 N   0  0  0  0  0  0  0  0  0  0  0  0
    9.1353   -5.4053   27.8239 C   0  0  0  0  0  0  0  0  0  0  0  0
    0.9922   -9.3232   16.5995 O   0  0  0  0  0  0  0  0  0  0  0  0
    1.5232   -7.6869   27.1182 C   0  0  0  0  0  0  0  0  0  0  0  0
    8.6878   -6.6715   27.7262 N   0  0  0  0  0  0  0  0  0  0  0  0
    6.9911   -8.2423   27.1808 C   0  0  0  0  0  0  0  0  0  0  0  0
    3.8436   -7.2758   16.0578 C   0  0  0  0  0  0  0  0  0  0  0  0
    3.1882   -9.7190   17.2566 C   0  0  0  0  0  0  0  0  0  0  0  0
    5.3488   -6.1737   26.5092 C   0  0  0  0  0  0  0  0  0  0  0  0
    7.4567   -6.9464   27.2858 C   0  0  0  0  0  0  0  0  0  0  0  0
    0.1921   -5.7592   27.1123 C   0  0  0  0  0  0  0  0  0  0  0  0
    3.5517   -7.7407   25.9711 C   0  0  0  0  0  0  0  0  0  0  0  0
  1  4  4  0
  1 22  4  0
  2 20  4  0
  2 27  4  0
  3 12  4  0
  3 23  4  0
  4 25  4  0
  4 28  1  0
  5  8  4  0
  5 17  4  0
  6  7  4  0
  6 16  4  0
  7 18  4  0
  8 27  4  0
  9 13  4  0
  9 23  4  0
 10 11  1  0
 11 14  2  0
 11 27  1  0
 12 19  1  0
 12 24  4  0
 13 24  4  0
 15 18  1  0
 16 25  4  0
 16 26  4  0
 17 20  4  0
 17 28  1  0
 18 21  4  0
 21 26  4  0
 22 26  4  0
M  END
$$$$

 Created by Python create_sdf_string function

 28 30  0  0  0  0  0  0  0  0999 V2000
    5.7174   -8.4529   26.7190 C   0  0  0  0  0  0  0  0  0  0  0  0
    0.3974   -7.0711   27.5149 C   0  0  0  0  0  0  0  0  0  0  0  0
    2.5338   -7.6891   16.0102 C   0  0  0  0  0  0  0  0  0  0  0  0
    4.8690   -7.4380   26.4151 C   0  0  0  0  0  0  0  0  0  0  0  0
    2.3021   -5.6726   26.0378 C   0  0  0  0  0  0  0  0  0  0  0  0
    7.0880   -4.6163   27.0010 C   0  0  0  0  0  0  0  0  0  0  0  0
    8.3117   -4.3698   27.4436 C   0  0  0  0  0  0  0  0  0  0  0  0
    1.1339   -5.0515   26.3541 C   0  0  0  0  0  0  0  0  0  0  0  0
    4.8080   -8.0362   16.7101 C   0  0  0  0  0  0  0  0  0  0  0  0
   -1.2173   -3.9294   26.9717 O   0  0  0  0  0  0  0  0  0  0  0  0
   -1.0025   -5.0942   27.4586 C   0  0  0  0  0  0  0  0  0  0  0  0
    2.2474   -8.9123   16.6273 C   0  0  0  0  0  0  0  0  0  0  0  0
    4.4957   -9.2636   17.3041 C   0  0  0  0  0  0  0  0  0  0  0  0
   -1.8070   -5.6086   28.1920 O   0  0  0  0  0  0  0  0  0  0  0  0
   10.4296   -5.1799   28.3140 C   0  0  0  0  0  0  0  0  0  0  0  0
    6.6017   -5.9004   26.9187 C   0  0  0  0  0  0  0  0  0  0  0  0
    2.4761   -6.9940   26.4111 N   0  0  0  0  0  0  0  0  0  0  0  0
    9.1353   -5.4053   27.8239 C   0  0  0  0  0  0  0  0  0  0  0  0
    0.9922   -9.3232   16.5995 O   0  0  0  0  0  0  0  0  0  0  0  0
    1.5232   -7.6869   27.1182 C   0  0  0  0  0  0  0  0  0  0  0  0
    8.6878   -6.6715   27.7262 N   0  0  0  0  0  0  0  0  0  0  0  0
    6.9911   -8.2423   27.1808 C   0  0  0  0  0  0  0  0  0  0  0  0
    3.8436   -7.2758   16.0578 C   0  0  0  0  0  0  0  0  0  0  0  0
    3.1882   -9.7190   17.2566 C   0  0  0  0  0  0  0  0  0  0  0  0
    5.3488   -6.1737   26.5092 C   0  0  0  0  0  0  0  0  0  0  0  0
    7.4567   -6.9464   27.2858 C   0  0  0  0  0  0  0  0  0  0  0  0
    0.1921   -5.7592   27.1123 C   0  0  0  0  0  0  0  0  0  0  0  0
    3.5517   -7.7407   25.9711 C   0  0  0  0  0  0  0  0  0  0  0  0
  1  4  4  0
  1 22  4  0
  2 20  4  0
  2 27  4  0
  3 12  4  0
  3 23  4  0
  4 25  4  0
  4 28  1  0
  5  8  4  0
  5 17  4  0
  6  7  4  0
  6 16  4  0
  7 18  4  0
  8 27  4  0
  9 13  4  0
  9 23  4  0
 10 11  1  0
 11 14  2  0
 11 27  1  0
 12 19  1  0
 12 24  4  0
 13 24  4  0
 15 18  1  0
 16 25  4  0
 16 26  4  0
 17 20  4  0
 17 28  1  0
 18 21  4  0
 21 26  4  0
 22 26  4  0
M  END
$$$$

 Created by Python create_sdf_string function

 28 30  0  0  0  0  0  0  0  0999 V2000
    5.7174   -8.4529   26.7190 C   0  0  0  0  0  0  0  0  0  0  0  0
    0.3974   -7.0711   27.5149 C   0  0  0  0  0  0  0  0  0  0  0  0
    2.5338   -7.6891   16.0102 C   0  0  0  0  0  0  0  0  0  0  0  0
    4.8690   -7.4380   26.4151 C   0  0  0  0  0  0  0  0  0  0  0  0
    2.3021   -5.6726   26.0378 C   0  0  0  0  0  0  0  0  0  0  0  0
    7.0880   -4.6163   27.0010 C   0  0  0  0  0  0  0  0  0  0  0  0
    8.3117   -4.3698   27.4436 C   0  0  0  0  0  0  0  0  0  0  0  0
    1.1339   -5.0515   26.3541 C   0  0  0  0  0  0  0  0  0  0  0  0
    4.8080   -8.0362   16.7101 C   0  0  0  0  0  0  0  0  0  0  0  0
   -1.2173   -3.9294   26.9717 O   0  0  0  0  0  0  0  0  0  0  0  0
   -1.0025   -5.0942   27.4586 C   0  0  0  0  0  0  0  0  0  0  0  0
    2.2474   -8.9123   16.6273 C   0  0  0  0  0  0  0  0  0  0  0  0
    4.4957   -9.2636   17.3041 C   0  0  0  0  0  0  0  0  0  0  0  0
   -1.8070   -5.6086   28.1920 O   0  0  0  0  0  0  0  0  0  0  0  0
   10.4296   -5.1799   28.3140 C   0  0  0  0  0  0  0  0  0  0  0  0
    6.6017   -5.9004   26.9187 C   0  0  0  0  0  0  0  0  0  0  0  0
    2.4761   -6.9940   26.4111 N   0  0  0  0  0  0  0  0  0  0  0  0
    9.1353   -5.4053   27.8239 C   0  0  0  0  0  0  0  0  0  0  0  0
    0.9922   -9.3232   16.5995 O   0  0  0  0  0  0  0  0  0  0  0  0
    1.5232   -7.6869   27.1182 C   0  0  0  0  0  0  0  0  0  0  0  0
    8.6878   -6.6715   27.7262 N   0  0  0  0  0  0  0  0  0  0  0  0
    6.9911   -8.2423   27.1808 C   0  0  0  0  0  0  0  0  0  0  0  0
    3.8436   -7.2758   16.0578 C   0  0  0  0  0  0  0  0  0  0  0  0
    3.1882   -9.7190   17.2566 C   0  0  0  0  0  0  0  0  0  0  0  0
    5.3488   -6.1737   26.5092 C   0  0  0  0  0  0  0  0  0  0  0  0
    7.4567   -6.9464   27.2858 C   0  0  0  0  0  0  0  0  0  0  0  0
    0.1921   -5.7592   27.1123 C   0  0  0  0  0  0  0  0  0  0  0  0
    3.5517   -7.7407   25.9711 C   0  0  0  0  0  0  0  0  0  0  0  0
  1  4  4  0
  1 22  4  0
  2 20  4  0
  2 27  4  0
  3 12  4  0
  3 23  4  0
  4 25  4  0
  4 28  1  0
  5  8  4  0
  5 17  4  0
  6  7  4  0
  6 16  4  0
  7 18  4  0
  8 27  4  0
  9 13  4  0
  9 23  4  0
 10 11  1  0
 11 14  2  0
 11 27  1  0
 12 19  1  0
 12 24  4  0
 13 24  4  0
 15 18  1  0
 16 25  4  0
 16 26  4  0
 17 20  4  0
 17 28  1  0
 18 21  4  0
 21 26  4  0
 22 26  4  0
M  END
$$$$

 Created by Python create_sdf_string function

 28 30  0  0  0  0  0  0  0  0999 V2000
    5.7174   -8.4529   26.7190 C   0  0  0  0  0  0  0  0  0  0  0  0
    0.3974   -7.0711   27.5149 C   0  0  0  0  0  0  0  0  0  0  0  0
    2.5338   -7.6891   16.0102 C   0  0  0  0  0  0  0  0  0  0  0  0
    4.8690   -7.4380   26.4151 C   0  0  0  0  0  0  0  0  0  0  0  0
    2.3021   -5.6726   26.0378 C   0  0  0  0  0  0  0  0  0  0  0  0
    7.0880   -4.6163   27.0010 C   0  0  0  0  0  0  0  0  0  0  0  0
    8.3117   -4.3698   27.4436 C   0  0  0  0  0  0  0  0  0  0  0  0
    1.1339   -5.0515   26.3541 C   0  0  0  0  0  0  0  0  0  0  0  0
    4.8080   -8.0362   16.7101 C   0  0  0  0  0  0  0  0  0  0  0  0
   -1.2173   -3.9294   26.9717 O   0  0  0  0  0  0  0  0  0  0  0  0
   -1.0025   -5.0942   27.4586 C   0  0  0  0  0  0  0  0  0  0  0  0
    2.2474   -8.9123   16.6273 C   0  0  0  0  0  0  0  0  0  0  0  0
    4.4957   -9.2636   17.3041 C   0  0  0  0  0  0  0  0  0  0  0  0
   -1.8070   -5.6086   28.1920 O   0  0  0  0  0  0  0  0  0  0  0  0
   10.4296   -5.1799   28.3140 C   0  0  0  0  0  0  0  0  0  0  0  0
    6.6017   -5.9004   26.9187 C   0  0  0  0  0  0  0  0  0  0  0  0
    2.4761   -6.9940   26.4111 N   0  0  0  0  0  0  0  0  0  0  0  0
    9.1353   -5.4053   27.8239 C   0  0  0  0  0  0  0  0  0  0  0  0
    0.9922   -9.3232   16.5995 O   0  0  0  0  0  0  0  0  0  0  0  0
    1.5232   -7.6869   27.1182 C   0  0  0  0  0  0  0  0  0  0  0  0
    8.6878   -6.6715   27.7262 N   0  0  0  0  0  0  0  0  0  0  0  0
    6.9911   -8.2423   27.1808 C   0  0  0  0  0  0  0  0  0  0  0  0
    3.8436   -7.2758   16.0578 C   0  0  0  0  0  0  0  0  0  0  0  0
    3.1882   -9.7190   17.2566 C   0  0  0  0  0  0  0  0  0  0  0  0
    5.3488   -6.1737   26.5092 C   0  0  0  0  0  0  0  0  0  0  0  0
    7.4567   -6.9464   27.2858 C   0  0  0  0  0  0  0  0  0  0  0  0
    0.1921   -5.7592   27.1123 C   0  0  0  0  0  0  0  0  0  0  0  0
    3.5517   -7.7407   25.9711 C   0  0  0  0  0  0  0  0  0  0  0  0
  1  4  4  0
  1 22  4  0
  2 20  4  0
  2 27  4  0
  3 12  4  0
  3 23  4  0
  4 25  4  0
  4 28  1  0
  5  8  4  0
  5 17  4  0
  6  7  4  0
  6 16  4  0
  7 18  4  0
  8 27  4  0
  9 13  4  0
  9 23  4  0
 10 11  1  0
 11 14  2  0
 11 27  1  0
 12 19  1  0
 12 24  4  0
 13 24  4  0
 15 18  1  0
 16 25  4  0
 16 26  4  0
 17 20  4  0
 17 28  1  0
 18 21  4  0
 21 26  4  0
 22 26  4  0
M  END
$$$$

 Created by Python create_sdf_string function

 28 30  0  0  0  0  0  0  0  0999 V2000
    5.7174   -8.4529   26.7190 C   0  0  0  0  0  0  0  0  0  0  0  0
    0.3974   -7.0711   27.5149 C   0  0  0  0  0  0  0  0  0  0  0  0
    2.5338   -7.6891   16.0102 C   0  0  0  0  0  0  0  0  0  0  0  0
    4.8690   -7.4380   26.4151 C   0  0  0  0  0  0  0  0  0  0  0  0
    2.3021   -5.6726   26.0378 C   0  0  0  0  0  0  0  0  0  0  0  0
    7.0880   -4.6163   27.0010 C   0  0  0  0  0  0  0  0  0  0  0  0
    8.3117   -4.3698   27.4436 C   0  0  0  0  0  0  0  0  0  0  0  0
    1.1339   -5.0515   26.3541 C   0  0  0  0  0  0  0  0  0  0  0  0
    4.8080   -8.0362   16.7101 C   0  0  0  0  0  0  0  0  0  0  0  0
   -1.2173   -3.9294   26.9717 O   0  0  0  0  0  0  0  0  0  0  0  0
   -1.0025   -5.0942   27.4586 C   0  0  0  0  0  0  0  0  0  0  0  0
    2.2474   -8.9123   16.6273 C   0  0  0  0  0  0  0  0  0  0  0  0
    4.4957   -9.2636   17.3041 C   0  0  0  0  0  0  0  0  0  0  0  0
   -1.8070   -5.6086   28.1920 O   0  0  0  0  0  0  0  0  0  0  0  0
   10.4296   -5.1799   28.3140 C   0  0  0  0  0  0  0  0  0  0  0  0
    6.6017   -5.9004   26.9187 C   0  0  0  0  0  0  0  0  0  0  0  0
    2.4761   -6.9940   26.4111 N   0  0  0  0  0  0  0  0  0  0  0  0
    9.1353   -5.4053   27.8239 C   0  0  0  0  0  0  0  0  0  0  0  0
    0.9922   -9.3232   16.5995 O   0  0  0  0  0  0  0  0  0  0  0  0
    1.5232   -7.6869   27.1182 C   0  0  0  0  0  0  0  0  0  0  0  0
    8.6878   -6.6715   27.7262 N   0  0  0  0  0  0  0  0  0  0  0  0
    6.9911   -8.2423   27.1808 C   0  0  0  0  0  0  0  0  0  0  0  0
    3.8436   -7.2758   16.0578 C   0  0  0  0  0  0  0  0  0  0  0  0
    3.1882   -9.7190   17.2566 C   0  0  0  0  0  0  0  0  0  0  0  0
    5.3488   -6.1737   26.5092 C   0  0  0  0  0  0  0  0  0  0  0  0
    7.4567   -6.9464   27.2858 C   0  0  0  0  0  0  0  0  0  0  0  0
    0.1921   -5.7592   27.1123 C   0  0  0  0  0  0  0  0  0  0  0  0
    3.5517   -7.7407   25.9711 C   0  0  0  0  0  0  0  0  0  0  0  0
  1  4  4  0
  1 22  4  0
  2 20  4  0
  2 27  4  0
  3 12  4  0
  3 23  4  0
  4 25  4  0
  4 28  1  0
  5  8  4  0
  5 17  4  0
  6  7  4  0
  6 16  4  0
  7 18  4  0
  8 27  4  0
  9 13  4  0
  9 23  4  0
 10 11  1  0
 11 14  2  0
 11 27  1  0
 12 19  1  0
 12 24  4  0
 13 24  4  0
 15 18  1  0
 16 25  4  0
 16 26  4  0
 17 20  4  0
 17 28  1  0
 18 21  4  0
 21 26  4  0
 22 26  4  0
M  END
$$$$

 Created by Python create_sdf_string function

 28 30  0  0  0  0  0  0  0  0999 V2000
    5.7174   -8.4529   26.7190 C   0  0  0  0  0  0  0  0  0  0  0  0
    0.3974   -7.0711   27.5149 C   0  0  0  0  0  0  0  0  0  0  0  0
    2.5338   -7.6891   16.0102 C   0  0  0  0  0  0  0  0  0  0  0  0
    4.8690   -7.4380   26.4151 C   0  0  0  0  0  0  0  0  0  0  0  0
    2.3021   -5.6726   26.0378 C   0  0  0  0  0  0  0  0  0  0  0  0
    7.0880   -4.6163   27.0010 C   0  0  0  0  0  0  0  0  0  0  0  0
    8.3117   -4.3698   27.4436 C   0  0  0  0  0  0  0  0  0  0  0  0
    1.1339   -5.0515   26.3541 C   0  0  0  0  0  0  0  0  0  0  0  0
    4.8080   -8.0362   16.7101 C   0  0  0  0  0  0  0  0  0  0  0  0
   -1.2173   -3.9294   26.9717 O   0  0  0  0  0  0  0  0  0  0  0  0
   -1.0025   -5.0942   27.4586 C   0  0  0  0  0  0  0  0  0  0  0  0
    2.2474   -8.9123   16.6273 C   0  0  0  0  0  0  0  0  0  0  0  0
    4.4957   -9.2636   17.3041 C   0  0  0  0  0  0  0  0  0  0  0  0
   -1.8070   -5.6086   28.1920 O   0  0  0  0  0  0  0  0  0  0  0  0
   10.4296   -5.1799   28.3140 C   0  0  0  0  0  0  0  0  0  0  0  0
    6.6017   -5.9004   26.9187 C   0  0  0  0  0  0  0  0  0  0  0  0
    2.4761   -6.9940   26.4111 N   0  0  0  0  0  0  0  0  0  0  0  0
    9.1353   -5.4053   27.8239 C   0  0  0  0  0  0  0  0  0  0  0  0
    0.9922   -9.3232   16.5995 O   0  0  0  0  0  0  0  0  0  0  0  0
    1.5232   -7.6869   27.1182 C   0  0  0  0  0  0  0  0  0  0  0  0
    8.6878   -6.6715   27.7262 N   0  0  0  0  0  0  0  0  0  0  0  0
    6.9911   -8.2423   27.1808 C   0  0  0  0  0  0  0  0  0  0  0  0
    3.8436   -7.2758   16.0578 C   0  0  0  0  0  0  0  0  0  0  0  0
    3.1882   -9.7190   17.2566 C   0  0  0  0  0  0  0  0  0  0  0  0
    5.3488   -6.1737   26.5092 C   0  0  0  0  0  0  0  0  0  0  0  0
    7.4567   -6.9464   27.2858 C   0  0  0  0  0  0  0  0  0  0  0  0
    0.1921   -5.7592   27.1123 C   0  0  0  0  0  0  0  0  0  0  0  0
    3.5517   -7.7407   25.9711 C   0  0  0  0  0  0  0  0  0  0  0  0
  1  4  4  0
  1 22  4  0
  2 20  4  0
  2 27  4  0
  3 12  4  0
  3 23  4  0
  4 25  4  0
  4 28  1  0
  5  8  4  0
  5 17  4  0
  6  7  4  0
  6 16  4  0
  7 18  4  0
  8 27  4  0
  9 13  4  0
  9 23  4  0
 10 11  1  0
 11 14  2  0
 11 27  1  0
 12 19  1  0
 12 24  4  0
 13 24  4  0
 15 18  1  0
 16 25  4  0
 16 26  4  0
 17 20  4  0
 17 28  1  0
 18 21  4  0
 21 26  4  0
 22 26  4  0
M  END
$$$$

 Created by Python create_sdf_string function

 28 30  0  0  0  0  0  0  0  0999 V2000
    5.7174   -8.4529   26.7190 C   0  0  0  0  0  0  0  0  0  0  0  0
    0.3974   -7.0711   27.5149 C   0  0  0  0  0  0  0  0  0  0  0  0
    2.5338   -7.6891   16.0102 C   0  0  0  0  0  0  0  0  0  0  0  0
    4.8690   -7.4380   26.4151 C   0  0  0  0  0  0  0  0  0  0  0  0
    2.3021   -5.6726   26.0378 C   0  0  0  0  0  0  0  0  0  0  0  0
    7.0880   -4.6163   27.0010 C   0  0  0  0  0  0  0  0  0  0  0  0
    8.3117   -4.3698   27.4436 C   0  0  0  0  0  0  0  0  0  0  0  0
    1.1339   -5.0515   26.3541 C   0  0  0  0  0  0  0  0  0  0  0  0
    4.8080   -8.0362   16.7101 C   0  0  0  0  0  0  0  0  0  0  0  0
   -1.2173   -3.9294   26.9717 O   0  0  0  0  0  0  0  0  0  0  0  0
   -1.0025   -5.0942   27.4586 C   0  0  0  0  0  0  0  0  0  0  0  0
    2.2474   -8.9123   16.6273 C   0  0  0  0  0  0  0  0  0  0  0  0
    4.4957   -9.2636   17.3041 C   0  0  0  0  0  0  0  0  0  0  0  0
   -1.8070   -5.6086   28.1920 O   0  0  0  0  0  0  0  0  0  0  0  0
   10.4296   -5.1799   28.3140 C   0  0  0  0  0  0  0  0  0  0  0  0
    6.6017   -5.9004   26.9187 C   0  0  0  0  0  0  0  0  0  0  0  0
    2.4761   -6.9940   26.4111 N   0  0  0  0  0  0  0  0  0  0  0  0
    9.1353   -5.4053   27.8239 C   0  0  0  0  0  0  0  0  0  0  0  0
    0.9922   -9.3232   16.5995 O   0  0  0  0  0  0  0  0  0  0  0  0
    1.5232   -7.6869   27.1182 C   0  0  0  0  0  0  0  0  0  0  0  0
    8.6878   -6.6715   27.7262 N   0  0  0  0  0  0  0  0  0  0  0  0
    6.9911   -8.2423   27.1808 C   0  0  0  0  0  0  0  0  0  0  0  0
    3.8436   -7.2758   16.0578 C   0  0  0  0  0  0  0  0  0  0  0  0
    3.1882   -9.7190   17.2566 C   0  0  0  0  0  0  0  0  0  0  0  0
    5.3488   -6.1737   26.5092 C   0  0  0  0  0  0  0  0  0  0  0  0
    7.4567   -6.9464   27.2858 C   0  0  0  0  0  0  0  0  0  0  0  0
    0.1921   -5.7592   27.1123 C   0  0  0  0  0  0  0  0  0  0  0  0
    3.5517   -7.7407   25.9711 C   0  0  0  0  0  0  0  0  0  0  0  0
  1  4  4  0
  1 22  4  0
  2 20  4  0
  2 27  4  0
  3 12  4  0
  3 23  4  0
  4 25  4  0
  4 28  1  0
  5  8  4  0
  5 17  4  0
  6  7  4  0
  6 16  4  0
  7 18  4  0
  8 27  4  0
  9 13  4  0
  9 23  4  0
 10 11  1  0
 11 14  2  0
 11 27  1  0
 12 19  1  0
 12 24  4  0
 13 24  4  0
 15 18  1  0
 16 25  4  0
 16 26  4  0
 17 20  4  0
 17 28  1  0
 18 21  4  0
 21 26  4  0
 22 26  4  0
M  END
$$$$

 Created by Python create_sdf_string function

 28 30  0  0  0  0  0  0  0  0999 V2000
    5.7174   -8.4529   26.7190 C   0  0  0  0  0  0  0  0  0  0  0  0
    0.3974   -7.0711   27.5149 C   0  0  0  0  0  0  0  0  0  0  0  0
    2.5338   -7.6891   16.0102 C   0  0  0  0  0  0  0  0  0  0  0  0
    4.8690   -7.4380   26.4151 C   0  0  0  0  0  0  0  0  0  0  0  0
    2.3021   -5.6726   26.0378 C   0  0  0  0  0  0  0  0  0  0  0  0
    7.0880   -4.6163   27.0010 C   0  0  0  0  0  0  0  0  0  0  0  0
    8.3117   -4.3698   27.4436 C   0  0  0  0  0  0  0  0  0  0  0  0
    1.1339   -5.0515   26.3541 C   0  0  0  0  0  0  0  0  0  0  0  0
    4.8080   -8.0362   16.7101 C   0  0  0  0  0  0  0  0  0  0  0  0
   -1.2173   -3.9294   26.9717 O   0  0  0  0  0  0  0  0  0  0  0  0
   -1.0025   -5.0942   27.4586 C   0  0  0  0  0  0  0  0  0  0  0  0
    2.2474   -8.9123   16.6273 C   0  0  0  0  0  0  0  0  0  0  0  0
    4.4957   -9.2636   17.3041 C   0  0  0  0  0  0  0  0  0  0  0  0
   -1.8070   -5.6086   28.1920 O   0  0  0  0  0  0  0  0  0  0  0  0
   10.4296   -5.1799   28.3140 C   0  0  0  0  0  0  0  0  0  0  0  0
    6.6017   -5.9004   26.9187 C   0  0  0  0  0  0  0  0  0  0  0  0
    2.4761   -6.9940   26.4111 N   0  0  0  0  0  0  0  0  0  0  0  0
    9.1353   -5.4053   27.8239 C   0  0  0  0  0  0  0  0  0  0  0  0
    0.9922   -9.3232   16.5995 O   0  0  0  0  0  0  0  0  0  0  0  0
    1.5232   -7.6869   27.1182 C   0  0  0  0  0  0  0  0  0  0  0  0
    8.6878   -6.6715   27.7262 N   0  0  0  0  0  0  0  0  0  0  0  0
    6.9911   -8.2423   27.1808 C   0  0  0  0  0  0  0  0  0  0  0  0
    3.8436   -7.2758   16.0578 C   0  0  0  0  0  0  0  0  0  0  0  0
    3.1882   -9.7190   17.2566 C   0  0  0  0  0  0  0  0  0  0  0  0
    5.3488   -6.1737   26.5092 C   0  0  0  0  0  0  0  0  0  0  0  0
    7.4567   -6.9464   27.2858 C   0  0  0  0  0  0  0  0  0  0  0  0
    0.1921   -5.7592   27.1123 C   0  0  0  0  0  0  0  0  0  0  0  0
    3.5517   -7.7407   25.9711 C   0  0  0  0  0  0  0  0  0  0  0  0
  1  4  4  0
  1 22  4  0
  2 20  4  0
  2 27  4  0
  3 12  4  0
  3 23  4  0
  4 25  4  0
  4 28  1  0
  5  8  4  0
  5 17  4  0
  6  7  4  0
  6 16  4  0
  7 18  4  0
  8 27  4  0
  9 13  4  0
  9 23  4  0
 10 11  1  0
 11 14  2  0
 11 27  1  0
 12 19  1  0
 12 24  4  0
 13 24  4  0
 15 18  1  0
 16 25  4  0
 16 26  4  0
 17 20  4  0
 17 28  1  0
 18 21  4  0
 21 26  4  0
 22 26  4  0
M  END
$$$$

 Created by Python create_sdf_string function

 28 30  0  0  0  0  0  0  0  0999 V2000
    5.7174   -8.4529   26.7190 C   0  0  0  0  0  0  0  0  0  0  0  0
    0.3974   -7.0711   27.5149 C   0  0  0  0  0  0  0  0  0  0  0  0
    2.5338   -7.6891   16.0102 C   0  0  0  0  0  0  0  0  0  0  0  0
    4.8690   -7.4380   26.4151 C   0  0  0  0  0  0  0  0  0  0  0  0
    2.3021   -5.6726   26.0378 C   0  0  0  0  0  0  0  0  0  0  0  0
    7.0880   -4.6163   27.0010 C   0  0  0  0  0  0  0  0  0  0  0  0
    8.3117   -4.3698   27.4436 C   0  0  0  0  0  0  0  0  0  0  0  0
    1.1339   -5.0515   26.3541 C   0  0  0  0  0  0  0  0  0  0  0  0
    4.8080   -8.0362   16.7101 C   0  0  0  0  0  0  0  0  0  0  0  0
   -1.2173   -3.9294   26.9717 O   0  0  0  0  0  0  0  0  0  0  0  0
   -1.0025   -5.0942   27.4586 C   0  0  0  0  0  0  0  0  0  0  0  0
    2.2474   -8.9123   16.6273 C   0  0  0  0  0  0  0  0  0  0  0  0
    4.4957   -9.2636   17.3041 C   0  0  0  0  0  0  0  0  0  0  0  0
   -1.8070   -5.6086   28.1920 O   0  0  0  0  0  0  0  0  0  0  0  0
   10.4296   -5.1799   28.3140 C   0  0  0  0  0  0  0  0  0  0  0  0
    6.6017   -5.9004   26.9187 C   0  0  0  0  0  0  0  0  0  0  0  0
    2.4761   -6.9940   26.4111 N   0  0  0  0  0  0  0  0  0  0  0  0
    9.1353   -5.4053   27.8239 C   0  0  0  0  0  0  0  0  0  0  0  0
    0.9922   -9.3232   16.5995 O   0  0  0  0  0  0  0  0  0  0  0  0
    1.5232   -7.6869   27.1182 C   0  0  0  0  0  0  0  0  0  0  0  0
    8.6878   -6.6715   27.7262 N   0  0  0  0  0  0  0  0  0  0  0  0
    6.9911   -8.2423   27.1808 C   0  0  0  0  0  0  0  0  0  0  0  0
    3.8436   -7.2758   16.0578 C   0  0  0  0  0  0  0  0  0  0  0  0
    3.1882   -9.7190   17.2566 C   0  0  0  0  0  0  0  0  0  0  0  0
    5.3488   -6.1737   26.5092 C   0  0  0  0  0  0  0  0  0  0  0  0
    7.4567   -6.9464   27.2858 C   0  0  0  0  0  0  0  0  0  0  0  0
    0.1921   -5.7592   27.1123 C   0  0  0  0  0  0  0  0  0  0  0  0
    3.5517   -7.7407   25.9711 C   0  0  0  0  0  0  0  0  0  0  0  0
  1  4  4  0
  1 22  4  0
  2 20  4  0
  2 27  4  0
  3 12  4  0
  3 23  4  0
  4 25  4  0
  4 28  1  0
  5  8  4  0
  5 17  4  0
  6  7  4  0
  6 16  4  0
  7 18  4  0
  8 27  4  0
  9 13  4  0
  9 23  4  0
 10 11  1  0
 11 14  2  0
 11 27  1  0
 12 19  1  0
 12 24  4  0
 13 24  4  0
 15 18  1  0
 16 25  4  0
 16 26  4  0
 17 20  4  0
 17 28  1  0
 18 21  4  0
 21 26  4  0
 22 26  4  0
M  END
$$$$

 Created by Python create_sdf_string function

 28 30  0  0  0  0  0  0  0  0999 V2000
    5.7174   -8.4529   26.7190 C   0  0  0  0  0  0  0  0  0  0  0  0
    0.3974   -7.0711   27.5149 C   0  0  0  0  0  0  0  0  0  0  0  0
    2.5338   -7.6891   16.0102 C   0  0  0  0  0  0  0  0  0  0  0  0
    4.8690   -7.4380   26.4151 C   0  0  0  0  0  0  0  0  0  0  0  0
    2.3021   -5.6726   26.0378 C   0  0  0  0  0  0  0  0  0  0  0  0
    7.0880   -4.6163   27.0010 C   0  0  0  0  0  0  0  0  0  0  0  0
    8.3117   -4.3698   27.4436 C   0  0  0  0  0  0  0  0  0  0  0  0
    1.1339   -5.0515   26.3541 C   0  0  0  0  0  0  0  0  0  0  0  0
    4.8080   -8.0362   16.7101 C   0  0  0  0  0  0  0  0  0  0  0  0
   -1.2173   -3.9294   26.9717 O   0  0  0  0  0  0  0  0  0  0  0  0
   -1.0025   -5.0942   27.4586 C   0  0  0  0  0  0  0  0  0  0  0  0
    2.2474   -8.9123   16.6273 C   0  0  0  0  0  0  0  0  0  0  0  0
    4.4957   -9.2636   17.3041 C   0  0  0  0  0  0  0  0  0  0  0  0
   -1.8070   -5.6086   28.1920 O   0  0  0  0  0  0  0  0  0  0  0  0
   10.4296   -5.1799   28.3140 C   0  0  0  0  0  0  0  0  0  0  0  0
    6.6017   -5.9004   26.9187 C   0  0  0  0  0  0  0  0  0  0  0  0
    2.4761   -6.9940   26.4111 N   0  0  0  0  0  0  0  0  0  0  0  0
    9.1353   -5.4053   27.8239 C   0  0  0  0  0  0  0  0  0  0  0  0
    0.9922   -9.3232   16.5995 O   0  0  0  0  0  0  0  0  0  0  0  0
    1.5232   -7.6869   27.1182 C   0  0  0  0  0  0  0  0  0  0  0  0
    8.6878   -6.6715   27.7262 N   0  0  0  0  0  0  0  0  0  0  0  0
    6.9911   -8.2423   27.1808 C   0  0  0  0  0  0  0  0  0  0  0  0
    3.8436   -7.2758   16.0578 C   0  0  0  0  0  0  0  0  0  0  0  0
    3.1882   -9.7190   17.2566 C   0  0  0  0  0  0  0  0  0  0  0  0
    5.3488   -6.1737   26.5092 C   0  0  0  0  0  0  0  0  0  0  0  0
    7.4567   -6.9464   27.2858 C   0  0  0  0  0  0  0  0  0  0  0  0
    0.1921   -5.7592   27.1123 C   0  0  0  0  0  0  0  0  0  0  0  0
    3.5517   -7.7407   25.9711 C   0  0  0  0  0  0  0  0  0  0  0  0
  1  4  4  0
  1 22  4  0
  2 20  4  0
  2 27  4  0
  3 12  4  0
  3 23  4  0
  4 25  4  0
  4 28  1  0
  5  8  4  0
  5 17  4  0
  6  7  4  0
  6 16  4  0
  7 18  4  0
  8 27  4  0
  9 13  4  0
  9 23  4  0
 10 11  1  0
 11 14  2  0
 11 27  1  0
 12 19  1  0
 12 24  4  0
 13 24  4  0
 15 18  1  0
 16 25  4  0
 16 26  4  0
 17 20  4  0
 17 28  1  0
 18 21  4  0
 21 26  4  0
 22 26  4  0
M  END
$$$$

 Created by Python create_sdf_string function

 28 30  0  0  0  0  0  0  0  0999 V2000
    5.7174   -8.4529   26.7190 C   0  0  0  0  0  0  0  0  0  0  0  0
    0.3974   -7.0711   27.5149 C   0  0  0  0  0  0  0  0  0  0  0  0
    2.5338   -7.6891   16.0102 C   0  0  0  0  0  0  0  0  0  0  0  0
    4.8690   -7.4380   26.4151 C   0  0  0  0  0  0  0  0  0  0  0  0
    2.3021   -5.6726   26.0378 C   0  0  0  0  0  0  0  0  0  0  0  0
    7.0880   -4.6163   27.0010 C   0  0  0  0  0  0  0  0  0  0  0  0
    8.3117   -4.3698   27.4436 C   0  0  0  0  0  0  0  0  0  0  0  0
    1.1339   -5.0515   26.3541 C   0  0  0  0  0  0  0  0  0  0  0  0
    4.8080   -8.0362   16.7101 C   0  0  0  0  0  0  0  0  0  0  0  0
   -1.2173   -3.9294   26.9717 O   0  0  0  0  0  0  0  0  0  0  0  0
   -1.0025   -5.0942   27.4586 C   0  0  0  0  0  0  0  0  0  0  0  0
    2.2474   -8.9123   16.6273 C   0  0  0  0  0  0  0  0  0  0  0  0
    4.4957   -9.2636   17.3041 C   0  0  0  0  0  0  0  0  0  0  0  0
   -1.8070   -5.6086   28.1920 O   0  0  0  0  0  0  0  0  0  0  0  0
   10.4296   -5.1799   28.3140 C   0  0  0  0  0  0  0  0  0  0  0  0
    6.6017   -5.9004   26.9187 C   0  0  0  0  0  0  0  0  0  0  0  0
    2.4761   -6.9940   26.4111 N   0  0  0  0  0  0  0  0  0  0  0  0
    9.1353   -5.4053   27.8239 C   0  0  0  0  0  0  0  0  0  0  0  0
    0.9922   -9.3232   16.5995 O   0  0  0  0  0  0  0  0  0  0  0  0
    1.5232   -7.6869   27.1182 C   0  0  0  0  0  0  0  0  0  0  0  0
    8.6878   -6.6715   27.7262 N   0  0  0  0  0  0  0  0  0  0  0  0
    6.9911   -8.2423   27.1808 C   0  0  0  0  0  0  0  0  0  0  0  0
    3.8436   -7.2758   16.0578 C   0  0  0  0  0  0  0  0  0  0  0  0
    3.1882   -9.7190   17.2566 C   0  0  0  0  0  0  0  0  0  0  0  0
    5.3488   -6.1737   26.5092 C   0  0  0  0  0  0  0  0  0  0  0  0
    7.4567   -6.9464   27.2858 C   0  0  0  0  0  0  0  0  0  0  0  0
    0.1921   -5.7592   27.1123 C   0  0  0  0  0  0  0  0  0  0  0  0
    3.5517   -7.7407   25.9711 C   0  0  0  0  0  0  0  0  0  0  0  0
  1  4  4  0
  1 22  4  0
  2 20  4  0
  2 27  4  0
  3 12  4  0
  3 23  4  0
  4 25  4  0
  4 28  1  0
  5  8  4  0
  5 17  4  0
  6  7  4  0
  6 16  4  0
  7 18  4  0
  8 27  4  0
  9 13  4  0
  9 23  4  0
 10 11  1  0
 11 14  2  0
 11 27  1  0
 12 19  1  0
 12 24  4  0
 13 24  4  0
 15 18  1  0
 16 25  4  0
 16 26  4  0
 17 20  4  0
 17 28  1  0
 18 21  4  0
 21 26  4  0
 22 26  4  0
M  END
$$$$

 Created by Python create_sdf_string function

 28 30  0  0  0  0  0  0  0  0999 V2000
    5.7174   -8.4529   26.7190 C   0  0  0  0  0  0  0  0  0  0  0  0
    0.3974   -7.0711   27.5149 C   0  0  0  0  0  0  0  0  0  0  0  0
    2.5338   -7.6891   16.0102 C   0  0  0  0  0  0  0  0  0  0  0  0
    4.8690   -7.4380   26.4151 C   0  0  0  0  0  0  0  0  0  0  0  0
    2.3021   -5.6726   26.0378 C   0  0  0  0  0  0  0  0  0  0  0  0
    7.0880   -4.6163   27.0010 C   0  0  0  0  0  0  0  0  0  0  0  0
    8.3117   -4.3698   27.4436 C   0  0  0  0  0  0  0  0  0  0  0  0
    1.1339   -5.0515   26.3541 C   0  0  0  0  0  0  0  0  0  0  0  0
    4.8080   -8.0362   16.7101 C   0  0  0  0  0  0  0  0  0  0  0  0
   -1.2173   -3.9294   26.9717 O   0  0  0  0  0  0  0  0  0  0  0  0
   -1.0025   -5.0942   27.4586 C   0  0  0  0  0  0  0  0  0  0  0  0
    2.2474   -8.9123   16.6273 C   0  0  0  0  0  0  0  0  0  0  0  0
    4.4957   -9.2636   17.3041 C   0  0  0  0  0  0  0  0  0  0  0  0
   -1.8070   -5.6086   28.1920 O   0  0  0  0  0  0  0  0  0  0  0  0
   10.4296   -5.1799   28.3140 C   0  0  0  0  0  0  0  0  0  0  0  0
    6.6017   -5.9004   26.9187 C   0  0  0  0  0  0  0  0  0  0  0  0
    2.4761   -6.9940   26.4111 N   0  0  0  0  0  0  0  0  0  0  0  0
    9.1353   -5.4053   27.8239 C   0  0  0  0  0  0  0  0  0  0  0  0
    0.9922   -9.3232   16.5995 O   0  0  0  0  0  0  0  0  0  0  0  0
    1.5232   -7.6869   27.1182 C   0  0  0  0  0  0  0  0  0  0  0  0
    8.6878   -6.6715   27.7262 N   0  0  0  0  0  0  0  0  0  0  0  0
    6.9911   -8.2423   27.1808 C   0  0  0  0  0  0  0  0  0  0  0  0
    3.8436   -7.2758   16.0578 C   0  0  0  0  0  0  0  0  0  0  0  0
    3.1882   -9.7190   17.2566 C   0  0  0  0  0  0  0  0  0  0  0  0
    5.3488   -6.1737   26.5092 C   0  0  0  0  0  0  0  0  0  0  0  0
    7.4567   -6.9464   27.2858 C   0  0  0  0  0  0  0  0  0  0  0  0
    0.1921   -5.7592   27.1123 C   0  0  0  0  0  0  0  0  0  0  0  0
    3.5517   -7.7407   25.9711 C   0  0  0  0  0  0  0  0  0  0  0  0
  1  4  4  0
  1 22  4  0
  2 20  4  0
  2 27  4  0
  3 12  4  0
  3 23  4  0
  4 25  4  0
  4 28  1  0
  5  8  4  0
  5 17  4  0
  6  7  4  0
  6 16  4  0
  7 18  4  0
  8 27  4  0
  9 13  4  0
  9 23  4  0
 10 11  1  0
 11 14  2  0
 11 27  1  0
 12 19  1  0
 12 24  4  0
 13 24  4  0
 15 18  1  0
 16 25  4  0
 16 26  4  0
 17 20  4  0
 17 28  1  0
 18 21  4  0
 21 26  4  0
 22 26  4  0
M  END
$$$$

 Created by Python create_sdf_string function

 28 30  0  0  0  0  0  0  0  0999 V2000
    5.7174   -8.4529   26.7190 C   0  0  0  0  0  0  0  0  0  0  0  0
    0.3974   -7.0711   27.5149 C   0  0  0  0  0  0  0  0  0  0  0  0
    2.5338   -7.6891   16.0102 C   0  0  0  0  0  0  0  0  0  0  0  0
    4.8690   -7.4380   26.4151 C   0  0  0  0  0  0  0  0  0  0  0  0
    2.3021   -5.6726   26.0378 C   0  0  0  0  0  0  0  0  0  0  0  0
    7.0880   -4.6163   27.0010 C   0  0  0  0  0  0  0  0  0  0  0  0
    8.3117   -4.3698   27.4436 C   0  0  0  0  0  0  0  0  0  0  0  0
    1.1339   -5.0515   26.3541 C   0  0  0  0  0  0  0  0  0  0  0  0
    4.8080   -8.0362   16.7101 C   0  0  0  0  0  0  0  0  0  0  0  0
   -1.2173   -3.9294   26.9717 O   0  0  0  0  0  0  0  0  0  0  0  0
   -1.0025   -5.0942   27.4586 C   0  0  0  0  0  0  0  0  0  0  0  0
    2.2474   -8.9123   16.6273 C   0  0  0  0  0  0  0  0  0  0  0  0
    4.4957   -9.2636   17.3041 C   0  0  0  0  0  0  0  0  0  0  0  0
   -1.8070   -5.6086   28.1920 O   0  0  0  0  0  0  0  0  0  0  0  0
   10.4296   -5.1799   28.3140 C   0  0  0  0  0  0  0  0  0  0  0  0
    6.6017   -5.9004   26.9187 C   0  0  0  0  0  0  0  0  0  0  0  0
    2.4761   -6.9940   26.4111 N   0  0  0  0  0  0  0  0  0  0  0  0
    9.1353   -5.4053   27.8239 C   0  0  0  0  0  0  0  0  0  0  0  0
    0.9922   -9.3232   16.5995 O   0  0  0  0  0  0  0  0  0  0  0  0
    1.5232   -7.6869   27.1182 C   0  0  0  0  0  0  0  0  0  0  0  0
    8.6878   -6.6715   27.7262 N   0  0  0  0  0  0  0  0  0  0  0  0
    6.9911   -8.2423   27.1808 C   0  0  0  0  0  0  0  0  0  0  0  0
    3.8436   -7.2758   16.0578 C   0  0  0  0  0  0  0  0  0  0  0  0
    3.1882   -9.7190   17.2566 C   0  0  0  0  0  0  0  0  0  0  0  0
    5.3488   -6.1737   26.5092 C   0  0  0  0  0  0  0  0  0  0  0  0
    7.4567   -6.9464   27.2858 C   0  0  0  0  0  0  0  0  0  0  0  0
    0.1921   -5.7592   27.1123 C   0  0  0  0  0  0  0  0  0  0  0  0
    3.5517   -7.7407   25.9711 C   0  0  0  0  0  0  0  0  0  0  0  0
  1  4  4  0
  1 22  4  0
  2 20  4  0
  2 27  4  0
  3 12  4  0
  3 23  4  0
  4 25  4  0
  4 28  1  0
  5  8  4  0
  5 17  4  0
  6  7  4  0
  6 16  4  0
  7 18  4  0
  8 27  4  0
  9 13  4  0
  9 23  4  0
 10 11  1  0
 11 14  2  0
 11 27  1  0
 12 19  1  0
 12 24  4  0
 13 24  4  0
 15 18  1  0
 16 25  4  0
 16 26  4  0
 17 20  4  0
 17 28  1  0
 18 21  4  0
 21 26  4  0
 22 26  4  0
M  END
$$$$

 Created by Python create_sdf_string function

 28 30  0  0  0  0  0  0  0  0999 V2000
    5.7174   -8.4529   26.7190 C   0  0  0  0  0  0  0  0  0  0  0  0
    0.3974   -7.0711   27.5149 C   0  0  0  0  0  0  0  0  0  0  0  0
    2.5338   -7.6891   16.0102 C   0  0  0  0  0  0  0  0  0  0  0  0
    4.8690   -7.4380   26.4151 C   0  0  0  0  0  0  0  0  0  0  0  0
    2.3021   -5.6726   26.0378 C   0  0  0  0  0  0  0  0  0  0  0  0
    7.0880   -4.6163   27.0010 C   0  0  0  0  0  0  0  0  0  0  0  0
    8.3117   -4.3698   27.4436 C   0  0  0  0  0  0  0  0  0  0  0  0
    1.1339   -5.0515   26.3541 C   0  0  0  0  0  0  0  0  0  0  0  0
    4.8080   -8.0362   16.7101 C   0  0  0  0  0  0  0  0  0  0  0  0
   -1.2173   -3.9294   26.9717 O   0  0  0  0  0  0  0  0  0  0  0  0
   -1.0025   -5.0942   27.4586 C   0  0  0  0  0  0  0  0  0  0  0  0
    2.2474   -8.9123   16.6273 C   0  0  0  0  0  0  0  0  0  0  0  0
    4.4957   -9.2636   17.3041 C   0  0  0  0  0  0  0  0  0  0  0  0
   -1.8070   -5.6086   28.1920 O   0  0  0  0  0  0  0  0  0  0  0  0
   10.4296   -5.1799   28.3140 C   0  0  0  0  0  0  0  0  0  0  0  0
    6.6017   -5.9004   26.9187 C   0  0  0  0  0  0  0  0  0  0  0  0
    2.4761   -6.9940   26.4111 N   0  0  0  0  0  0  0  0  0  0  0  0
    9.1353   -5.4053   27.8239 C   0  0  0  0  0  0  0  0  0  0  0  0
    0.9922   -9.3232   16.5995 O   0  0  0  0  0  0  0  0  0  0  0  0
    1.5232   -7.6869   27.1182 C   0  0  0  0  0  0  0  0  0  0  0  0
    8.6878   -6.6715   27.7262 N   0  0  0  0  0  0  0  0  0  0  0  0
    6.9911   -8.2423   27.1808 C   0  0  0  0  0  0  0  0  0  0  0  0
    3.8436   -7.2758   16.0578 C   0  0  0  0  0  0  0  0  0  0  0  0
    3.1882   -9.7190   17.2566 C   0  0  0  0  0  0  0  0  0  0  0  0
    5.3488   -6.1737   26.5092 C   0  0  0  0  0  0  0  0  0  0  0  0
    7.4567   -6.9464   27.2858 C   0  0  0  0  0  0  0  0  0  0  0  0
    0.1921   -5.7592   27.1123 C   0  0  0  0  0  0  0  0  0  0  0  0
    3.5517   -7.7407   25.9711 C   0  0  0  0  0  0  0  0  0  0  0  0
  1  4  4  0
  1 22  4  0
  2 20  4  0
  2 27  4  0
  3 12  4  0
  3 23  4  0
  4 25  4  0
  4 28  1  0
  5  8  4  0
  5 17  4  0
  6  7  4  0
  6 16  4  0
  7 18  4  0
  8 27  4  0
  9 13  4  0
  9 23  4  0
 10 11  1  0
 11 14  2  0
 11 27  1  0
 12 19  1  0
 12 24  4  0
 13 24  4  0
 15 18  1  0
 16 25  4  0
 16 26  4  0
 17 20  4  0
 17 28  1  0
 18 21  4  0
 21 26  4  0
 22 26  4  0
M  END
$$$$

 Created by Python create_sdf_string function

 28 30  0  0  0  0  0  0  0  0999 V2000
    5.7174   -8.4529   26.7190 C   0  0  0  0  0  0  0  0  0  0  0  0
    0.3974   -7.0711   27.5149 C   0  0  0  0  0  0  0  0  0  0  0  0
    2.5338   -7.6891   16.0102 C   0  0  0  0  0  0  0  0  0  0  0  0
    4.8690   -7.4380   26.4151 C   0  0  0  0  0  0  0  0  0  0  0  0
    2.3021   -5.6726   26.0378 C   0  0  0  0  0  0  0  0  0  0  0  0
    7.0880   -4.6163   27.0010 C   0  0  0  0  0  0  0  0  0  0  0  0
    8.3117   -4.3698   27.4436 C   0  0  0  0  0  0  0  0  0  0  0  0
    1.1339   -5.0515   26.3541 C   0  0  0  0  0  0  0  0  0  0  0  0
    4.8080   -8.0362   16.7101 C   0  0  0  0  0  0  0  0  0  0  0  0
   -1.2173   -3.9294   26.9717 O   0  0  0  0  0  0  0  0  0  0  0  0
   -1.0025   -5.0942   27.4586 C   0  0  0  0  0  0  0  0  0  0  0  0
    2.2474   -8.9123   16.6273 C   0  0  0  0  0  0  0  0  0  0  0  0
    4.4957   -9.2636   17.3041 C   0  0  0  0  0  0  0  0  0  0  0  0
   -1.8070   -5.6086   28.1920 O   0  0  0  0  0  0  0  0  0  0  0  0
   10.4296   -5.1799   28.3140 C   0  0  0  0  0  0  0  0  0  0  0  0
    6.6017   -5.9004   26.9187 C   0  0  0  0  0  0  0  0  0  0  0  0
    2.4761   -6.9940   26.4111 N   0  0  0  0  0  0  0  0  0  0  0  0
    9.1353   -5.4053   27.8239 C   0  0  0  0  0  0  0  0  0  0  0  0
    0.9922   -9.3232   16.5995 O   0  0  0  0  0  0  0  0  0  0  0  0
    1.5232   -7.6869   27.1182 C   0  0  0  0  0  0  0  0  0  0  0  0
    8.6878   -6.6715   27.7262 N   0  0  0  0  0  0  0  0  0  0  0  0
    6.9911   -8.2423   27.1808 C   0  0  0  0  0  0  0  0  0  0  0  0
    3.8436   -7.2758   16.0578 C   0  0  0  0  0  0  0  0  0  0  0  0
    3.1882   -9.7190   17.2566 C   0  0  0  0  0  0  0  0  0  0  0  0
    5.3488   -6.1737   26.5092 C   0  0  0  0  0  0  0  0  0  0  0  0
    7.4567   -6.9464   27.2858 C   0  0  0  0  0  0  0  0  0  0  0  0
    0.1921   -5.7592   27.1123 C   0  0  0  0  0  0  0  0  0  0  0  0
    3.5517   -7.7407   25.9711 C   0  0  0  0  0  0  0  0  0  0  0  0
  1  4  4  0
  1 22  4  0
  2 20  4  0
  2 27  4  0
  3 12  4  0
  3 23  4  0
  4 25  4  0
  4 28  1  0
  5  8  4  0
  5 17  4  0
  6  7  4  0
  6 16  4  0
  7 18  4  0
  8 27  4  0
  9 13  4  0
  9 23  4  0
 10 11  1  0
 11 14  2  0
 11 27  1  0
 12 19  1  0
 12 24  4  0
 13 24  4  0
 15 18  1  0
 16 25  4  0
 16 26  4  0
 17 20  4  0
 17 28  1  0
 18 21  4  0
 21 26  4  0
 22 26  4  0
M  END
$$$$

 Created by Python create_sdf_string function

 28 30  0  0  0  0  0  0  0  0999 V2000
    5.7174   -8.4529   26.7190 C   0  0  0  0  0  0  0  0  0  0  0  0
    0.3974   -7.0711   27.5149 C   0  0  0  0  0  0  0  0  0  0  0  0
    2.5338   -7.6891   16.0102 C   0  0  0  0  0  0  0  0  0  0  0  0
    4.8690   -7.4380   26.4151 C   0  0  0  0  0  0  0  0  0  0  0  0
    2.3021   -5.6726   26.0378 C   0  0  0  0  0  0  0  0  0  0  0  0
    7.0880   -4.6163   27.0010 C   0  0  0  0  0  0  0  0  0  0  0  0
    8.3117   -4.3698   27.4436 C   0  0  0  0  0  0  0  0  0  0  0  0
    1.1339   -5.0515   26.3541 C   0  0  0  0  0  0  0  0  0  0  0  0
    4.8080   -8.0362   16.7101 C   0  0  0  0  0  0  0  0  0  0  0  0
   -1.2173   -3.9294   26.9717 O   0  0  0  0  0  0  0  0  0  0  0  0
   -1.0025   -5.0942   27.4586 C   0  0  0  0  0  0  0  0  0  0  0  0
    2.2474   -8.9123   16.6273 C   0  0  0  0  0  0  0  0  0  0  0  0
    4.4957   -9.2636   17.3041 C   0  0  0  0  0  0  0  0  0  0  0  0
   -1.8070   -5.6086   28.1920 O   0  0  0  0  0  0  0  0  0  0  0  0
   10.4296   -5.1799   28.3140 C   0  0  0  0  0  0  0  0  0  0  0  0
    6.6017   -5.9004   26.9187 C   0  0  0  0  0  0  0  0  0  0  0  0
    2.4761   -6.9940   26.4111 N   0  0  0  0  0  0  0  0  0  0  0  0
    9.1353   -5.4053   27.8239 C   0  0  0  0  0  0  0  0  0  0  0  0
    0.9922   -9.3232   16.5995 O   0  0  0  0  0  0  0  0  0  0  0  0
    1.5232   -7.6869   27.1182 C   0  0  0  0  0  0  0  0  0  0  0  0
    8.6878   -6.6715   27.7262 N   0  0  0  0  0  0  0  0  0  0  0  0
    6.9911   -8.2423   27.1808 C   0  0  0  0  0  0  0  0  0  0  0  0
    3.8436   -7.2758   16.0578 C   0  0  0  0  0  0  0  0  0  0  0  0
    3.1882   -9.7190   17.2566 C   0  0  0  0  0  0  0  0  0  0  0  0
    5.3488   -6.1737   26.5092 C   0  0  0  0  0  0  0  0  0  0  0  0
    7.4567   -6.9464   27.2858 C   0  0  0  0  0  0  0  0  0  0  0  0
    0.1921   -5.7592   27.1123 C   0  0  0  0  0  0  0  0  0  0  0  0
    3.5517   -7.7407   25.9711 C   0  0  0  0  0  0  0  0  0  0  0  0
  1  4  4  0
  1 22  4  0
  2 20  4  0
  2 27  4  0
  3 12  4  0
  3 23  4  0
  4 25  4  0
  4 28  1  0
  5  8  4  0
  5 17  4  0
  6  7  4  0
  6 16  4  0
  7 18  4  0
  8 27  4  0
  9 13  4  0
  9 23  4  0
 10 11  1  0
 11 14  2  0
 11 27  1  0
 12 19  1  0
 12 24  4  0
 13 24  4  0
 15 18  1  0
 16 25  4  0
 16 26  4  0
 17 20  4  0
 17 28  1  0
 18 21  4  0
 21 26  4  0
 22 26  4  0
M  END
$$$$

 Created by Python create_sdf_string function

 28 30  0  0  0  0  0  0  0  0999 V2000
    5.7174   -8.4529   26.7190 C   0  0  0  0  0  0  0  0  0  0  0  0
    0.3974   -7.0711   27.5149 C   0  0  0  0  0  0  0  0  0  0  0  0
    2.5338   -7.6891   16.0102 C   0  0  0  0  0  0  0  0  0  0  0  0
    4.8690   -7.4380   26.4151 C   0  0  0  0  0  0  0  0  0  0  0  0
    2.3021   -5.6726   26.0378 C   0  0  0  0  0  0  0  0  0  0  0  0
    7.0880   -4.6163   27.0010 C   0  0  0  0  0  0  0  0  0  0  0  0
    8.3117   -4.3698   27.4436 C   0  0  0  0  0  0  0  0  0  0  0  0
    1.1339   -5.0515   26.3541 C   0  0  0  0  0  0  0  0  0  0  0  0
    4.8080   -8.0362   16.7101 C   0  0  0  0  0  0  0  0  0  0  0  0
   -1.2173   -3.9294   26.9717 O   0  0  0  0  0  0  0  0  0  0  0  0
   -1.0025   -5.0942   27.4586 C   0  0  0  0  0  0  0  0  0  0  0  0
    2.2474   -8.9123   16.6273 C   0  0  0  0  0  0  0  0  0  0  0  0
    4.4957   -9.2636   17.3041 C   0  0  0  0  0  0  0  0  0  0  0  0
   -1.8070   -5.6086   28.1920 O   0  0  0  0  0  0  0  0  0  0  0  0
   10.4296   -5.1799   28.3140 C   0  0  0  0  0  0  0  0  0  0  0  0
    6.6017   -5.9004   26.9187 C   0  0  0  0  0  0  0  0  0  0  0  0
    2.4761   -6.9940   26.4111 N   0  0  0  0  0  0  0  0  0  0  0  0
    9.1353   -5.4053   27.8239 C   0  0  0  0  0  0  0  0  0  0  0  0
    0.9922   -9.3232   16.5995 O   0  0  0  0  0  0  0  0  0  0  0  0
    1.5232   -7.6869   27.1182 C   0  0  0  0  0  0  0  0  0  0  0  0
    8.6878   -6.6715   27.7262 N   0  0  0  0  0  0  0  0  0  0  0  0
    6.9911   -8.2423   27.1808 C   0  0  0  0  0  0  0  0  0  0  0  0
    3.8436   -7.2758   16.0578 C   0  0  0  0  0  0  0  0  0  0  0  0
    3.1882   -9.7190   17.2566 C   0  0  0  0  0  0  0  0  0  0  0  0
    5.3488   -6.1737   26.5092 C   0  0  0  0  0  0  0  0  0  0  0  0
    7.4567   -6.9464   27.2858 C   0  0  0  0  0  0  0  0  0  0  0  0
    0.1921   -5.7592   27.1123 C   0  0  0  0  0  0  0  0  0  0  0  0
    3.5517   -7.7407   25.9711 C   0  0  0  0  0  0  0  0  0  0  0  0
  1  4  4  0
  1 22  4  0
  2 20  4  0
  2 27  4  0
  3 12  4  0
  3 23  4  0
  4 25  4  0
  4 28  1  0
  5  8  4  0
  5 17  4  0
  6  7  4  0
  6 16  4  0
  7 18  4  0
  8 27  4  0
  9 13  4  0
  9 23  4  0
 10 11  1  0
 11 14  2  0
 11 27  1  0
 12 19  1  0
 12 24  4  0
 13 24  4  0
 15 18  1  0
 16 25  4  0
 16 26  4  0
 17 20  4  0
 17 28  1  0
 18 21  4  0
 21 26  4  0
 22 26  4  0
M  END
$$$$

 Created by Python create_sdf_string function

 28 30  0  0  0  0  0  0  0  0999 V2000
    5.7174   -8.4529   26.7190 C   0  0  0  0  0  0  0  0  0  0  0  0
    0.3974   -7.0711   27.5149 C   0  0  0  0  0  0  0  0  0  0  0  0
    2.5338   -7.6891   16.0102 C   0  0  0  0  0  0  0  0  0  0  0  0
    4.8690   -7.4380   26.4151 C   0  0  0  0  0  0  0  0  0  0  0  0
    2.3021   -5.6726   26.0378 C   0  0  0  0  0  0  0  0  0  0  0  0
    7.0880   -4.6163   27.0010 C   0  0  0  0  0  0  0  0  0  0  0  0
    8.3117   -4.3698   27.4436 C   0  0  0  0  0  0  0  0  0  0  0  0
    1.1339   -5.0515   26.3541 C   0  0  0  0  0  0  0  0  0  0  0  0
    4.8080   -8.0362   16.7101 C   0  0  0  0  0  0  0  0  0  0  0  0
   -1.2173   -3.9294   26.9717 O   0  0  0  0  0  0  0  0  0  0  0  0
   -1.0025   -5.0942   27.4586 C   0  0  0  0  0  0  0  0  0  0  0  0
    2.2474   -8.9123   16.6273 C   0  0  0  0  0  0  0  0  0  0  0  0
    4.4957   -9.2636   17.3041 C   0  0  0  0  0  0  0  0  0  0  0  0
   -1.8070   -5.6086   28.1920 O   0  0  0  0  0  0  0  0  0  0  0  0
   10.4296   -5.1799   28.3140 C   0  0  0  0  0  0  0  0  0  0  0  0
    6.6017   -5.9004   26.9187 C   0  0  0  0  0  0  0  0  0  0  0  0
    2.4761   -6.9940   26.4111 N   0  0  0  0  0  0  0  0  0  0  0  0
    9.1353   -5.4053   27.8239 C   0  0  0  0  0  0  0  0  0  0  0  0
    0.9922   -9.3232   16.5995 O   0  0  0  0  0  0  0  0  0  0  0  0
    1.5232   -7.6869   27.1182 C   0  0  0  0  0  0  0  0  0  0  0  0
    8.6878   -6.6715   27.7262 N   0  0  0  0  0  0  0  0  0  0  0  0
    6.9911   -8.2423   27.1808 C   0  0  0  0  0  0  0  0  0  0  0  0
    3.8436   -7.2758   16.0578 C   0  0  0  0  0  0  0  0  0  0  0  0
    3.1882   -9.7190   17.2566 C   0  0  0  0  0  0  0  0  0  0  0  0
    5.3488   -6.1737   26.5092 C   0  0  0  0  0  0  0  0  0  0  0  0
    7.4567   -6.9464   27.2858 C   0  0  0  0  0  0  0  0  0  0  0  0
    0.1921   -5.7592   27.1123 C   0  0  0  0  0  0  0  0  0  0  0  0
    3.5517   -7.7407   25.9711 C   0  0  0  0  0  0  0  0  0  0  0  0
  1  4  4  0
  1 22  4  0
  2 20  4  0
  2 27  4  0
  3 12  4  0
  3 23  4  0
  4 25  4  0
  4 28  1  0
  5  8  4  0
  5 17  4  0
  6  7  4  0
  6 16  4  0
  7 18  4  0
  8 27  4  0
  9 13  4  0
  9 23  4  0
 10 11  1  0
 11 14  2  0
 11 27  1  0
 12 19  1  0
 12 24  4  0
 13 24  4  0
 15 18  1  0
 16 25  4  0
 16 26  4  0
 17 20  4  0
 17 28  1  0
 18 21  4  0
 21 26  4  0
 22 26  4  0
M  END
$$$$

 Created by Python create_sdf_string function

 28 30  0  0  0  0  0  0  0  0999 V2000
    5.7174   -8.4529   26.7190 C   0  0  0  0  0  0  0  0  0  0  0  0
    0.3974   -7.0711   27.5149 C   0  0  0  0  0  0  0  0  0  0  0  0
    2.5338   -7.6891   16.0102 C   0  0  0  0  0  0  0  0  0  0  0  0
    4.8690   -7.4380   26.4151 C   0  0  0  0  0  0  0  0  0  0  0  0
    2.3021   -5.6726   26.0378 C   0  0  0  0  0  0  0  0  0  0  0  0
    7.0880   -4.6163   27.0010 C   0  0  0  0  0  0  0  0  0  0  0  0
    8.3117   -4.3698   27.4436 C   0  0  0  0  0  0  0  0  0  0  0  0
    1.1339   -5.0515   26.3541 C   0  0  0  0  0  0  0  0  0  0  0  0
    4.8080   -8.0362   16.7101 C   0  0  0  0  0  0  0  0  0  0  0  0
   -1.2173   -3.9294   26.9717 O   0  0  0  0  0  0  0  0  0  0  0  0
   -1.0025   -5.0942   27.4586 C   0  0  0  0  0  0  0  0  0  0  0  0
    2.2474   -8.9123   16.6273 C   0  0  0  0  0  0  0  0  0  0  0  0
    4.4957   -9.2636   17.3041 C   0  0  0  0  0  0  0  0  0  0  0  0
   -1.8070   -5.6086   28.1920 O   0  0  0  0  0  0  0  0  0  0  0  0
   10.4296   -5.1799   28.3140 C   0  0  0  0  0  0  0  0  0  0  0  0
    6.6017   -5.9004   26.9187 C   0  0  0  0  0  0  0  0  0  0  0  0
    2.4761   -6.9940   26.4111 N   0  0  0  0  0  0  0  0  0  0  0  0
    9.1353   -5.4053   27.8239 C   0  0  0  0  0  0  0  0  0  0  0  0
    0.9922   -9.3232   16.5995 O   0  0  0  0  0  0  0  0  0  0  0  0
    1.5232   -7.6869   27.1182 C   0  0  0  0  0  0  0  0  0  0  0  0
    8.6878   -6.6715   27.7262 N   0  0  0  0  0  0  0  0  0  0  0  0
    6.9911   -8.2423   27.1808 C   0  0  0  0  0  0  0  0  0  0  0  0
    3.8436   -7.2758   16.0578 C   0  0  0  0  0  0  0  0  0  0  0  0
    3.1882   -9.7190   17.2566 C   0  0  0  0  0  0  0  0  0  0  0  0
    5.3488   -6.1737   26.5092 C   0  0  0  0  0  0  0  0  0  0  0  0
    7.4567   -6.9464   27.2858 C   0  0  0  0  0  0  0  0  0  0  0  0
    0.1921   -5.7592   27.1123 C   0  0  0  0  0  0  0  0  0  0  0  0
    3.5517   -7.7407   25.9711 C   0  0  0  0  0  0  0  0  0  0  0  0
  1  4  4  0
  1 22  4  0
  2 20  4  0
  2 27  4  0
  3 12  4  0
  3 23  4  0
  4 25  4  0
  4 28  1  0
  5  8  4  0
  5 17  4  0
  6  7  4  0
  6 16  4  0
  7 18  4  0
  8 27  4  0
  9 13  4  0
  9 23  4  0
 10 11  1  0
 11 14  2  0
 11 27  1  0
 12 19  1  0
 12 24  4  0
 13 24  4  0
 15 18  1  0
 16 25  4  0
 16 26  4  0
 17 20  4  0
 17 28  1  0
 18 21  4  0
 21 26  4  0
 22 26  4  0
M  END
$$$$

 Created by Python create_sdf_string function

 28 30  0  0  0  0  0  0  0  0999 V2000
    5.7174   -8.4529   26.7190 C   0  0  0  0  0  0  0  0  0  0  0  0
    0.3974   -7.0711   27.5149 C   0  0  0  0  0  0  0  0  0  0  0  0
    2.5338   -7.6891   16.0102 C   0  0  0  0  0  0  0  0  0  0  0  0
    4.8690   -7.4380   26.4151 C   0  0  0  0  0  0  0  0  0  0  0  0
    2.3021   -5.6726   26.0378 C   0  0  0  0  0  0  0  0  0  0  0  0
    7.0880   -4.6163   27.0010 C   0  0  0  0  0  0  0  0  0  0  0  0
    8.3117   -4.3698   27.4436 C   0  0  0  0  0  0  0  0  0  0  0  0
    1.1339   -5.0515   26.3541 C   0  0  0  0  0  0  0  0  0  0  0  0
    4.8080   -8.0362   16.7101 C   0  0  0  0  0  0  0  0  0  0  0  0
   -1.2173   -3.9294   26.9717 O   0  0  0  0  0  0  0  0  0  0  0  0
   -1.0025   -5.0942   27.4586 C   0  0  0  0  0  0  0  0  0  0  0  0
    2.2474   -8.9123   16.6273 C   0  0  0  0  0  0  0  0  0  0  0  0
    4.4957   -9.2636   17.3041 C   0  0  0  0  0  0  0  0  0  0  0  0
   -1.8070   -5.6086   28.1920 O   0  0  0  0  0  0  0  0  0  0  0  0
   10.4296   -5.1799   28.3140 C   0  0  0  0  0  0  0  0  0  0  0  0
    6.6017   -5.9004   26.9187 C   0  0  0  0  0  0  0  0  0  0  0  0
    2.4761   -6.9940   26.4111 N   0  0  0  0  0  0  0  0  0  0  0  0
    9.1353   -5.4053   27.8239 C   0  0  0  0  0  0  0  0  0  0  0  0
    0.9922   -9.3232   16.5995 O   0  0  0  0  0  0  0  0  0  0  0  0
    1.5232   -7.6869   27.1182 C   0  0  0  0  0  0  0  0  0  0  0  0
    8.6878   -6.6715   27.7262 N   0  0  0  0  0  0  0  0  0  0  0  0
    6.9911   -8.2423   27.1808 C   0  0  0  0  0  0  0  0  0  0  0  0
    3.8436   -7.2758   16.0578 C   0  0  0  0  0  0  0  0  0  0  0  0
    3.1882   -9.7190   17.2566 C   0  0  0  0  0  0  0  0  0  0  0  0
    5.3488   -6.1737   26.5092 C   0  0  0  0  0  0  0  0  0  0  0  0
    7.4567   -6.9464   27.2858 C   0  0  0  0  0  0  0  0  0  0  0  0
    0.1921   -5.7592   27.1123 C   0  0  0  0  0  0  0  0  0  0  0  0
    3.5517   -7.7407   25.9711 C   0  0  0  0  0  0  0  0  0  0  0  0
  1  4  4  0
  1 22  4  0
  2 20  4  0
  2 27  4  0
  3 12  4  0
  3 23  4  0
  4 25  4  0
  4 28  1  0
  5  8  4  0
  5 17  4  0
  6  7  4  0
  6 16  4  0
  7 18  4  0
  8 27  4  0
  9 13  4  0
  9 23  4  0
 10 11  1  0
 11 14  2  0
 11 27  1  0
 12 19  1  0
 12 24  4  0
 13 24  4  0
 15 18  1  0
 16 25  4  0
 16 26  4  0
 17 20  4  0
 17 28  1  0
 18 21  4  0
 21 26  4  0
 22 26  4  0
M  END
$$$$

 Created by Python create_sdf_string function

 28 30  0  0  0  0  0  0  0  0999 V2000
    5.7174   -8.4529   26.7190 C   0  0  0  0  0  0  0  0  0  0  0  0
    0.3974   -7.0711   27.5149 C   0  0  0  0  0  0  0  0  0  0  0  0
    2.5338   -7.6891   16.0102 C   0  0  0  0  0  0  0  0  0  0  0  0
    4.8690   -7.4380   26.4151 C   0  0  0  0  0  0  0  0  0  0  0  0
    2.3021   -5.6726   26.0378 C   0  0  0  0  0  0  0  0  0  0  0  0
    7.0880   -4.6163   27.0010 C   0  0  0  0  0  0  0  0  0  0  0  0
    8.3117   -4.3698   27.4436 C   0  0  0  0  0  0  0  0  0  0  0  0
    1.1339   -5.0515   26.3541 C   0  0  0  0  0  0  0  0  0  0  0  0
    4.8080   -8.0362   16.7101 C   0  0  0  0  0  0  0  0  0  0  0  0
   -1.2173   -3.9294   26.9717 O   0  0  0  0  0  0  0  0  0  0  0  0
   -1.0025   -5.0942   27.4586 C   0  0  0  0  0  0  0  0  0  0  0  0
    2.2474   -8.9123   16.6273 C   0  0  0  0  0  0  0  0  0  0  0  0
    4.4957   -9.2636   17.3041 C   0  0  0  0  0  0  0  0  0  0  0  0
   -1.8070   -5.6086   28.1920 O   0  0  0  0  0  0  0  0  0  0  0  0
   10.4296   -5.1799   28.3140 C   0  0  0  0  0  0  0  0  0  0  0  0
    6.6017   -5.9004   26.9187 C   0  0  0  0  0  0  0  0  0  0  0  0
    2.4761   -6.9940   26.4111 N   0  0  0  0  0  0  0  0  0  0  0  0
    9.1353   -5.4053   27.8239 C   0  0  0  0  0  0  0  0  0  0  0  0
    0.9922   -9.3232   16.5995 O   0  0  0  0  0  0  0  0  0  0  0  0
    1.5232   -7.6869   27.1182 C   0  0  0  0  0  0  0  0  0  0  0  0
    8.6878   -6.6715   27.7262 N   0  0  0  0  0  0  0  0  0  0  0  0
    6.9911   -8.2423   27.1808 C   0  0  0  0  0  0  0  0  0  0  0  0
    3.8436   -7.2758   16.0578 C   0  0  0  0  0  0  0  0  0  0  0  0
    3.1882   -9.7190   17.2566 C   0  0  0  0  0  0  0  0  0  0  0  0
    5.3488   -6.1737   26.5092 C   0  0  0  0  0  0  0  0  0  0  0  0
    7.4567   -6.9464   27.2858 C   0  0  0  0  0  0  0  0  0  0  0  0
    0.1921   -5.7592   27.1123 C   0  0  0  0  0  0  0  0  0  0  0  0
    3.5517   -7.7407   25.9711 C   0  0  0  0  0  0  0  0  0  0  0  0
  1  4  4  0
  1 22  4  0
  2 20  4  0
  2 27  4  0
  3 12  4  0
  3 23  4  0
  4 25  4  0
  4 28  1  0
  5  8  4  0
  5 17  4  0
  6  7  4  0
  6 16  4  0
  7 18  4  0
  8 27  4  0
  9 13  4  0
  9 23  4  0
 10 11  1  0
 11 14  2  0
 11 27  1  0
 12 19  1  0
 12 24  4  0
 13 24  4  0
 15 18  1  0
 16 25  4  0
 16 26  4  0
 17 20  4  0
 17 28  1  0
 18 21  4  0
 21 26  4  0
 22 26  4  0
M  END
$$$$

 Created by Python create_sdf_string function

 28 30  0  0  0  0  0  0  0  0999 V2000
    5.7174   -8.4529   26.7190 C   0  0  0  0  0  0  0  0  0  0  0  0
    0.3974   -7.0711   27.5149 C   0  0  0  0  0  0  0  0  0  0  0  0
    2.5338   -7.6891   16.0102 C   0  0  0  0  0  0  0  0  0  0  0  0
    4.8690   -7.4380   26.4151 C   0  0  0  0  0  0  0  0  0  0  0  0
    2.3021   -5.6726   26.0378 C   0  0  0  0  0  0  0  0  0  0  0  0
    7.0880   -4.6163   27.0010 C   0  0  0  0  0  0  0  0  0  0  0  0
    8.3117   -4.3698   27.4436 C   0  0  0  0  0  0  0  0  0  0  0  0
    1.1339   -5.0515   26.3541 C   0  0  0  0  0  0  0  0  0  0  0  0
    4.8080   -8.0362   16.7101 C   0  0  0  0  0  0  0  0  0  0  0  0
   -1.2173   -3.9294   26.9717 O   0  0  0  0  0  0  0  0  0  0  0  0
   -1.0025   -5.0942   27.4586 C   0  0  0  0  0  0  0  0  0  0  0  0
    2.2474   -8.9123   16.6273 C   0  0  0  0  0  0  0  0  0  0  0  0
    4.4957   -9.2636   17.3041 C   0  0  0  0  0  0  0  0  0  0  0  0
   -1.8070   -5.6086   28.1920 O   0  0  0  0  0  0  0  0  0  0  0  0
   10.4296   -5.1799   28.3140 C   0  0  0  0  0  0  0  0  0  0  0  0
    6.6017   -5.9004   26.9187 C   0  0  0  0  0  0  0  0  0  0  0  0
    2.4761   -6.9940   26.4111 N   0  0  0  0  0  0  0  0  0  0  0  0
    9.1353   -5.4053   27.8239 C   0  0  0  0  0  0  0  0  0  0  0  0
    0.9922   -9.3232   16.5995 O   0  0  0  0  0  0  0  0  0  0  0  0
    1.5232   -7.6869   27.1182 C   0  0  0  0  0  0  0  0  0  0  0  0
    8.6878   -6.6715   27.7262 N   0  0  0  0  0  0  0  0  0  0  0  0
    6.9911   -8.2423   27.1808 C   0  0  0  0  0  0  0  0  0  0  0  0
    3.8436   -7.2758   16.0578 C   0  0  0  0  0  0  0  0  0  0  0  0
    3.1882   -9.7190   17.2566 C   0  0  0  0  0  0  0  0  0  0  0  0
    5.3488   -6.1737   26.5092 C   0  0  0  0  0  0  0  0  0  0  0  0
    7.4567   -6.9464   27.2858 C   0  0  0  0  0  0  0  0  0  0  0  0
    0.1921   -5.7592   27.1123 C   0  0  0  0  0  0  0  0  0  0  0  0
    3.5517   -7.7407   25.9711 C   0  0  0  0  0  0  0  0  0  0  0  0
  1  4  4  0
  1 22  4  0
  2 20  4  0
  2 27  4  0
  3 12  4  0
  3 23  4  0
  4 25  4  0
  4 28  1  0
  5  8  4  0
  5 17  4  0
  6  7  4  0
  6 16  4  0
  7 18  4  0
  8 27  4  0
  9 13  4  0
  9 23  4  0
 10 11  1  0
 11 14  2  0
 11 27  1  0
 12 19  1  0
 12 24  4  0
 13 24  4  0
 15 18  1  0
 16 25  4  0
 16 26  4  0
 17 20  4  0
 17 28  1  0
 18 21  4  0
 21 26  4  0
 22 26  4  0
M  END
$$$$

 Created by Python create_sdf_string function

 28 30  0  0  0  0  0  0  0  0999 V2000
    5.7174   -8.4529   26.7190 C   0  0  0  0  0  0  0  0  0  0  0  0
    0.3974   -7.0711   27.5149 C   0  0  0  0  0  0  0  0  0  0  0  0
    2.5338   -7.6891   16.0102 C   0  0  0  0  0  0  0  0  0  0  0  0
    4.8690   -7.4380   26.4151 C   0  0  0  0  0  0  0  0  0  0  0  0
    2.3021   -5.6726   26.0378 C   0  0  0  0  0  0  0  0  0  0  0  0
    7.0880   -4.6163   27.0010 C   0  0  0  0  0  0  0  0  0  0  0  0
    8.3117   -4.3698   27.4436 C   0  0  0  0  0  0  0  0  0  0  0  0
    1.1339   -5.0515   26.3541 C   0  0  0  0  0  0  0  0  0  0  0  0
    4.8080   -8.0362   16.7101 C   0  0  0  0  0  0  0  0  0  0  0  0
   -1.2173   -3.9294   26.9717 O   0  0  0  0  0  0  0  0  0  0  0  0
   -1.0025   -5.0942   27.4586 C   0  0  0  0  0  0  0  0  0  0  0  0
    2.2474   -8.9123   16.6273 C   0  0  0  0  0  0  0  0  0  0  0  0
    4.4957   -9.2636   17.3041 C   0  0  0  0  0  0  0  0  0  0  0  0
   -1.8070   -5.6086   28.1920 O   0  0  0  0  0  0  0  0  0  0  0  0
   10.4296   -5.1799   28.3140 C   0  0  0  0  0  0  0  0  0  0  0  0
    6.6017   -5.9004   26.9187 C   0  0  0  0  0  0  0  0  0  0  0  0
    2.4761   -6.9940   26.4111 N   0  0  0  0  0  0  0  0  0  0  0  0
    9.1353   -5.4053   27.8239 C   0  0  0  0  0  0  0  0  0  0  0  0
    0.9922   -9.3232   16.5995 O   0  0  0  0  0  0  0  0  0  0  0  0
    1.5232   -7.6869   27.1182 C   0  0  0  0  0  0  0  0  0  0  0  0
    8.6878   -6.6715   27.7262 N   0  0  0  0  0  0  0  0  0  0  0  0
    6.9911   -8.2423   27.1808 C   0  0  0  0  0  0  0  0  0  0  0  0
    3.8436   -7.2758   16.0578 C   0  0  0  0  0  0  0  0  0  0  0  0
    3.1882   -9.7190   17.2566 C   0  0  0  0  0  0  0  0  0  0  0  0
    5.3488   -6.1737   26.5092 C   0  0  0  0  0  0  0  0  0  0  0  0
    7.4567   -6.9464   27.2858 C   0  0  0  0  0  0  0  0  0  0  0  0
    0.1921   -5.7592   27.1123 C   0  0  0  0  0  0  0  0  0  0  0  0
    3.5517   -7.7407   25.9711 C   0  0  0  0  0  0  0  0  0  0  0  0
  1  4  4  0
  1 22  4  0
  2 20  4  0
  2 27  4  0
  3 12  4  0
  3 23  4  0
  4 25  4  0
  4 28  1  0
  5  8  4  0
  5 17  4  0
  6  7  4  0
  6 16  4  0
  7 18  4  0
  8 27  4  0
  9 13  4  0
  9 23  4  0
 10 11  1  0
 11 14  2  0
 11 27  1  0
 12 19  1  0
 12 24  4  0
 13 24  4  0
 15 18  1  0
 16 25  4  0
 16 26  4  0
 17 20  4  0
 17 28  1  0
 18 21  4  0
 21 26  4  0
 22 26  4  0
M  END
$$$$

 Created by Python create_sdf_string function

 28 30  0  0  0  0  0  0  0  0999 V2000
    5.7174   -8.4529   26.7190 C   0  0  0  0  0  0  0  0  0  0  0  0
    0.3974   -7.0711   27.5149 C   0  0  0  0  0  0  0  0  0  0  0  0
    2.5338   -7.6891   16.0102 C   0  0  0  0  0  0  0  0  0  0  0  0
    4.8690   -7.4380   26.4151 C   0  0  0  0  0  0  0  0  0  0  0  0
    2.3021   -5.6726   26.0378 C   0  0  0  0  0  0  0  0  0  0  0  0
    7.0880   -4.6163   27.0010 C   0  0  0  0  0  0  0  0  0  0  0  0
    8.3117   -4.3698   27.4436 C   0  0  0  0  0  0  0  0  0  0  0  0
    1.1339   -5.0515   26.3541 C   0  0  0  0  0  0  0  0  0  0  0  0
    4.8080   -8.0362   16.7101 C   0  0  0  0  0  0  0  0  0  0  0  0
   -1.2173   -3.9294   26.9717 O   0  0  0  0  0  0  0  0  0  0  0  0
   -1.0025   -5.0942   27.4586 C   0  0  0  0  0  0  0  0  0  0  0  0
    2.2474   -8.9123   16.6273 C   0  0  0  0  0  0  0  0  0  0  0  0
    4.4957   -9.2636   17.3041 C   0  0  0  0  0  0  0  0  0  0  0  0
   -1.8070   -5.6086   28.1920 O   0  0  0  0  0  0  0  0  0  0  0  0
   10.4296   -5.1799   28.3140 C   0  0  0  0  0  0  0  0  0  0  0  0
    6.6017   -5.9004   26.9187 C   0  0  0  0  0  0  0  0  0  0  0  0
    2.4761   -6.9940   26.4111 N   0  0  0  0  0  0  0  0  0  0  0  0
    9.1353   -5.4053   27.8239 C   0  0  0  0  0  0  0  0  0  0  0  0
    0.9922   -9.3232   16.5995 O   0  0  0  0  0  0  0  0  0  0  0  0
    1.5232   -7.6869   27.1182 C   0  0  0  0  0  0  0  0  0  0  0  0
    8.6878   -6.6715   27.7262 N   0  0  0  0  0  0  0  0  0  0  0  0
    6.9911   -8.2423   27.1808 C   0  0  0  0  0  0  0  0  0  0  0  0
    3.8436   -7.2758   16.0578 C   0  0  0  0  0  0  0  0  0  0  0  0
    3.1882   -9.7190   17.2566 C   0  0  0  0  0  0  0  0  0  0  0  0
    5.3488   -6.1737   26.5092 C   0  0  0  0  0  0  0  0  0  0  0  0
    7.4567   -6.9464   27.2858 C   0  0  0  0  0  0  0  0  0  0  0  0
    0.1921   -5.7592   27.1123 C   0  0  0  0  0  0  0  0  0  0  0  0
    3.5517   -7.7407   25.9711 C   0  0  0  0  0  0  0  0  0  0  0  0
  1  4  4  0
  1 22  4  0
  2 20  4  0
  2 27  4  0
  3 12  4  0
  3 23  4  0
  4 25  4  0
  4 28  1  0
  5  8  4  0
  5 17  4  0
  6  7  4  0
  6 16  4  0
  7 18  4  0
  8 27  4  0
  9 13  4  0
  9 23  4  0
 10 11  1  0
 11 14  2  0
 11 27  1  0
 12 19  1  0
 12 24  4  0
 13 24  4  0
 15 18  1  0
 16 25  4  0
 16 26  4  0
 17 20  4  0
 17 28  1  0
 18 21  4  0
 21 26  4  0
 22 26  4  0
M  END
$$$$

 Created by Python create_sdf_string function

 28 30  0  0  0  0  0  0  0  0999 V2000
    5.7174   -8.4529   26.7190 C   0  0  0  0  0  0  0  0  0  0  0  0
    0.3974   -7.0711   27.5149 C   0  0  0  0  0  0  0  0  0  0  0  0
    2.5338   -7.6891   16.0102 C   0  0  0  0  0  0  0  0  0  0  0  0
    4.8690   -7.4380   26.4151 C   0  0  0  0  0  0  0  0  0  0  0  0
    2.3021   -5.6726   26.0378 C   0  0  0  0  0  0  0  0  0  0  0  0
    7.0880   -4.6163   27.0010 C   0  0  0  0  0  0  0  0  0  0  0  0
    8.3117   -4.3698   27.4436 C   0  0  0  0  0  0  0  0  0  0  0  0
    1.1339   -5.0515   26.3541 C   0  0  0  0  0  0  0  0  0  0  0  0
    4.8080   -8.0362   16.7101 C   0  0  0  0  0  0  0  0  0  0  0  0
   -1.2173   -3.9294   26.9717 O   0  0  0  0  0  0  0  0  0  0  0  0
   -1.0025   -5.0942   27.4586 C   0  0  0  0  0  0  0  0  0  0  0  0
    2.2474   -8.9123   16.6273 C   0  0  0  0  0  0  0  0  0  0  0  0
    4.4957   -9.2636   17.3041 C   0  0  0  0  0  0  0  0  0  0  0  0
   -1.8070   -5.6086   28.1920 O   0  0  0  0  0  0  0  0  0  0  0  0
   10.4296   -5.1799   28.3140 C   0  0  0  0  0  0  0  0  0  0  0  0
    6.6017   -5.9004   26.9187 C   0  0  0  0  0  0  0  0  0  0  0  0
    2.4761   -6.9940   26.4111 N   0  0  0  0  0  0  0  0  0  0  0  0
    9.1353   -5.4053   27.8239 C   0  0  0  0  0  0  0  0  0  0  0  0
    0.9922   -9.3232   16.5995 O   0  0  0  0  0  0  0  0  0  0  0  0
    1.5232   -7.6869   27.1182 C   0  0  0  0  0  0  0  0  0  0  0  0
    8.6878   -6.6715   27.7262 N   0  0  0  0  0  0  0  0  0  0  0  0
    6.9911   -8.2423   27.1808 C   0  0  0  0  0  0  0  0  0  0  0  0
    3.8436   -7.2758   16.0578 C   0  0  0  0  0  0  0  0  0  0  0  0
    3.1882   -9.7190   17.2566 C   0  0  0  0  0  0  0  0  0  0  0  0
    5.3488   -6.1737   26.5092 C   0  0  0  0  0  0  0  0  0  0  0  0
    7.4567   -6.9464   27.2858 C   0  0  0  0  0  0  0  0  0  0  0  0
    0.1921   -5.7592   27.1123 C   0  0  0  0  0  0  0  0  0  0  0  0
    3.5517   -7.7407   25.9711 C   0  0  0  0  0  0  0  0  0  0  0  0
  1  4  4  0
  1 22  4  0
  2 20  4  0
  2 27  4  0
  3 12  4  0
  3 23  4  0
  4 25  4  0
  4 28  1  0
  5  8  4  0
  5 17  4  0
  6  7  4  0
  6 16  4  0
  7 18  4  0
  8 27  4  0
  9 13  4  0
  9 23  4  0
 10 11  1  0
 11 14  2  0
 11 27  1  0
 12 19  1  0
 12 24  4  0
 13 24  4  0
 15 18  1  0
 16 25  4  0
 16 26  4  0
 17 20  4  0
 17 28  1  0
 18 21  4  0
 21 26  4  0
 22 26  4  0
M  END
$$$$

 Created by Python create_sdf_string function

 28 30  0  0  0  0  0  0  0  0999 V2000
    5.7174   -8.4529   26.7190 C   0  0  0  0  0  0  0  0  0  0  0  0
    0.3974   -7.0711   27.5149 C   0  0  0  0  0  0  0  0  0  0  0  0
    2.5338   -7.6891   16.0102 C   0  0  0  0  0  0  0  0  0  0  0  0
    4.8690   -7.4380   26.4151 C   0  0  0  0  0  0  0  0  0  0  0  0
    2.3021   -5.6726   26.0378 C   0  0  0  0  0  0  0  0  0  0  0  0
    7.0880   -4.6163   27.0010 C   0  0  0  0  0  0  0  0  0  0  0  0
    8.3117   -4.3698   27.4436 C   0  0  0  0  0  0  0  0  0  0  0  0
    1.1339   -5.0515   26.3541 C   0  0  0  0  0  0  0  0  0  0  0  0
    4.8080   -8.0362   16.7101 C   0  0  0  0  0  0  0  0  0  0  0  0
   -1.2173   -3.9294   26.9717 O   0  0  0  0  0  0  0  0  0  0  0  0
   -1.0025   -5.0942   27.4586 C   0  0  0  0  0  0  0  0  0  0  0  0
    2.2474   -8.9123   16.6273 C   0  0  0  0  0  0  0  0  0  0  0  0
    4.4957   -9.2636   17.3041 C   0  0  0  0  0  0  0  0  0  0  0  0
   -1.8070   -5.6086   28.1920 O   0  0  0  0  0  0  0  0  0  0  0  0
   10.4296   -5.1799   28.3140 C   0  0  0  0  0  0  0  0  0  0  0  0
    6.6017   -5.9004   26.9187 C   0  0  0  0  0  0  0  0  0  0  0  0
    2.4761   -6.9940   26.4111 N   0  0  0  0  0  0  0  0  0  0  0  0
    9.1353   -5.4053   27.8239 C   0  0  0  0  0  0  0  0  0  0  0  0
    0.9922   -9.3232   16.5995 O   0  0  0  0  0  0  0  0  0  0  0  0
    1.5232   -7.6869   27.1182 C   0  0  0  0  0  0  0  0  0  0  0  0
    8.6878   -6.6715   27.7262 N   0  0  0  0  0  0  0  0  0  0  0  0
    6.9911   -8.2423   27.1808 C   0  0  0  0  0  0  0  0  0  0  0  0
    3.8436   -7.2758   16.0578 C   0  0  0  0  0  0  0  0  0  0  0  0
    3.1882   -9.7190   17.2566 C   0  0  0  0  0  0  0  0  0  0  0  0
    5.3488   -6.1737   26.5092 C   0  0  0  0  0  0  0  0  0  0  0  0
    7.4567   -6.9464   27.2858 C   0  0  0  0  0  0  0  0  0  0  0  0
    0.1921   -5.7592   27.1123 C   0  0  0  0  0  0  0  0  0  0  0  0
    3.5517   -7.7407   25.9711 C   0  0  0  0  0  0  0  0  0  0  0  0
  1  4  4  0
  1 22  4  0
  2 20  4  0
  2 27  4  0
  3 12  4  0
  3 23  4  0
  4 25  4  0
  4 28  1  0
  5  8  4  0
  5 17  4  0
  6  7  4  0
  6 16  4  0
  7 18  4  0
  8 27  4  0
  9 13  4  0
  9 23  4  0
 10 11  1  0
 11 14  2  0
 11 27  1  0
 12 19  1  0
 12 24  4  0
 13 24  4  0
 15 18  1  0
 16 25  4  0
 16 26  4  0
 17 20  4  0
 17 28  1  0
 18 21  4  0
 21 26  4  0
 22 26  4  0
M  END
$$$$

 Created by Python create_sdf_string function

 28 30  0  0  0  0  0  0  0  0999 V2000
    5.7174   -8.4529   26.7190 C   0  0  0  0  0  0  0  0  0  0  0  0
    0.3974   -7.0711   27.5149 C   0  0  0  0  0  0  0  0  0  0  0  0
    2.5338   -7.6891   16.0102 C   0  0  0  0  0  0  0  0  0  0  0  0
    4.8690   -7.4380   26.4151 C   0  0  0  0  0  0  0  0  0  0  0  0
    2.3021   -5.6726   26.0378 C   0  0  0  0  0  0  0  0  0  0  0  0
    7.0880   -4.6163   27.0010 C   0  0  0  0  0  0  0  0  0  0  0  0
    8.3117   -4.3698   27.4436 C   0  0  0  0  0  0  0  0  0  0  0  0
    1.1339   -5.0515   26.3541 C   0  0  0  0  0  0  0  0  0  0  0  0
    4.8080   -8.0362   16.7101 C   0  0  0  0  0  0  0  0  0  0  0  0
   -1.2173   -3.9294   26.9717 O   0  0  0  0  0  0  0  0  0  0  0  0
   -1.0025   -5.0942   27.4586 C   0  0  0  0  0  0  0  0  0  0  0  0
    2.2474   -8.9123   16.6273 C   0  0  0  0  0  0  0  0  0  0  0  0
    4.4957   -9.2636   17.3041 C   0  0  0  0  0  0  0  0  0  0  0  0
   -1.8070   -5.6086   28.1920 O   0  0  0  0  0  0  0  0  0  0  0  0
   10.4296   -5.1799   28.3140 C   0  0  0  0  0  0  0  0  0  0  0  0
    6.6017   -5.9004   26.9187 C   0  0  0  0  0  0  0  0  0  0  0  0
    2.4761   -6.9940   26.4111 N   0  0  0  0  0  0  0  0  0  0  0  0
    9.1353   -5.4053   27.8239 C   0  0  0  0  0  0  0  0  0  0  0  0
    0.9922   -9.3232   16.5995 O   0  0  0  0  0  0  0  0  0  0  0  0
    1.5232   -7.6869   27.1182 C   0  0  0  0  0  0  0  0  0  0  0  0
    8.6878   -6.6715   27.7262 N   0  0  0  0  0  0  0  0  0  0  0  0
    6.9911   -8.2423   27.1808 C   0  0  0  0  0  0  0  0  0  0  0  0
    3.8436   -7.2758   16.0578 C   0  0  0  0  0  0  0  0  0  0  0  0
    3.1882   -9.7190   17.2566 C   0  0  0  0  0  0  0  0  0  0  0  0
    5.3488   -6.1737   26.5092 C   0  0  0  0  0  0  0  0  0  0  0  0
    7.4567   -6.9464   27.2858 C   0  0  0  0  0  0  0  0  0  0  0  0
    0.1921   -5.7592   27.1123 C   0  0  0  0  0  0  0  0  0  0  0  0
    3.5517   -7.7407   25.9711 C   0  0  0  0  0  0  0  0  0  0  0  0
  1  4  4  0
  1 22  4  0
  2 20  4  0
  2 27  4  0
  3 12  4  0
  3 23  4  0
  4 25  4  0
  4 28  1  0
  5  8  4  0
  5 17  4  0
  6  7  4  0
  6 16  4  0
  7 18  4  0
  8 27  4  0
  9 13  4  0
  9 23  4  0
 10 11  1  0
 11 14  2  0
 11 27  1  0
 12 19  1  0
 12 24  4  0
 13 24  4  0
 15 18  1  0
 16 25  4  0
 16 26  4  0
 17 20  4  0
 17 28  1  0
 18 21  4  0
 21 26  4  0
 22 26  4  0
M  END
$$$$

 Created by Python create_sdf_string function

 28 30  0  0  0  0  0  0  0  0999 V2000
    5.7174   -8.4529   26.7190 C   0  0  0  0  0  0  0  0  0  0  0  0
    0.3974   -7.0711   27.5149 C   0  0  0  0  0  0  0  0  0  0  0  0
    2.5338   -7.6891   16.0102 C   0  0  0  0  0  0  0  0  0  0  0  0
    4.8690   -7.4380   26.4151 C   0  0  0  0  0  0  0  0  0  0  0  0
    2.3021   -5.6726   26.0378 C   0  0  0  0  0  0  0  0  0  0  0  0
    7.0880   -4.6163   27.0010 C   0  0  0  0  0  0  0  0  0  0  0  0
    8.3117   -4.3698   27.4436 C   0  0  0  0  0  0  0  0  0  0  0  0
    1.1339   -5.0515   26.3541 C   0  0  0  0  0  0  0  0  0  0  0  0
    4.8080   -8.0362   16.7101 C   0  0  0  0  0  0  0  0  0  0  0  0
   -1.2173   -3.9294   26.9717 O   0  0  0  0  0  0  0  0  0  0  0  0
   -1.0025   -5.0942   27.4586 C   0  0  0  0  0  0  0  0  0  0  0  0
    2.2474   -8.9123   16.6273 C   0  0  0  0  0  0  0  0  0  0  0  0
    4.4957   -9.2636   17.3041 C   0  0  0  0  0  0  0  0  0  0  0  0
   -1.8070   -5.6086   28.1920 O   0  0  0  0  0  0  0  0  0  0  0  0
   10.4296   -5.1799   28.3140 C   0  0  0  0  0  0  0  0  0  0  0  0
    6.6017   -5.9004   26.9187 C   0  0  0  0  0  0  0  0  0  0  0  0
    2.4761   -6.9940   26.4111 N   0  0  0  0  0  0  0  0  0  0  0  0
    9.1353   -5.4053   27.8239 C   0  0  0  0  0  0  0  0  0  0  0  0
    0.9922   -9.3232   16.5995 O   0  0  0  0  0  0  0  0  0  0  0  0
    1.5232   -7.6869   27.1182 C   0  0  0  0  0  0  0  0  0  0  0  0
    8.6878   -6.6715   27.7262 N   0  0  0  0  0  0  0  0  0  0  0  0
    6.9911   -8.2423   27.1808 C   0  0  0  0  0  0  0  0  0  0  0  0
    3.8436   -7.2758   16.0578 C   0  0  0  0  0  0  0  0  0  0  0  0
    3.1882   -9.7190   17.2566 C   0  0  0  0  0  0  0  0  0  0  0  0
    5.3488   -6.1737   26.5092 C   0  0  0  0  0  0  0  0  0  0  0  0
    7.4567   -6.9464   27.2858 C   0  0  0  0  0  0  0  0  0  0  0  0
    0.1921   -5.7592   27.1123 C   0  0  0  0  0  0  0  0  0  0  0  0
    3.5517   -7.7407   25.9711 C   0  0  0  0  0  0  0  0  0  0  0  0
  1  4  4  0
  1 22  4  0
  2 20  4  0
  2 27  4  0
  3 12  4  0
  3 23  4  0
  4 25  4  0
  4 28  1  0
  5  8  4  0
  5 17  4  0
  6  7  4  0
  6 16  4  0
  7 18  4  0
  8 27  4  0
  9 13  4  0
  9 23  4  0
 10 11  1  0
 11 14  2  0
 11 27  1  0
 12 19  1  0
 12 24  4  0
 13 24  4  0
 15 18  1  0
 16 25  4  0
 16 26  4  0
 17 20  4  0
 17 28  1  0
 18 21  4  0
 21 26  4  0
 22 26  4  0
M  END
$$$$

 Created by Python create_sdf_string function

 28 30  0  0  0  0  0  0  0  0999 V2000
    5.7174   -8.4529   26.7190 C   0  0  0  0  0  0  0  0  0  0  0  0
    0.3974   -7.0711   27.5149 C   0  0  0  0  0  0  0  0  0  0  0  0
    2.5338   -7.6891   16.0102 C   0  0  0  0  0  0  0  0  0  0  0  0
    4.8690   -7.4380   26.4151 C   0  0  0  0  0  0  0  0  0  0  0  0
    2.3021   -5.6726   26.0378 C   0  0  0  0  0  0  0  0  0  0  0  0
    7.0880   -4.6163   27.0010 C   0  0  0  0  0  0  0  0  0  0  0  0
    8.3117   -4.3698   27.4436 C   0  0  0  0  0  0  0  0  0  0  0  0
    1.1339   -5.0515   26.3541 C   0  0  0  0  0  0  0  0  0  0  0  0
    4.8080   -8.0362   16.7101 C   0  0  0  0  0  0  0  0  0  0  0  0
   -1.2173   -3.9294   26.9717 O   0  0  0  0  0  0  0  0  0  0  0  0
   -1.0025   -5.0942   27.4586 C   0  0  0  0  0  0  0  0  0  0  0  0
    2.2474   -8.9123   16.6273 C   0  0  0  0  0  0  0  0  0  0  0  0
    4.4957   -9.2636   17.3041 C   0  0  0  0  0  0  0  0  0  0  0  0
   -1.8070   -5.6086   28.1920 O   0  0  0  0  0  0  0  0  0  0  0  0
   10.4296   -5.1799   28.3140 C   0  0  0  0  0  0  0  0  0  0  0  0
    6.6017   -5.9004   26.9187 C   0  0  0  0  0  0  0  0  0  0  0  0
    2.4761   -6.9940   26.4111 N   0  0  0  0  0  0  0  0  0  0  0  0
    9.1353   -5.4053   27.8239 C   0  0  0  0  0  0  0  0  0  0  0  0
    0.9922   -9.3232   16.5995 O   0  0  0  0  0  0  0  0  0  0  0  0
    1.5232   -7.6869   27.1182 C   0  0  0  0  0  0  0  0  0  0  0  0
    8.6878   -6.6715   27.7262 N   0  0  0  0  0  0  0  0  0  0  0  0
    6.9911   -8.2423   27.1808 C   0  0  0  0  0  0  0  0  0  0  0  0
    3.8436   -7.2758   16.0578 C   0  0  0  0  0  0  0  0  0  0  0  0
    3.1882   -9.7190   17.2566 C   0  0  0  0  0  0  0  0  0  0  0  0
    5.3488   -6.1737   26.5092 C   0  0  0  0  0  0  0  0  0  0  0  0
    7.4567   -6.9464   27.2858 C   0  0  0  0  0  0  0  0  0  0  0  0
    0.1921   -5.7592   27.1123 C   0  0  0  0  0  0  0  0  0  0  0  0
    3.5517   -7.7407   25.9711 C   0  0  0  0  0  0  0  0  0  0  0  0
  1  4  4  0
  1 22  4  0
  2 20  4  0
  2 27  4  0
  3 12  4  0
  3 23  4  0
  4 25  4  0
  4 28  1  0
  5  8  4  0
  5 17  4  0
  6  7  4  0
  6 16  4  0
  7 18  4  0
  8 27  4  0
  9 13  4  0
  9 23  4  0
 10 11  1  0
 11 14  2  0
 11 27  1  0
 12 19  1  0
 12 24  4  0
 13 24  4  0
 15 18  1  0
 16 25  4  0
 16 26  4  0
 17 20  4  0
 17 28  1  0
 18 21  4  0
 21 26  4  0
 22 26  4  0
M  END
$$$$

 Created by Python create_sdf_string function

 28 30  0  0  0  0  0  0  0  0999 V2000
    5.7174   -8.4529   26.7190 C   0  0  0  0  0  0  0  0  0  0  0  0
    0.3974   -7.0711   27.5149 C   0  0  0  0  0  0  0  0  0  0  0  0
    2.5338   -7.6891   16.0102 C   0  0  0  0  0  0  0  0  0  0  0  0
    4.8690   -7.4380   26.4151 C   0  0  0  0  0  0  0  0  0  0  0  0
    2.3021   -5.6726   26.0378 C   0  0  0  0  0  0  0  0  0  0  0  0
    7.0880   -4.6163   27.0010 C   0  0  0  0  0  0  0  0  0  0  0  0
    8.3117   -4.3698   27.4436 C   0  0  0  0  0  0  0  0  0  0  0  0
    1.1339   -5.0515   26.3541 C   0  0  0  0  0  0  0  0  0  0  0  0
    4.8080   -8.0362   16.7101 C   0  0  0  0  0  0  0  0  0  0  0  0
   -1.2173   -3.9294   26.9717 O   0  0  0  0  0  0  0  0  0  0  0  0
   -1.0025   -5.0942   27.4586 C   0  0  0  0  0  0  0  0  0  0  0  0
    2.2474   -8.9123   16.6273 C   0  0  0  0  0  0  0  0  0  0  0  0
    4.4957   -9.2636   17.3041 C   0  0  0  0  0  0  0  0  0  0  0  0
   -1.8070   -5.6086   28.1920 O   0  0  0  0  0  0  0  0  0  0  0  0
   10.4296   -5.1799   28.3140 C   0  0  0  0  0  0  0  0  0  0  0  0
    6.6017   -5.9004   26.9187 C   0  0  0  0  0  0  0  0  0  0  0  0
    2.4761   -6.9940   26.4111 N   0  0  0  0  0  0  0  0  0  0  0  0
    9.1353   -5.4053   27.8239 C   0  0  0  0  0  0  0  0  0  0  0  0
    0.9922   -9.3232   16.5995 O   0  0  0  0  0  0  0  0  0  0  0  0
    1.5232   -7.6869   27.1182 C   0  0  0  0  0  0  0  0  0  0  0  0
    8.6878   -6.6715   27.7262 N   0  0  0  0  0  0  0  0  0  0  0  0
    6.9911   -8.2423   27.1808 C   0  0  0  0  0  0  0  0  0  0  0  0
    3.8436   -7.2758   16.0578 C   0  0  0  0  0  0  0  0  0  0  0  0
    3.1882   -9.7190   17.2566 C   0  0  0  0  0  0  0  0  0  0  0  0
    5.3488   -6.1737   26.5092 C   0  0  0  0  0  0  0  0  0  0  0  0
    7.4567   -6.9464   27.2858 C   0  0  0  0  0  0  0  0  0  0  0  0
    0.1921   -5.7592   27.1123 C   0  0  0  0  0  0  0  0  0  0  0  0
    3.5517   -7.7407   25.9711 C   0  0  0  0  0  0  0  0  0  0  0  0
  1  4  4  0
  1 22  4  0
  2 20  4  0
  2 27  4  0
  3 12  4  0
  3 23  4  0
  4 25  4  0
  4 28  1  0
  5  8  4  0
  5 17  4  0
  6  7  4  0
  6 16  4  0
  7 18  4  0
  8 27  4  0
  9 13  4  0
  9 23  4  0
 10 11  1  0
 11 14  2  0
 11 27  1  0
 12 19  1  0
 12 24  4  0
 13 24  4  0
 15 18  1  0
 16 25  4  0
 16 26  4  0
 17 20  4  0
 17 28  1  0
 18 21  4  0
 21 26  4  0
 22 26  4  0
M  END
$$$$

 Created by Python create_sdf_string function

 28 30  0  0  0  0  0  0  0  0999 V2000
    5.7174   -8.4529   26.7190 C   0  0  0  0  0  0  0  0  0  0  0  0
    0.3974   -7.0711   27.5149 C   0  0  0  0  0  0  0  0  0  0  0  0
    2.5338   -7.6891   16.0102 C   0  0  0  0  0  0  0  0  0  0  0  0
    4.8690   -7.4380   26.4151 C   0  0  0  0  0  0  0  0  0  0  0  0
    2.3021   -5.6726   26.0378 C   0  0  0  0  0  0  0  0  0  0  0  0
    7.0880   -4.6163   27.0010 C   0  0  0  0  0  0  0  0  0  0  0  0
    8.3117   -4.3698   27.4436 C   0  0  0  0  0  0  0  0  0  0  0  0
    1.1339   -5.0515   26.3541 C   0  0  0  0  0  0  0  0  0  0  0  0
    4.8080   -8.0362   16.7101 C   0  0  0  0  0  0  0  0  0  0  0  0
   -1.2173   -3.9294   26.9717 O   0  0  0  0  0  0  0  0  0  0  0  0
   -1.0025   -5.0942   27.4586 C   0  0  0  0  0  0  0  0  0  0  0  0
    2.2474   -8.9123   16.6273 C   0  0  0  0  0  0  0  0  0  0  0  0
    4.4957   -9.2636   17.3041 C   0  0  0  0  0  0  0  0  0  0  0  0
   -1.8070   -5.6086   28.1920 O   0  0  0  0  0  0  0  0  0  0  0  0
   10.4296   -5.1799   28.3140 C   0  0  0  0  0  0  0  0  0  0  0  0
    6.6017   -5.9004   26.9187 C   0  0  0  0  0  0  0  0  0  0  0  0
    2.4761   -6.9940   26.4111 N   0  0  0  0  0  0  0  0  0  0  0  0
    9.1353   -5.4053   27.8239 C   0  0  0  0  0  0  0  0  0  0  0  0
    0.9922   -9.3232   16.5995 O   0  0  0  0  0  0  0  0  0  0  0  0
    1.5232   -7.6869   27.1182 C   0  0  0  0  0  0  0  0  0  0  0  0
    8.6878   -6.6715   27.7262 N   0  0  0  0  0  0  0  0  0  0  0  0
    6.9911   -8.2423   27.1808 C   0  0  0  0  0  0  0  0  0  0  0  0
    3.8436   -7.2758   16.0578 C   0  0  0  0  0  0  0  0  0  0  0  0
    3.1882   -9.7190   17.2566 C   0  0  0  0  0  0  0  0  0  0  0  0
    5.3488   -6.1737   26.5092 C   0  0  0  0  0  0  0  0  0  0  0  0
    7.4567   -6.9464   27.2858 C   0  0  0  0  0  0  0  0  0  0  0  0
    0.1921   -5.7592   27.1123 C   0  0  0  0  0  0  0  0  0  0  0  0
    3.5517   -7.7407   25.9711 C   0  0  0  0  0  0  0  0  0  0  0  0
  1  4  4  0
  1 22  4  0
  2 20  4  0
  2 27  4  0
  3 12  4  0
  3 23  4  0
  4 25  4  0
  4 28  1  0
  5  8  4  0
  5 17  4  0
  6  7  4  0
  6 16  4  0
  7 18  4  0
  8 27  4  0
  9 13  4  0
  9 23  4  0
 10 11  1  0
 11 14  2  0
 11 27  1  0
 12 19  1  0
 12 24  4  0
 13 24  4  0
 15 18  1  0
 16 25  4  0
 16 26  4  0
 17 20  4  0
 17 28  1  0
 18 21  4  0
 21 26  4  0
 22 26  4  0
M  END
$$$$

 Created by Python create_sdf_string function

 28 30  0  0  0  0  0  0  0  0999 V2000
    5.7174   -8.4529   26.7190 C   0  0  0  0  0  0  0  0  0  0  0  0
    0.3974   -7.0711   27.5149 C   0  0  0  0  0  0  0  0  0  0  0  0
    2.5338   -7.6891   16.0102 C   0  0  0  0  0  0  0  0  0  0  0  0
    4.8690   -7.4380   26.4151 C   0  0  0  0  0  0  0  0  0  0  0  0
    2.3021   -5.6726   26.0378 C   0  0  0  0  0  0  0  0  0  0  0  0
    7.0880   -4.6163   27.0010 C   0  0  0  0  0  0  0  0  0  0  0  0
    8.3117   -4.3698   27.4436 C   0  0  0  0  0  0  0  0  0  0  0  0
    1.1339   -5.0515   26.3541 C   0  0  0  0  0  0  0  0  0  0  0  0
    4.8080   -8.0362   16.7101 C   0  0  0  0  0  0  0  0  0  0  0  0
   -1.2173   -3.9294   26.9717 O   0  0  0  0  0  0  0  0  0  0  0  0
   -1.0025   -5.0942   27.4586 C   0  0  0  0  0  0  0  0  0  0  0  0
    2.2474   -8.9123   16.6273 C   0  0  0  0  0  0  0  0  0  0  0  0
    4.4957   -9.2636   17.3041 C   0  0  0  0  0  0  0  0  0  0  0  0
   -1.8070   -5.6086   28.1920 O   0  0  0  0  0  0  0  0  0  0  0  0
   10.4296   -5.1799   28.3140 C   0  0  0  0  0  0  0  0  0  0  0  0
    6.6017   -5.9004   26.9187 C   0  0  0  0  0  0  0  0  0  0  0  0
    2.4761   -6.9940   26.4111 N   0  0  0  0  0  0  0  0  0  0  0  0
    9.1353   -5.4053   27.8239 C   0  0  0  0  0  0  0  0  0  0  0  0
    0.9922   -9.3232   16.5995 O   0  0  0  0  0  0  0  0  0  0  0  0
    1.5232   -7.6869   27.1182 C   0  0  0  0  0  0  0  0  0  0  0  0
    8.6878   -6.6715   27.7262 N   0  0  0  0  0  0  0  0  0  0  0  0
    6.9911   -8.2423   27.1808 C   0  0  0  0  0  0  0  0  0  0  0  0
    3.8436   -7.2758   16.0578 C   0  0  0  0  0  0  0  0  0  0  0  0
    3.1882   -9.7190   17.2566 C   0  0  0  0  0  0  0  0  0  0  0  0
    5.3488   -6.1737   26.5092 C   0  0  0  0  0  0  0  0  0  0  0  0
    7.4567   -6.9464   27.2858 C   0  0  0  0  0  0  0  0  0  0  0  0
    0.1921   -5.7592   27.1123 C   0  0  0  0  0  0  0  0  0  0  0  0
    3.5517   -7.7407   25.9711 C   0  0  0  0  0  0  0  0  0  0  0  0
  1  4  4  0
  1 22  4  0
  2 20  4  0
  2 27  4  0
  3 12  4  0
  3 23  4  0
  4 25  4  0
  4 28  1  0
  5  8  4  0
  5 17  4  0
  6  7  4  0
  6 16  4  0
  7 18  4  0
  8 27  4  0
  9 13  4  0
  9 23  4  0
 10 11  1  0
 11 14  2  0
 11 27  1  0
 12 19  1  0
 12 24  4  0
 13 24  4  0
 15 18  1  0
 16 25  4  0
 16 26  4  0
 17 20  4  0
 17 28  1  0
 18 21  4  0
 21 26  4  0
 22 26  4  0
M  END
$$$$

 Created by Python create_sdf_string function

 28 30  0  0  0  0  0  0  0  0999 V2000
    5.7174   -8.4529   26.7190 C   0  0  0  0  0  0  0  0  0  0  0  0
    0.3974   -7.0711   27.5149 C   0  0  0  0  0  0  0  0  0  0  0  0
    2.5338   -7.6891   16.0102 C   0  0  0  0  0  0  0  0  0  0  0  0
    4.8690   -7.4380   26.4151 C   0  0  0  0  0  0  0  0  0  0  0  0
    2.3021   -5.6726   26.0378 C   0  0  0  0  0  0  0  0  0  0  0  0
    7.0880   -4.6163   27.0010 C   0  0  0  0  0  0  0  0  0  0  0  0
    8.3117   -4.3698   27.4436 C   0  0  0  0  0  0  0  0  0  0  0  0
    1.1339   -5.0515   26.3541 C   0  0  0  0  0  0  0  0  0  0  0  0
    4.8080   -8.0362   16.7101 C   0  0  0  0  0  0  0  0  0  0  0  0
   -1.2173   -3.9294   26.9717 O   0  0  0  0  0  0  0  0  0  0  0  0
   -1.0025   -5.0942   27.4586 C   0  0  0  0  0  0  0  0  0  0  0  0
    2.2474   -8.9123   16.6273 C   0  0  0  0  0  0  0  0  0  0  0  0
    4.4957   -9.2636   17.3041 C   0  0  0  0  0  0  0  0  0  0  0  0
   -1.8070   -5.6086   28.1920 O   0  0  0  0  0  0  0  0  0  0  0  0
   10.4296   -5.1799   28.3140 C   0  0  0  0  0  0  0  0  0  0  0  0
    6.6017   -5.9004   26.9187 C   0  0  0  0  0  0  0  0  0  0  0  0
    2.4761   -6.9940   26.4111 N   0  0  0  0  0  0  0  0  0  0  0  0
    9.1353   -5.4053   27.8239 C   0  0  0  0  0  0  0  0  0  0  0  0
    0.9922   -9.3232   16.5995 O   0  0  0  0  0  0  0  0  0  0  0  0
    1.5232   -7.6869   27.1182 C   0  0  0  0  0  0  0  0  0  0  0  0
    8.6878   -6.6715   27.7262 N   0  0  0  0  0  0  0  0  0  0  0  0
    6.9911   -8.2423   27.1808 C   0  0  0  0  0  0  0  0  0  0  0  0
    3.8436   -7.2758   16.0578 C   0  0  0  0  0  0  0  0  0  0  0  0
    3.1882   -9.7190   17.2566 C   0  0  0  0  0  0  0  0  0  0  0  0
    5.3488   -6.1737   26.5092 C   0  0  0  0  0  0  0  0  0  0  0  0
    7.4567   -6.9464   27.2858 C   0  0  0  0  0  0  0  0  0  0  0  0
    0.1921   -5.7592   27.1123 C   0  0  0  0  0  0  0  0  0  0  0  0
    3.5517   -7.7407   25.9711 C   0  0  0  0  0  0  0  0  0  0  0  0
  1  4  4  0
  1 22  4  0
  2 20  4  0
  2 27  4  0
  3 12  4  0
  3 23  4  0
  4 25  4  0
  4 28  1  0
  5  8  4  0
  5 17  4  0
  6  7  4  0
  6 16  4  0
  7 18  4  0
  8 27  4  0
  9 13  4  0
  9 23  4  0
 10 11  1  0
 11 14  2  0
 11 27  1  0
 12 19  1  0
 12 24  4  0
 13 24  4  0
 15 18  1  0
 16 25  4  0
 16 26  4  0
 17 20  4  0
 17 28  1  0
 18 21  4  0
 21 26  4  0
 22 26  4  0
M  END
$$$$

 Created by Python create_sdf_string function

 28 30  0  0  0  0  0  0  0  0999 V2000
    5.7174   -8.4529   26.7190 C   0  0  0  0  0  0  0  0  0  0  0  0
    0.3974   -7.0711   27.5149 C   0  0  0  0  0  0  0  0  0  0  0  0
    2.5338   -7.6891   16.0102 C   0  0  0  0  0  0  0  0  0  0  0  0
    4.8690   -7.4380   26.4151 C   0  0  0  0  0  0  0  0  0  0  0  0
    2.3021   -5.6726   26.0378 C   0  0  0  0  0  0  0  0  0  0  0  0
    7.0880   -4.6163   27.0010 C   0  0  0  0  0  0  0  0  0  0  0  0
    8.3117   -4.3698   27.4436 C   0  0  0  0  0  0  0  0  0  0  0  0
    1.1339   -5.0515   26.3541 C   0  0  0  0  0  0  0  0  0  0  0  0
    4.8080   -8.0362   16.7101 C   0  0  0  0  0  0  0  0  0  0  0  0
   -1.2173   -3.9294   26.9717 O   0  0  0  0  0  0  0  0  0  0  0  0
   -1.0025   -5.0942   27.4586 C   0  0  0  0  0  0  0  0  0  0  0  0
    2.2474   -8.9123   16.6273 C   0  0  0  0  0  0  0  0  0  0  0  0
    4.4957   -9.2636   17.3041 C   0  0  0  0  0  0  0  0  0  0  0  0
   -1.8070   -5.6086   28.1920 O   0  0  0  0  0  0  0  0  0  0  0  0
   10.4296   -5.1799   28.3140 C   0  0  0  0  0  0  0  0  0  0  0  0
    6.6017   -5.9004   26.9187 C   0  0  0  0  0  0  0  0  0  0  0  0
    2.4761   -6.9940   26.4111 N   0  0  0  0  0  0  0  0  0  0  0  0
    9.1353   -5.4053   27.8239 C   0  0  0  0  0  0  0  0  0  0  0  0
    0.9922   -9.3232   16.5995 O   0  0  0  0  0  0  0  0  0  0  0  0
    1.5232   -7.6869   27.1182 C   0  0  0  0  0  0  0  0  0  0  0  0
    8.6878   -6.6715   27.7262 N   0  0  0  0  0  0  0  0  0  0  0  0
    6.9911   -8.2423   27.1808 C   0  0  0  0  0  0  0  0  0  0  0  0
    3.8436   -7.2758   16.0578 C   0  0  0  0  0  0  0  0  0  0  0  0
    3.1882   -9.7190   17.2566 C   0  0  0  0  0  0  0  0  0  0  0  0
    5.3488   -6.1737   26.5092 C   0  0  0  0  0  0  0  0  0  0  0  0
    7.4567   -6.9464   27.2858 C   0  0  0  0  0  0  0  0  0  0  0  0
    0.1921   -5.7592   27.1123 C   0  0  0  0  0  0  0  0  0  0  0  0
    3.5517   -7.7407   25.9711 C   0  0  0  0  0  0  0  0  0  0  0  0
  1  4  4  0
  1 22  4  0
  2 20  4  0
  2 27  4  0
  3 12  4  0
  3 23  4  0
  4 25  4  0
  4 28  1  0
  5  8  4  0
  5 17  4  0
  6  7  4  0
  6 16  4  0
  7 18  4  0
  8 27  4  0
  9 13  4  0
  9 23  4  0
 10 11  1  0
 11 14  2  0
 11 27  1  0
 12 19  1  0
 12 24  4  0
 13 24  4  0
 15 18  1  0
 16 25  4  0
 16 26  4  0
 17 20  4  0
 17 28  1  0
 18 21  4  0
 21 26  4  0
 22 26  4  0
M  END
$$$$

 Created by Python create_sdf_string function

 28 30  0  0  0  0  0  0  0  0999 V2000
    5.7174   -8.4529   26.7190 C   0  0  0  0  0  0  0  0  0  0  0  0
    0.3974   -7.0711   27.5149 C   0  0  0  0  0  0  0  0  0  0  0  0
    2.5338   -7.6891   16.0102 C   0  0  0  0  0  0  0  0  0  0  0  0
    4.8690   -7.4380   26.4151 C   0  0  0  0  0  0  0  0  0  0  0  0
    2.3021   -5.6726   26.0378 C   0  0  0  0  0  0  0  0  0  0  0  0
    7.0880   -4.6163   27.0010 C   0  0  0  0  0  0  0  0  0  0  0  0
    8.3117   -4.3698   27.4436 C   0  0  0  0  0  0  0  0  0  0  0  0
    1.1339   -5.0515   26.3541 C   0  0  0  0  0  0  0  0  0  0  0  0
    4.8080   -8.0362   16.7101 C   0  0  0  0  0  0  0  0  0  0  0  0
   -1.2173   -3.9294   26.9717 O   0  0  0  0  0  0  0  0  0  0  0  0
   -1.0025   -5.0942   27.4586 C   0  0  0  0  0  0  0  0  0  0  0  0
    2.2474   -8.9123   16.6273 C   0  0  0  0  0  0  0  0  0  0  0  0
    4.4957   -9.2636   17.3041 C   0  0  0  0  0  0  0  0  0  0  0  0
   -1.8070   -5.6086   28.1920 O   0  0  0  0  0  0  0  0  0  0  0  0
   10.4296   -5.1799   28.3140 C   0  0  0  0  0  0  0  0  0  0  0  0
    6.6017   -5.9004   26.9187 C   0  0  0  0  0  0  0  0  0  0  0  0
    2.4761   -6.9940   26.4111 N   0  0  0  0  0  0  0  0  0  0  0  0
    9.1353   -5.4053   27.8239 C   0  0  0  0  0  0  0  0  0  0  0  0
    0.9922   -9.3232   16.5995 O   0  0  0  0  0  0  0  0  0  0  0  0
    1.5232   -7.6869   27.1182 C   0  0  0  0  0  0  0  0  0  0  0  0
    8.6878   -6.6715   27.7262 N   0  0  0  0  0  0  0  0  0  0  0  0
    6.9911   -8.2423   27.1808 C   0  0  0  0  0  0  0  0  0  0  0  0
    3.8436   -7.2758   16.0578 C   0  0  0  0  0  0  0  0  0  0  0  0
    3.1882   -9.7190   17.2566 C   0  0  0  0  0  0  0  0  0  0  0  0
    5.3488   -6.1737   26.5092 C   0  0  0  0  0  0  0  0  0  0  0  0
    7.4567   -6.9464   27.2858 C   0  0  0  0  0  0  0  0  0  0  0  0
    0.1921   -5.7592   27.1123 C   0  0  0  0  0  0  0  0  0  0  0  0
    3.5517   -7.7407   25.9711 C   0  0  0  0  0  0  0  0  0  0  0  0
  1  4  4  0
  1 22  4  0
  2 20  4  0
  2 27  4  0
  3 12  4  0
  3 23  4  0
  4 25  4  0
  4 28  1  0
  5  8  4  0
  5 17  4  0
  6  7  4  0
  6 16  4  0
  7 18  4  0
  8 27  4  0
  9 13  4  0
  9 23  4  0
 10 11  1  0
 11 14  2  0
 11 27  1  0
 12 19  1  0
 12 24  4  0
 13 24  4  0
 15 18  1  0
 16 25  4  0
 16 26  4  0
 17 20  4  0
 17 28  1  0
 18 21  4  0
 21 26  4  0
 22 26  4  0
M  END
$$$$

 Created by Python create_sdf_string function

 28 30  0  0  0  0  0  0  0  0999 V2000
    5.7174   -8.4529   26.7190 C   0  0  0  0  0  0  0  0  0  0  0  0
    0.3974   -7.0711   27.5149 C   0  0  0  0  0  0  0  0  0  0  0  0
    2.5338   -7.6891   16.0102 C   0  0  0  0  0  0  0  0  0  0  0  0
    4.8690   -7.4380   26.4151 C   0  0  0  0  0  0  0  0  0  0  0  0
    2.3021   -5.6726   26.0378 C   0  0  0  0  0  0  0  0  0  0  0  0
    7.0880   -4.6163   27.0010 C   0  0  0  0  0  0  0  0  0  0  0  0
    8.3117   -4.3698   27.4436 C   0  0  0  0  0  0  0  0  0  0  0  0
    1.1339   -5.0515   26.3541 C   0  0  0  0  0  0  0  0  0  0  0  0
    4.8080   -8.0362   16.7101 C   0  0  0  0  0  0  0  0  0  0  0  0
   -1.2173   -3.9294   26.9717 O   0  0  0  0  0  0  0  0  0  0  0  0
   -1.0025   -5.0942   27.4586 C   0  0  0  0  0  0  0  0  0  0  0  0
    2.2474   -8.9123   16.6273 C   0  0  0  0  0  0  0  0  0  0  0  0
    4.4957   -9.2636   17.3041 C   0  0  0  0  0  0  0  0  0  0  0  0
   -1.8070   -5.6086   28.1920 O   0  0  0  0  0  0  0  0  0  0  0  0
   10.4296   -5.1799   28.3140 C   0  0  0  0  0  0  0  0  0  0  0  0
    6.6017   -5.9004   26.9187 C   0  0  0  0  0  0  0  0  0  0  0  0
    2.4761   -6.9940   26.4111 N   0  0  0  0  0  0  0  0  0  0  0  0
    9.1353   -5.4053   27.8239 C   0  0  0  0  0  0  0  0  0  0  0  0
    0.9922   -9.3232   16.5995 O   0  0  0  0  0  0  0  0  0  0  0  0
    1.5232   -7.6869   27.1182 C   0  0  0  0  0  0  0  0  0  0  0  0
    8.6878   -6.6715   27.7262 N   0  0  0  0  0  0  0  0  0  0  0  0
    6.9911   -8.2423   27.1808 C   0  0  0  0  0  0  0  0  0  0  0  0
    3.8436   -7.2758   16.0578 C   0  0  0  0  0  0  0  0  0  0  0  0
    3.1882   -9.7190   17.2566 C   0  0  0  0  0  0  0  0  0  0  0  0
    5.3488   -6.1737   26.5092 C   0  0  0  0  0  0  0  0  0  0  0  0
    7.4567   -6.9464   27.2858 C   0  0  0  0  0  0  0  0  0  0  0  0
    0.1921   -5.7592   27.1123 C   0  0  0  0  0  0  0  0  0  0  0  0
    3.5517   -7.7407   25.9711 C   0  0  0  0  0  0  0  0  0  0  0  0
  1  4  4  0
  1 22  4  0
  2 20  4  0
  2 27  4  0
  3 12  4  0
  3 23  4  0
  4 25  4  0
  4 28  1  0
  5  8  4  0
  5 17  4  0
  6  7  4  0
  6 16  4  0
  7 18  4  0
  8 27  4  0
  9 13  4  0
  9 23  4  0
 10 11  1  0
 11 14  2  0
 11 27  1  0
 12 19  1  0
 12 24  4  0
 13 24  4  0
 15 18  1  0
 16 25  4  0
 16 26  4  0
 17 20  4  0
 17 28  1  0
 18 21  4  0
 21 26  4  0
 22 26  4  0
M  END
$$$$

 Created by Python create_sdf_string function

 28 30  0  0  0  0  0  0  0  0999 V2000
    5.7174   -8.4529   26.7190 C   0  0  0  0  0  0  0  0  0  0  0  0
    0.3974   -7.0711   27.5149 C   0  0  0  0  0  0  0  0  0  0  0  0
    2.5338   -7.6891   16.0102 C   0  0  0  0  0  0  0  0  0  0  0  0
    4.8690   -7.4380   26.4151 C   0  0  0  0  0  0  0  0  0  0  0  0
    2.3021   -5.6726   26.0378 C   0  0  0  0  0  0  0  0  0  0  0  0
    7.0880   -4.6163   27.0010 C   0  0  0  0  0  0  0  0  0  0  0  0
    8.3117   -4.3698   27.4436 C   0  0  0  0  0  0  0  0  0  0  0  0
    1.1339   -5.0515   26.3541 C   0  0  0  0  0  0  0  0  0  0  0  0
    4.8080   -8.0362   16.7101 C   0  0  0  0  0  0  0  0  0  0  0  0
   -1.2173   -3.9294   26.9717 O   0  0  0  0  0  0  0  0  0  0  0  0
   -1.0025   -5.0942   27.4586 C   0  0  0  0  0  0  0  0  0  0  0  0
    2.2474   -8.9123   16.6273 C   0  0  0  0  0  0  0  0  0  0  0  0
    4.4957   -9.2636   17.3041 C   0  0  0  0  0  0  0  0  0  0  0  0
   -1.8070   -5.6086   28.1920 O   0  0  0  0  0  0  0  0  0  0  0  0
   10.4296   -5.1799   28.3140 C   0  0  0  0  0  0  0  0  0  0  0  0
    6.6017   -5.9004   26.9187 C   0  0  0  0  0  0  0  0  0  0  0  0
    2.4761   -6.9940   26.4111 N   0  0  0  0  0  0  0  0  0  0  0  0
    9.1353   -5.4053   27.8239 C   0  0  0  0  0  0  0  0  0  0  0  0
    0.9922   -9.3232   16.5995 O   0  0  0  0  0  0  0  0  0  0  0  0
    1.5232   -7.6869   27.1182 C   0  0  0  0  0  0  0  0  0  0  0  0
    8.6878   -6.6715   27.7262 N   0  0  0  0  0  0  0  0  0  0  0  0
    6.9911   -8.2423   27.1808 C   0  0  0  0  0  0  0  0  0  0  0  0
    3.8436   -7.2758   16.0578 C   0  0  0  0  0  0  0  0  0  0  0  0
    3.1882   -9.7190   17.2566 C   0  0  0  0  0  0  0  0  0  0  0  0
    5.3488   -6.1737   26.5092 C   0  0  0  0  0  0  0  0  0  0  0  0
    7.4567   -6.9464   27.2858 C   0  0  0  0  0  0  0  0  0  0  0  0
    0.1921   -5.7592   27.1123 C   0  0  0  0  0  0  0  0  0  0  0  0
    3.5517   -7.7407   25.9711 C   0  0  0  0  0  0  0  0  0  0  0  0
  1  4  4  0
  1 22  4  0
  2 20  4  0
  2 27  4  0
  3 12  4  0
  3 23  4  0
  4 25  4  0
  4 28  1  0
  5  8  4  0
  5 17  4  0
  6  7  4  0
  6 16  4  0
  7 18  4  0
  8 27  4  0
  9 13  4  0
  9 23  4  0
 10 11  1  0
 11 14  2  0
 11 27  1  0
 12 19  1  0
 12 24  4  0
 13 24  4  0
 15 18  1  0
 16 25  4  0
 16 26  4  0
 17 20  4  0
 17 28  1  0
 18 21  4  0
 21 26  4  0
 22 26  4  0
M  END
$$$$

 Created by Python create_sdf_string function

 28 30  0  0  0  0  0  0  0  0999 V2000
    5.7174   -8.4529   26.7190 C   0  0  0  0  0  0  0  0  0  0  0  0
    0.3974   -7.0711   27.5149 C   0  0  0  0  0  0  0  0  0  0  0  0
    2.5338   -7.6891   16.0102 C   0  0  0  0  0  0  0  0  0  0  0  0
    4.8690   -7.4380   26.4151 C   0  0  0  0  0  0  0  0  0  0  0  0
    2.3021   -5.6726   26.0378 C   0  0  0  0  0  0  0  0  0  0  0  0
    7.0880   -4.6163   27.0010 C   0  0  0  0  0  0  0  0  0  0  0  0
    8.3117   -4.3698   27.4436 C   0  0  0  0  0  0  0  0  0  0  0  0
    1.1339   -5.0515   26.3541 C   0  0  0  0  0  0  0  0  0  0  0  0
    4.8080   -8.0362   16.7101 C   0  0  0  0  0  0  0  0  0  0  0  0
   -1.2173   -3.9294   26.9717 O   0  0  0  0  0  0  0  0  0  0  0  0
   -1.0025   -5.0942   27.4586 C   0  0  0  0  0  0  0  0  0  0  0  0
    2.2474   -8.9123   16.6273 C   0  0  0  0  0  0  0  0  0  0  0  0
    4.4957   -9.2636   17.3041 C   0  0  0  0  0  0  0  0  0  0  0  0
   -1.8070   -5.6086   28.1920 O   0  0  0  0  0  0  0  0  0  0  0  0
   10.4296   -5.1799   28.3140 C   0  0  0  0  0  0  0  0  0  0  0  0
    6.6017   -5.9004   26.9187 C   0  0  0  0  0  0  0  0  0  0  0  0
    2.4761   -6.9940   26.4111 N   0  0  0  0  0  0  0  0  0  0  0  0
    9.1353   -5.4053   27.8239 C   0  0  0  0  0  0  0  0  0  0  0  0
    0.9922   -9.3232   16.5995 O   0  0  0  0  0  0  0  0  0  0  0  0
    1.5232   -7.6869   27.1182 C   0  0  0  0  0  0  0  0  0  0  0  0
    8.6878   -6.6715   27.7262 N   0  0  0  0  0  0  0  0  0  0  0  0
    6.9911   -8.2423   27.1808 C   0  0  0  0  0  0  0  0  0  0  0  0
    3.8436   -7.2758   16.0578 C   0  0  0  0  0  0  0  0  0  0  0  0
    3.1882   -9.7190   17.2566 C   0  0  0  0  0  0  0  0  0  0  0  0
    5.3488   -6.1737   26.5092 C   0  0  0  0  0  0  0  0  0  0  0  0
    7.4567   -6.9464   27.2858 C   0  0  0  0  0  0  0  0  0  0  0  0
    0.1921   -5.7592   27.1123 C   0  0  0  0  0  0  0  0  0  0  0  0
    3.5517   -7.7407   25.9711 C   0  0  0  0  0  0  0  0  0  0  0  0
  1  4  4  0
  1 22  4  0
  2 20  4  0
  2 27  4  0
  3 12  4  0
  3 23  4  0
  4 25  4  0
  4 28  1  0
  5  8  4  0
  5 17  4  0
  6  7  4  0
  6 16  4  0
  7 18  4  0
  8 27  4  0
  9 13  4  0
  9 23  4  0
 10 11  1  0
 11 14  2  0
 11 27  1  0
 12 19  1  0
 12 24  4  0
 13 24  4  0
 15 18  1  0
 16 25  4  0
 16 26  4  0
 17 20  4  0
 17 28  1  0
 18 21  4  0
 21 26  4  0
 22 26  4  0
M  END
$$$$

 Created by Python create_sdf_string function

 28 30  0  0  0  0  0  0  0  0999 V2000
    5.7174   -8.4529   26.7190 C   0  0  0  0  0  0  0  0  0  0  0  0
    0.3974   -7.0711   27.5149 C   0  0  0  0  0  0  0  0  0  0  0  0
    2.5338   -7.6891   16.0102 C   0  0  0  0  0  0  0  0  0  0  0  0
    4.8690   -7.4380   26.4151 C   0  0  0  0  0  0  0  0  0  0  0  0
    2.3021   -5.6726   26.0378 C   0  0  0  0  0  0  0  0  0  0  0  0
    7.0880   -4.6163   27.0010 C   0  0  0  0  0  0  0  0  0  0  0  0
    8.3117   -4.3698   27.4436 C   0  0  0  0  0  0  0  0  0  0  0  0
    1.1339   -5.0515   26.3541 C   0  0  0  0  0  0  0  0  0  0  0  0
    4.8080   -8.0362   16.7101 C   0  0  0  0  0  0  0  0  0  0  0  0
   -1.2173   -3.9294   26.9717 O   0  0  0  0  0  0  0  0  0  0  0  0
   -1.0025   -5.0942   27.4586 C   0  0  0  0  0  0  0  0  0  0  0  0
    2.2474   -8.9123   16.6273 C   0  0  0  0  0  0  0  0  0  0  0  0
    4.4957   -9.2636   17.3041 C   0  0  0  0  0  0  0  0  0  0  0  0
   -1.8070   -5.6086   28.1920 O   0  0  0  0  0  0  0  0  0  0  0  0
   10.4296   -5.1799   28.3140 C   0  0  0  0  0  0  0  0  0  0  0  0
    6.6017   -5.9004   26.9187 C   0  0  0  0  0  0  0  0  0  0  0  0
    2.4761   -6.9940   26.4111 N   0  0  0  0  0  0  0  0  0  0  0  0
    9.1353   -5.4053   27.8239 C   0  0  0  0  0  0  0  0  0  0  0  0
    0.9922   -9.3232   16.5995 O   0  0  0  0  0  0  0  0  0  0  0  0
    1.5232   -7.6869   27.1182 C   0  0  0  0  0  0  0  0  0  0  0  0
    8.6878   -6.6715   27.7262 N   0  0  0  0  0  0  0  0  0  0  0  0
    6.9911   -8.2423   27.1808 C   0  0  0  0  0  0  0  0  0  0  0  0
    3.8436   -7.2758   16.0578 C   0  0  0  0  0  0  0  0  0  0  0  0
    3.1882   -9.7190   17.2566 C   0  0  0  0  0  0  0  0  0  0  0  0
    5.3488   -6.1737   26.5092 C   0  0  0  0  0  0  0  0  0  0  0  0
    7.4567   -6.9464   27.2858 C   0  0  0  0  0  0  0  0  0  0  0  0
    0.1921   -5.7592   27.1123 C   0  0  0  0  0  0  0  0  0  0  0  0
    3.5517   -7.7407   25.9711 C   0  0  0  0  0  0  0  0  0  0  0  0
  1  4  4  0
  1 22  4  0
  2 20  4  0
  2 27  4  0
  3 12  4  0
  3 23  4  0
  4 25  4  0
  4 28  1  0
  5  8  4  0
  5 17  4  0
  6  7  4  0
  6 16  4  0
  7 18  4  0
  8 27  4  0
  9 13  4  0
  9 23  4  0
 10 11  1  0
 11 14  2  0
 11 27  1  0
 12 19  1  0
 12 24  4  0
 13 24  4  0
 15 18  1  0
 16 25  4  0
 16 26  4  0
 17 20  4  0
 17 28  1  0
 18 21  4  0
 21 26  4  0
 22 26  4  0
M  END
$$$$

 Created by Python create_sdf_string function

 28 30  0  0  0  0  0  0  0  0999 V2000
    5.7174   -8.4529   26.7190 C   0  0  0  0  0  0  0  0  0  0  0  0
    0.3974   -7.0711   27.5149 C   0  0  0  0  0  0  0  0  0  0  0  0
    2.5338   -7.6891   16.0102 C   0  0  0  0  0  0  0  0  0  0  0  0
    4.8690   -7.4380   26.4151 C   0  0  0  0  0  0  0  0  0  0  0  0
    2.3021   -5.6726   26.0378 C   0  0  0  0  0  0  0  0  0  0  0  0
    7.0880   -4.6163   27.0010 C   0  0  0  0  0  0  0  0  0  0  0  0
    8.3117   -4.3698   27.4436 C   0  0  0  0  0  0  0  0  0  0  0  0
    1.1339   -5.0515   26.3541 C   0  0  0  0  0  0  0  0  0  0  0  0
    4.8080   -8.0362   16.7101 C   0  0  0  0  0  0  0  0  0  0  0  0
   -1.2173   -3.9294   26.9717 O   0  0  0  0  0  0  0  0  0  0  0  0
   -1.0025   -5.0942   27.4586 C   0  0  0  0  0  0  0  0  0  0  0  0
    2.2474   -8.9123   16.6273 C   0  0  0  0  0  0  0  0  0  0  0  0
    4.4957   -9.2636   17.3041 C   0  0  0  0  0  0  0  0  0  0  0  0
   -1.8070   -5.6086   28.1920 O   0  0  0  0  0  0  0  0  0  0  0  0
   10.4296   -5.1799   28.3140 C   0  0  0  0  0  0  0  0  0  0  0  0
    6.6017   -5.9004   26.9187 C   0  0  0  0  0  0  0  0  0  0  0  0
    2.4761   -6.9940   26.4111 N   0  0  0  0  0  0  0  0  0  0  0  0
    9.1353   -5.4053   27.8239 C   0  0  0  0  0  0  0  0  0  0  0  0
    0.9922   -9.3232   16.5995 O   0  0  0  0  0  0  0  0  0  0  0  0
    1.5232   -7.6869   27.1182 C   0  0  0  0  0  0  0  0  0  0  0  0
    8.6878   -6.6715   27.7262 N   0  0  0  0  0  0  0  0  0  0  0  0
    6.9911   -8.2423   27.1808 C   0  0  0  0  0  0  0  0  0  0  0  0
    3.8436   -7.2758   16.0578 C   0  0  0  0  0  0  0  0  0  0  0  0
    3.1882   -9.7190   17.2566 C   0  0  0  0  0  0  0  0  0  0  0  0
    5.3488   -6.1737   26.5092 C   0  0  0  0  0  0  0  0  0  0  0  0
    7.4567   -6.9464   27.2858 C   0  0  0  0  0  0  0  0  0  0  0  0
    0.1921   -5.7592   27.1123 C   0  0  0  0  0  0  0  0  0  0  0  0
    3.5517   -7.7407   25.9711 C   0  0  0  0  0  0  0  0  0  0  0  0
  1  4  4  0
  1 22  4  0
  2 20  4  0
  2 27  4  0
  3 12  4  0
  3 23  4  0
  4 25  4  0
  4 28  1  0
  5  8  4  0
  5 17  4  0
  6  7  4  0
  6 16  4  0
  7 18  4  0
  8 27  4  0
  9 13  4  0
  9 23  4  0
 10 11  1  0
 11 14  2  0
 11 27  1  0
 12 19  1  0
 12 24  4  0
 13 24  4  0
 15 18  1  0
 16 25  4  0
 16 26  4  0
 17 20  4  0
 17 28  1  0
 18 21  4  0
 21 26  4  0
 22 26  4  0
M  END
$$$$

 Created by Python create_sdf_string function

 28 30  0  0  0  0  0  0  0  0999 V2000
    5.7174   -8.4529   26.7190 C   0  0  0  0  0  0  0  0  0  0  0  0
    0.3974   -7.0711   27.5149 C   0  0  0  0  0  0  0  0  0  0  0  0
    2.5338   -7.6891   16.0102 C   0  0  0  0  0  0  0  0  0  0  0  0
    4.8690   -7.4380   26.4151 C   0  0  0  0  0  0  0  0  0  0  0  0
    2.3021   -5.6726   26.0378 C   0  0  0  0  0  0  0  0  0  0  0  0
    7.0880   -4.6163   27.0010 C   0  0  0  0  0  0  0  0  0  0  0  0
    8.3117   -4.3698   27.4436 C   0  0  0  0  0  0  0  0  0  0  0  0
    1.1339   -5.0515   26.3541 C   0  0  0  0  0  0  0  0  0  0  0  0
    4.8080   -8.0362   16.7101 C   0  0  0  0  0  0  0  0  0  0  0  0
   -1.2173   -3.9294   26.9717 O   0  0  0  0  0  0  0  0  0  0  0  0
   -1.0025   -5.0942   27.4586 C   0  0  0  0  0  0  0  0  0  0  0  0
    2.2474   -8.9123   16.6273 C   0  0  0  0  0  0  0  0  0  0  0  0
    4.4957   -9.2636   17.3041 C   0  0  0  0  0  0  0  0  0  0  0  0
   -1.8070   -5.6086   28.1920 O   0  0  0  0  0  0  0  0  0  0  0  0
   10.4296   -5.1799   28.3140 C   0  0  0  0  0  0  0  0  0  0  0  0
    6.6017   -5.9004   26.9187 C   0  0  0  0  0  0  0  0  0  0  0  0
    2.4761   -6.9940   26.4111 N   0  0  0  0  0  0  0  0  0  0  0  0
    9.1353   -5.4053   27.8239 C   0  0  0  0  0  0  0  0  0  0  0  0
    0.9922   -9.3232   16.5995 O   0  0  0  0  0  0  0  0  0  0  0  0
    1.5232   -7.6869   27.1182 C   0  0  0  0  0  0  0  0  0  0  0  0
    8.6878   -6.6715   27.7262 N   0  0  0  0  0  0  0  0  0  0  0  0
    6.9911   -8.2423   27.1808 C   0  0  0  0  0  0  0  0  0  0  0  0
    3.8436   -7.2758   16.0578 C   0  0  0  0  0  0  0  0  0  0  0  0
    3.1882   -9.7190   17.2566 C   0  0  0  0  0  0  0  0  0  0  0  0
    5.3488   -6.1737   26.5092 C   0  0  0  0  0  0  0  0  0  0  0  0
    7.4567   -6.9464   27.2858 C   0  0  0  0  0  0  0  0  0  0  0  0
    0.1921   -5.7592   27.1123 C   0  0  0  0  0  0  0  0  0  0  0  0
    3.5517   -7.7407   25.9711 C   0  0  0  0  0  0  0  0  0  0  0  0
  1  4  4  0
  1 22  4  0
  2 20  4  0
  2 27  4  0
  3 12  4  0
  3 23  4  0
  4 25  4  0
  4 28  1  0
  5  8  4  0
  5 17  4  0
  6  7  4  0
  6 16  4  0
  7 18  4  0
  8 27  4  0
  9 13  4  0
  9 23  4  0
 10 11  1  0
 11 14  2  0
 11 27  1  0
 12 19  1  0
 12 24  4  0
 13 24  4  0
 15 18  1  0
 16 25  4  0
 16 26  4  0
 17 20  4  0
 17 28  1  0
 18 21  4  0
 21 26  4  0
 22 26  4  0
M  END
$$$$

 Created by Python create_sdf_string function

 28 30  0  0  0  0  0  0  0  0999 V2000
    5.7174   -8.4529   26.7190 C   0  0  0  0  0  0  0  0  0  0  0  0
    0.3974   -7.0711   27.5149 C   0  0  0  0  0  0  0  0  0  0  0  0
    2.5338   -7.6891   16.0102 C   0  0  0  0  0  0  0  0  0  0  0  0
    4.8690   -7.4380   26.4151 C   0  0  0  0  0  0  0  0  0  0  0  0
    2.3021   -5.6726   26.0378 C   0  0  0  0  0  0  0  0  0  0  0  0
    7.0880   -4.6163   27.0010 C   0  0  0  0  0  0  0  0  0  0  0  0
    8.3117   -4.3698   27.4436 C   0  0  0  0  0  0  0  0  0  0  0  0
    1.1339   -5.0515   26.3541 C   0  0  0  0  0  0  0  0  0  0  0  0
    4.8080   -8.0362   16.7101 C   0  0  0  0  0  0  0  0  0  0  0  0
   -1.2173   -3.9294   26.9717 O   0  0  0  0  0  0  0  0  0  0  0  0
   -1.0025   -5.0942   27.4586 C   0  0  0  0  0  0  0  0  0  0  0  0
    2.2474   -8.9123   16.6273 C   0  0  0  0  0  0  0  0  0  0  0  0
    4.4957   -9.2636   17.3041 C   0  0  0  0  0  0  0  0  0  0  0  0
   -1.8070   -5.6086   28.1920 O   0  0  0  0  0  0  0  0  0  0  0  0
   10.4296   -5.1799   28.3140 C   0  0  0  0  0  0  0  0  0  0  0  0
    6.6017   -5.9004   26.9187 C   0  0  0  0  0  0  0  0  0  0  0  0
    2.4761   -6.9940   26.4111 N   0  0  0  0  0  0  0  0  0  0  0  0
    9.1353   -5.4053   27.8239 C   0  0  0  0  0  0  0  0  0  0  0  0
    0.9922   -9.3232   16.5995 O   0  0  0  0  0  0  0  0  0  0  0  0
    1.5232   -7.6869   27.1182 C   0  0  0  0  0  0  0  0  0  0  0  0
    8.6878   -6.6715   27.7262 N   0  0  0  0  0  0  0  0  0  0  0  0
    6.9911   -8.2423   27.1808 C   0  0  0  0  0  0  0  0  0  0  0  0
    3.8436   -7.2758   16.0578 C   0  0  0  0  0  0  0  0  0  0  0  0
    3.1882   -9.7190   17.2566 C   0  0  0  0  0  0  0  0  0  0  0  0
    5.3488   -6.1737   26.5092 C   0  0  0  0  0  0  0  0  0  0  0  0
    7.4567   -6.9464   27.2858 C   0  0  0  0  0  0  0  0  0  0  0  0
    0.1921   -5.7592   27.1123 C   0  0  0  0  0  0  0  0  0  0  0  0
    3.5517   -7.7407   25.9711 C   0  0  0  0  0  0  0  0  0  0  0  0
  1  4  4  0
  1 22  4  0
  2 20  4  0
  2 27  4  0
  3 12  4  0
  3 23  4  0
  4 25  4  0
  4 28  1  0
  5  8  4  0
  5 17  4  0
  6  7  4  0
  6 16  4  0
  7 18  4  0
  8 27  4  0
  9 13  4  0
  9 23  4  0
 10 11  1  0
 11 14  2  0
 11 27  1  0
 12 19  1  0
 12 24  4  0
 13 24  4  0
 15 18  1  0
 16 25  4  0
 16 26  4  0
 17 20  4  0
 17 28  1  0
 18 21  4  0
 21 26  4  0
 22 26  4  0
M  END
$$$$

 Created by Python create_sdf_string function

 28 30  0  0  0  0  0  0  0  0999 V2000
    5.7174   -8.4529   26.7190 C   0  0  0  0  0  0  0  0  0  0  0  0
    0.3974   -7.0711   27.5149 C   0  0  0  0  0  0  0  0  0  0  0  0
    2.5338   -7.6891   16.0102 C   0  0  0  0  0  0  0  0  0  0  0  0
    4.8690   -7.4380   26.4151 C   0  0  0  0  0  0  0  0  0  0  0  0
    2.3021   -5.6726   26.0378 C   0  0  0  0  0  0  0  0  0  0  0  0
    7.0880   -4.6163   27.0010 C   0  0  0  0  0  0  0  0  0  0  0  0
    8.3117   -4.3698   27.4436 C   0  0  0  0  0  0  0  0  0  0  0  0
    1.1339   -5.0515   26.3541 C   0  0  0  0  0  0  0  0  0  0  0  0
    4.8080   -8.0362   16.7101 C   0  0  0  0  0  0  0  0  0  0  0  0
   -1.2173   -3.9294   26.9717 O   0  0  0  0  0  0  0  0  0  0  0  0
   -1.0025   -5.0942   27.4586 C   0  0  0  0  0  0  0  0  0  0  0  0
    2.2474   -8.9123   16.6273 C   0  0  0  0  0  0  0  0  0  0  0  0
    4.4957   -9.2636   17.3041 C   0  0  0  0  0  0  0  0  0  0  0  0
   -1.8070   -5.6086   28.1920 O   0  0  0  0  0  0  0  0  0  0  0  0
   10.4296   -5.1799   28.3140 C   0  0  0  0  0  0  0  0  0  0  0  0
    6.6017   -5.9004   26.9187 C   0  0  0  0  0  0  0  0  0  0  0  0
    2.4761   -6.9940   26.4111 N   0  0  0  0  0  0  0  0  0  0  0  0
    9.1353   -5.4053   27.8239 C   0  0  0  0  0  0  0  0  0  0  0  0
    0.9922   -9.3232   16.5995 O   0  0  0  0  0  0  0  0  0  0  0  0
    1.5232   -7.6869   27.1182 C   0  0  0  0  0  0  0  0  0  0  0  0
    8.6878   -6.6715   27.7262 N   0  0  0  0  0  0  0  0  0  0  0  0
    6.9911   -8.2423   27.1808 C   0  0  0  0  0  0  0  0  0  0  0  0
    3.8436   -7.2758   16.0578 C   0  0  0  0  0  0  0  0  0  0  0  0
    3.1882   -9.7190   17.2566 C   0  0  0  0  0  0  0  0  0  0  0  0
    5.3488   -6.1737   26.5092 C   0  0  0  0  0  0  0  0  0  0  0  0
    7.4567   -6.9464   27.2858 C   0  0  0  0  0  0  0  0  0  0  0  0
    0.1921   -5.7592   27.1123 C   0  0  0  0  0  0  0  0  0  0  0  0
    3.5517   -7.7407   25.9711 C   0  0  0  0  0  0  0  0  0  0  0  0
  1  4  4  0
  1 22  4  0
  2 20  4  0
  2 27  4  0
  3 12  4  0
  3 23  4  0
  4 25  4  0
  4 28  1  0
  5  8  4  0
  5 17  4  0
  6  7  4  0
  6 16  4  0
  7 18  4  0
  8 27  4  0
  9 13  4  0
  9 23  4  0
 10 11  1  0
 11 14  2  0
 11 27  1  0
 12 19  1  0
 12 24  4  0
 13 24  4  0
 15 18  1  0
 16 25  4  0
 16 26  4  0
 17 20  4  0
 17 28  1  0
 18 21  4  0
 21 26  4  0
 22 26  4  0
M  END
$$$$

 Created by Python create_sdf_string function

 28 30  0  0  0  0  0  0  0  0999 V2000
    5.7174   -8.4529   26.7190 C   0  0  0  0  0  0  0  0  0  0  0  0
    0.3974   -7.0711   27.5149 C   0  0  0  0  0  0  0  0  0  0  0  0
    2.5338   -7.6891   16.0102 C   0  0  0  0  0  0  0  0  0  0  0  0
    4.8690   -7.4380   26.4151 C   0  0  0  0  0  0  0  0  0  0  0  0
    2.3021   -5.6726   26.0378 C   0  0  0  0  0  0  0  0  0  0  0  0
    7.0880   -4.6163   27.0010 C   0  0  0  0  0  0  0  0  0  0  0  0
    8.3117   -4.3698   27.4436 C   0  0  0  0  0  0  0  0  0  0  0  0
    1.1339   -5.0515   26.3541 C   0  0  0  0  0  0  0  0  0  0  0  0
    4.8080   -8.0362   16.7101 C   0  0  0  0  0  0  0  0  0  0  0  0
   -1.2173   -3.9294   26.9717 O   0  0  0  0  0  0  0  0  0  0  0  0
   -1.0025   -5.0942   27.4586 C   0  0  0  0  0  0  0  0  0  0  0  0
    2.2474   -8.9123   16.6273 C   0  0  0  0  0  0  0  0  0  0  0  0
    4.4957   -9.2636   17.3041 C   0  0  0  0  0  0  0  0  0  0  0  0
   -1.8070   -5.6086   28.1920 O   0  0  0  0  0  0  0  0  0  0  0  0
   10.4296   -5.1799   28.3140 C   0  0  0  0  0  0  0  0  0  0  0  0
    6.6017   -5.9004   26.9187 C   0  0  0  0  0  0  0  0  0  0  0  0
    2.4761   -6.9940   26.4111 N   0  0  0  0  0  0  0  0  0  0  0  0
    9.1353   -5.4053   27.8239 C   0  0  0  0  0  0  0  0  0  0  0  0
    0.9922   -9.3232   16.5995 O   0  0  0  0  0  0  0  0  0  0  0  0
    1.5232   -7.6869   27.1182 C   0  0  0  0  0  0  0  0  0  0  0  0
    8.6878   -6.6715   27.7262 N   0  0  0  0  0  0  0  0  0  0  0  0
    6.9911   -8.2423   27.1808 C   0  0  0  0  0  0  0  0  0  0  0  0
    3.8436   -7.2758   16.0578 C   0  0  0  0  0  0  0  0  0  0  0  0
    3.1882   -9.7190   17.2566 C   0  0  0  0  0  0  0  0  0  0  0  0
    5.3488   -6.1737   26.5092 C   0  0  0  0  0  0  0  0  0  0  0  0
    7.4567   -6.9464   27.2858 C   0  0  0  0  0  0  0  0  0  0  0  0
    0.1921   -5.7592   27.1123 C   0  0  0  0  0  0  0  0  0  0  0  0
    3.5517   -7.7407   25.9711 C   0  0  0  0  0  0  0  0  0  0  0  0
  1  4  4  0
  1 22  4  0
  2 20  4  0
  2 27  4  0
  3 12  4  0
  3 23  4  0
  4 25  4  0
  4 28  1  0
  5  8  4  0
  5 17  4  0
  6  7  4  0
  6 16  4  0
  7 18  4  0
  8 27  4  0
  9 13  4  0
  9 23  4  0
 10 11  1  0
 11 14  2  0
 11 27  1  0
 12 19  1  0
 12 24  4  0
 13 24  4  0
 15 18  1  0
 16 25  4  0
 16 26  4  0
 17 20  4  0
 17 28  1  0
 18 21  4  0
 21 26  4  0
 22 26  4  0
M  END
$$$$

 Created by Python create_sdf_string function

 28 30  0  0  0  0  0  0  0  0999 V2000
    5.7174   -8.4529   26.7190 C   0  0  0  0  0  0  0  0  0  0  0  0
    0.3974   -7.0711   27.5149 C   0  0  0  0  0  0  0  0  0  0  0  0
    2.5338   -7.6891   16.0102 C   0  0  0  0  0  0  0  0  0  0  0  0
    4.8690   -7.4380   26.4151 C   0  0  0  0  0  0  0  0  0  0  0  0
    2.3021   -5.6726   26.0378 C   0  0  0  0  0  0  0  0  0  0  0  0
    7.0880   -4.6163   27.0010 C   0  0  0  0  0  0  0  0  0  0  0  0
    8.3117   -4.3698   27.4436 C   0  0  0  0  0  0  0  0  0  0  0  0
    1.1339   -5.0515   26.3541 C   0  0  0  0  0  0  0  0  0  0  0  0
    4.8080   -8.0362   16.7101 C   0  0  0  0  0  0  0  0  0  0  0  0
   -1.2173   -3.9294   26.9717 O   0  0  0  0  0  0  0  0  0  0  0  0
   -1.0025   -5.0942   27.4586 C   0  0  0  0  0  0  0  0  0  0  0  0
    2.2474   -8.9123   16.6273 C   0  0  0  0  0  0  0  0  0  0  0  0
    4.4957   -9.2636   17.3041 C   0  0  0  0  0  0  0  0  0  0  0  0
   -1.8070   -5.6086   28.1920 O   0  0  0  0  0  0  0  0  0  0  0  0
   10.4296   -5.1799   28.3140 C   0  0  0  0  0  0  0  0  0  0  0  0
    6.6017   -5.9004   26.9187 C   0  0  0  0  0  0  0  0  0  0  0  0
    2.4761   -6.9940   26.4111 N   0  0  0  0  0  0  0  0  0  0  0  0
    9.1353   -5.4053   27.8239 C   0  0  0  0  0  0  0  0  0  0  0  0
    0.9922   -9.3232   16.5995 O   0  0  0  0  0  0  0  0  0  0  0  0
    1.5232   -7.6869   27.1182 C   0  0  0  0  0  0  0  0  0  0  0  0
    8.6878   -6.6715   27.7262 N   0  0  0  0  0  0  0  0  0  0  0  0
    6.9911   -8.2423   27.1808 C   0  0  0  0  0  0  0  0  0  0  0  0
    3.8436   -7.2758   16.0578 C   0  0  0  0  0  0  0  0  0  0  0  0
    3.1882   -9.7190   17.2566 C   0  0  0  0  0  0  0  0  0  0  0  0
    5.3488   -6.1737   26.5092 C   0  0  0  0  0  0  0  0  0  0  0  0
    7.4567   -6.9464   27.2858 C   0  0  0  0  0  0  0  0  0  0  0  0
    0.1921   -5.7592   27.1123 C   0  0  0  0  0  0  0  0  0  0  0  0
    3.5517   -7.7407   25.9711 C   0  0  0  0  0  0  0  0  0  0  0  0
  1  4  4  0
  1 22  4  0
  2 20  4  0
  2 27  4  0
  3 12  4  0
  3 23  4  0
  4 25  4  0
  4 28  1  0
  5  8  4  0
  5 17  4  0
  6  7  4  0
  6 16  4  0
  7 18  4  0
  8 27  4  0
  9 13  4  0
  9 23  4  0
 10 11  1  0
 11 14  2  0
 11 27  1  0
 12 19  1  0
 12 24  4  0
 13 24  4  0
 15 18  1  0
 16 25  4  0
 16 26  4  0
 17 20  4  0
 17 28  1  0
 18 21  4  0
 21 26  4  0
 22 26  4  0
M  END
$$$$

 Created by Python create_sdf_string function

 28 30  0  0  0  0  0  0  0  0999 V2000
    5.7174   -8.4529   26.7190 C   0  0  0  0  0  0  0  0  0  0  0  0
    0.3974   -7.0711   27.5149 C   0  0  0  0  0  0  0  0  0  0  0  0
    2.5338   -7.6891   16.0102 C   0  0  0  0  0  0  0  0  0  0  0  0
    4.8690   -7.4380   26.4151 C   0  0  0  0  0  0  0  0  0  0  0  0
    2.3021   -5.6726   26.0378 C   0  0  0  0  0  0  0  0  0  0  0  0
    7.0880   -4.6163   27.0010 C   0  0  0  0  0  0  0  0  0  0  0  0
    8.3117   -4.3698   27.4436 C   0  0  0  0  0  0  0  0  0  0  0  0
    1.1339   -5.0515   26.3541 C   0  0  0  0  0  0  0  0  0  0  0  0
    4.8080   -8.0362   16.7101 C   0  0  0  0  0  0  0  0  0  0  0  0
   -1.2173   -3.9294   26.9717 O   0  0  0  0  0  0  0  0  0  0  0  0
   -1.0025   -5.0942   27.4586 C   0  0  0  0  0  0  0  0  0  0  0  0
    2.2474   -8.9123   16.6273 C   0  0  0  0  0  0  0  0  0  0  0  0
    4.4957   -9.2636   17.3041 C   0  0  0  0  0  0  0  0  0  0  0  0
   -1.8070   -5.6086   28.1920 O   0  0  0  0  0  0  0  0  0  0  0  0
   10.4296   -5.1799   28.3140 C   0  0  0  0  0  0  0  0  0  0  0  0
    6.6017   -5.9004   26.9187 C   0  0  0  0  0  0  0  0  0  0  0  0
    2.4761   -6.9940   26.4111 N   0  0  0  0  0  0  0  0  0  0  0  0
    9.1353   -5.4053   27.8239 C   0  0  0  0  0  0  0  0  0  0  0  0
    0.9922   -9.3232   16.5995 O   0  0  0  0  0  0  0  0  0  0  0  0
    1.5232   -7.6869   27.1182 C   0  0  0  0  0  0  0  0  0  0  0  0
    8.6878   -6.6715   27.7262 N   0  0  0  0  0  0  0  0  0  0  0  0
    6.9911   -8.2423   27.1808 C   0  0  0  0  0  0  0  0  0  0  0  0
    3.8436   -7.2758   16.0578 C   0  0  0  0  0  0  0  0  0  0  0  0
    3.1882   -9.7190   17.2566 C   0  0  0  0  0  0  0  0  0  0  0  0
    5.3488   -6.1737   26.5092 C   0  0  0  0  0  0  0  0  0  0  0  0
    7.4567   -6.9464   27.2858 C   0  0  0  0  0  0  0  0  0  0  0  0
    0.1921   -5.7592   27.1123 C   0  0  0  0  0  0  0  0  0  0  0  0
    3.5517   -7.7407   25.9711 C   0  0  0  0  0  0  0  0  0  0  0  0
  1  4  4  0
  1 22  4  0
  2 20  4  0
  2 27  4  0
  3 12  4  0
  3 23  4  0
  4 25  4  0
  4 28  1  0
  5  8  4  0
  5 17  4  0
  6  7  4  0
  6 16  4  0
  7 18  4  0
  8 27  4  0
  9 13  4  0
  9 23  4  0
 10 11  1  0
 11 14  2  0
 11 27  1  0
 12 19  1  0
 12 24  4  0
 13 24  4  0
 15 18  1  0
 16 25  4  0
 16 26  4  0
 17 20  4  0
 17 28  1  0
 18 21  4  0
 21 26  4  0
 22 26  4  0
M  END
$$$$

 Created by Python create_sdf_string function

 28 30  0  0  0  0  0  0  0  0999 V2000
    5.7174   -8.4529   26.7190 C   0  0  0  0  0  0  0  0  0  0  0  0
    0.3974   -7.0711   27.5149 C   0  0  0  0  0  0  0  0  0  0  0  0
    2.5338   -7.6891   16.0102 C   0  0  0  0  0  0  0  0  0  0  0  0
    4.8690   -7.4380   26.4151 C   0  0  0  0  0  0  0  0  0  0  0  0
    2.3021   -5.6726   26.0378 C   0  0  0  0  0  0  0  0  0  0  0  0
    7.0880   -4.6163   27.0010 C   0  0  0  0  0  0  0  0  0  0  0  0
    8.3117   -4.3698   27.4436 C   0  0  0  0  0  0  0  0  0  0  0  0
    1.1339   -5.0515   26.3541 C   0  0  0  0  0  0  0  0  0  0  0  0
    4.8080   -8.0362   16.7101 C   0  0  0  0  0  0  0  0  0  0  0  0
   -1.2173   -3.9294   26.9717 O   0  0  0  0  0  0  0  0  0  0  0  0
   -1.0025   -5.0942   27.4586 C   0  0  0  0  0  0  0  0  0  0  0  0
    2.2474   -8.9123   16.6273 C   0  0  0  0  0  0  0  0  0  0  0  0
    4.4957   -9.2636   17.3041 C   0  0  0  0  0  0  0  0  0  0  0  0
   -1.8070   -5.6086   28.1920 O   0  0  0  0  0  0  0  0  0  0  0  0
   10.4296   -5.1799   28.3140 C   0  0  0  0  0  0  0  0  0  0  0  0
    6.6017   -5.9004   26.9187 C   0  0  0  0  0  0  0  0  0  0  0  0
    2.4761   -6.9940   26.4111 N   0  0  0  0  0  0  0  0  0  0  0  0
    9.1353   -5.4053   27.8239 C   0  0  0  0  0  0  0  0  0  0  0  0
    0.9922   -9.3232   16.5995 O   0  0  0  0  0  0  0  0  0  0  0  0
    1.5232   -7.6869   27.1182 C   0  0  0  0  0  0  0  0  0  0  0  0
    8.6878   -6.6715   27.7262 N   0  0  0  0  0  0  0  0  0  0  0  0
    6.9911   -8.2423   27.1808 C   0  0  0  0  0  0  0  0  0  0  0  0
    3.8436   -7.2758   16.0578 C   0  0  0  0  0  0  0  0  0  0  0  0
    3.1882   -9.7190   17.2566 C   0  0  0  0  0  0  0  0  0  0  0  0
    5.3488   -6.1737   26.5092 C   0  0  0  0  0  0  0  0  0  0  0  0
    7.4567   -6.9464   27.2858 C   0  0  0  0  0  0  0  0  0  0  0  0
    0.1921   -5.7592   27.1123 C   0  0  0  0  0  0  0  0  0  0  0  0
    3.5517   -7.7407   25.9711 C   0  0  0  0  0  0  0  0  0  0  0  0
  1  4  4  0
  1 22  4  0
  2 20  4  0
  2 27  4  0
  3 12  4  0
  3 23  4  0
  4 25  4  0
  4 28  1  0
  5  8  4  0
  5 17  4  0
  6  7  4  0
  6 16  4  0
  7 18  4  0
  8 27  4  0
  9 13  4  0
  9 23  4  0
 10 11  1  0
 11 14  2  0
 11 27  1  0
 12 19  1  0
 12 24  4  0
 13 24  4  0
 15 18  1  0
 16 25  4  0
 16 26  4  0
 17 20  4  0
 17 28  1  0
 18 21  4  0
 21 26  4  0
 22 26  4  0
M  END
$$$$

 Created by Python create_sdf_string function

 28 30  0  0  0  0  0  0  0  0999 V2000
    5.7174   -8.4529   26.7190 C   0  0  0  0  0  0  0  0  0  0  0  0
    0.3974   -7.0711   27.5149 C   0  0  0  0  0  0  0  0  0  0  0  0
    2.5338   -7.6891   16.0102 C   0  0  0  0  0  0  0  0  0  0  0  0
    4.8690   -7.4380   26.4151 C   0  0  0  0  0  0  0  0  0  0  0  0
    2.3021   -5.6726   26.0378 C   0  0  0  0  0  0  0  0  0  0  0  0
    7.0880   -4.6163   27.0010 C   0  0  0  0  0  0  0  0  0  0  0  0
    8.3117   -4.3698   27.4436 C   0  0  0  0  0  0  0  0  0  0  0  0
    1.1339   -5.0515   26.3541 C   0  0  0  0  0  0  0  0  0  0  0  0
    4.8080   -8.0362   16.7101 C   0  0  0  0  0  0  0  0  0  0  0  0
   -1.2173   -3.9294   26.9717 O   0  0  0  0  0  0  0  0  0  0  0  0
   -1.0025   -5.0942   27.4586 C   0  0  0  0  0  0  0  0  0  0  0  0
    2.2474   -8.9123   16.6273 C   0  0  0  0  0  0  0  0  0  0  0  0
    4.4957   -9.2636   17.3041 C   0  0  0  0  0  0  0  0  0  0  0  0
   -1.8070   -5.6086   28.1920 O   0  0  0  0  0  0  0  0  0  0  0  0
   10.4296   -5.1799   28.3140 C   0  0  0  0  0  0  0  0  0  0  0  0
    6.6017   -5.9004   26.9187 C   0  0  0  0  0  0  0  0  0  0  0  0
    2.4761   -6.9940   26.4111 N   0  0  0  0  0  0  0  0  0  0  0  0
    9.1353   -5.4053   27.8239 C   0  0  0  0  0  0  0  0  0  0  0  0
    0.9922   -9.3232   16.5995 O   0  0  0  0  0  0  0  0  0  0  0  0
    1.5232   -7.6869   27.1182 C   0  0  0  0  0  0  0  0  0  0  0  0
    8.6878   -6.6715   27.7262 N   0  0  0  0  0  0  0  0  0  0  0  0
    6.9911   -8.2423   27.1808 C   0  0  0  0  0  0  0  0  0  0  0  0
    3.8436   -7.2758   16.0578 C   0  0  0  0  0  0  0  0  0  0  0  0
    3.1882   -9.7190   17.2566 C   0  0  0  0  0  0  0  0  0  0  0  0
    5.3488   -6.1737   26.5092 C   0  0  0  0  0  0  0  0  0  0  0  0
    7.4567   -6.9464   27.2858 C   0  0  0  0  0  0  0  0  0  0  0  0
    0.1921   -5.7592   27.1123 C   0  0  0  0  0  0  0  0  0  0  0  0
    3.5517   -7.7407   25.9711 C   0  0  0  0  0  0  0  0  0  0  0  0
  1  4  4  0
  1 22  4  0
  2 20  4  0
  2 27  4  0
  3 12  4  0
  3 23  4  0
  4 25  4  0
  4 28  1  0
  5  8  4  0
  5 17  4  0
  6  7  4  0
  6 16  4  0
  7 18  4  0
  8 27  4  0
  9 13  4  0
  9 23  4  0
 10 11  1  0
 11 14  2  0
 11 27  1  0
 12 19  1  0
 12 24  4  0
 13 24  4  0
 15 18  1  0
 16 25  4  0
 16 26  4  0
 17 20  4  0
 17 28  1  0
 18 21  4  0
 21 26  4  0
 22 26  4  0
M  END
$$$$

 Created by Python create_sdf_string function

 28 30  0  0  0  0  0  0  0  0999 V2000
    5.7174   -8.4529   26.7190 C   0  0  0  0  0  0  0  0  0  0  0  0
    0.3974   -7.0711   27.5149 C   0  0  0  0  0  0  0  0  0  0  0  0
    2.5338   -7.6891   16.0102 C   0  0  0  0  0  0  0  0  0  0  0  0
    4.8690   -7.4380   26.4151 C   0  0  0  0  0  0  0  0  0  0  0  0
    2.3021   -5.6726   26.0378 C   0  0  0  0  0  0  0  0  0  0  0  0
    7.0880   -4.6163   27.0010 C   0  0  0  0  0  0  0  0  0  0  0  0
    8.3117   -4.3698   27.4436 C   0  0  0  0  0  0  0  0  0  0  0  0
    1.1339   -5.0515   26.3541 C   0  0  0  0  0  0  0  0  0  0  0  0
    4.8080   -8.0362   16.7101 C   0  0  0  0  0  0  0  0  0  0  0  0
   -1.2173   -3.9294   26.9717 O   0  0  0  0  0  0  0  0  0  0  0  0
   -1.0025   -5.0942   27.4586 C   0  0  0  0  0  0  0  0  0  0  0  0
    2.2474   -8.9123   16.6273 C   0  0  0  0  0  0  0  0  0  0  0  0
    4.4957   -9.2636   17.3041 C   0  0  0  0  0  0  0  0  0  0  0  0
   -1.8070   -5.6086   28.1920 O   0  0  0  0  0  0  0  0  0  0  0  0
   10.4296   -5.1799   28.3140 C   0  0  0  0  0  0  0  0  0  0  0  0
    6.6017   -5.9004   26.9187 C   0  0  0  0  0  0  0  0  0  0  0  0
    2.4761   -6.9940   26.4111 N   0  0  0  0  0  0  0  0  0  0  0  0
    9.1353   -5.4053   27.8239 C   0  0  0  0  0  0  0  0  0  0  0  0
    0.9922   -9.3232   16.5995 O   0  0  0  0  0  0  0  0  0  0  0  0
    1.5232   -7.6869   27.1182 C   0  0  0  0  0  0  0  0  0  0  0  0
    8.6878   -6.6715   27.7262 N   0  0  0  0  0  0  0  0  0  0  0  0
    6.9911   -8.2423   27.1808 C   0  0  0  0  0  0  0  0  0  0  0  0
    3.8436   -7.2758   16.0578 C   0  0  0  0  0  0  0  0  0  0  0  0
    3.1882   -9.7190   17.2566 C   0  0  0  0  0  0  0  0  0  0  0  0
    5.3488   -6.1737   26.5092 C   0  0  0  0  0  0  0  0  0  0  0  0
    7.4567   -6.9464   27.2858 C   0  0  0  0  0  0  0  0  0  0  0  0
    0.1921   -5.7592   27.1123 C   0  0  0  0  0  0  0  0  0  0  0  0
    3.5517   -7.7407   25.9711 C   0  0  0  0  0  0  0  0  0  0  0  0
  1  4  4  0
  1 22  4  0
  2 20  4  0
  2 27  4  0
  3 12  4  0
  3 23  4  0
  4 25  4  0
  4 28  1  0
  5  8  4  0
  5 17  4  0
  6  7  4  0
  6 16  4  0
  7 18  4  0
  8 27  4  0
  9 13  4  0
  9 23  4  0
 10 11  1  0
 11 14  2  0
 11 27  1  0
 12 19  1  0
 12 24  4  0
 13 24  4  0
 15 18  1  0
 16 25  4  0
 16 26  4  0
 17 20  4  0
 17 28  1  0
 18 21  4  0
 21 26  4  0
 22 26  4  0
M  END
$$$$

 Created by Python create_sdf_string function

 28 30  0  0  0  0  0  0  0  0999 V2000
    5.7174   -8.4529   26.7190 C   0  0  0  0  0  0  0  0  0  0  0  0
    0.3974   -7.0711   27.5149 C   0  0  0  0  0  0  0  0  0  0  0  0
    2.5338   -7.6891   16.0102 C   0  0  0  0  0  0  0  0  0  0  0  0
    4.8690   -7.4380   26.4151 C   0  0  0  0  0  0  0  0  0  0  0  0
    2.3021   -5.6726   26.0378 C   0  0  0  0  0  0  0  0  0  0  0  0
    7.0880   -4.6163   27.0010 C   0  0  0  0  0  0  0  0  0  0  0  0
    8.3117   -4.3698   27.4436 C   0  0  0  0  0  0  0  0  0  0  0  0
    1.1339   -5.0515   26.3541 C   0  0  0  0  0  0  0  0  0  0  0  0
    4.8080   -8.0362   16.7101 C   0  0  0  0  0  0  0  0  0  0  0  0
   -1.2173   -3.9294   26.9717 O   0  0  0  0  0  0  0  0  0  0  0  0
   -1.0025   -5.0942   27.4586 C   0  0  0  0  0  0  0  0  0  0  0  0
    2.2474   -8.9123   16.6273 C   0  0  0  0  0  0  0  0  0  0  0  0
    4.4957   -9.2636   17.3041 C   0  0  0  0  0  0  0  0  0  0  0  0
   -1.8070   -5.6086   28.1920 O   0  0  0  0  0  0  0  0  0  0  0  0
   10.4296   -5.1799   28.3140 C   0  0  0  0  0  0  0  0  0  0  0  0
    6.6017   -5.9004   26.9187 C   0  0  0  0  0  0  0  0  0  0  0  0
    2.4761   -6.9940   26.4111 N   0  0  0  0  0  0  0  0  0  0  0  0
    9.1353   -5.4053   27.8239 C   0  0  0  0  0  0  0  0  0  0  0  0
    0.9922   -9.3232   16.5995 O   0  0  0  0  0  0  0  0  0  0  0  0
    1.5232   -7.6869   27.1182 C   0  0  0  0  0  0  0  0  0  0  0  0
    8.6878   -6.6715   27.7262 N   0  0  0  0  0  0  0  0  0  0  0  0
    6.9911   -8.2423   27.1808 C   0  0  0  0  0  0  0  0  0  0  0  0
    3.8436   -7.2758   16.0578 C   0  0  0  0  0  0  0  0  0  0  0  0
    3.1882   -9.7190   17.2566 C   0  0  0  0  0  0  0  0  0  0  0  0
    5.3488   -6.1737   26.5092 C   0  0  0  0  0  0  0  0  0  0  0  0
    7.4567   -6.9464   27.2858 C   0  0  0  0  0  0  0  0  0  0  0  0
    0.1921   -5.7592   27.1123 C   0  0  0  0  0  0  0  0  0  0  0  0
    3.5517   -7.7407   25.9711 C   0  0  0  0  0  0  0  0  0  0  0  0
  1  4  4  0
  1 22  4  0
  2 20  4  0
  2 27  4  0
  3 12  4  0
  3 23  4  0
  4 25  4  0
  4 28  1  0
  5  8  4  0
  5 17  4  0
  6  7  4  0
  6 16  4  0
  7 18  4  0
  8 27  4  0
  9 13  4  0
  9 23  4  0
 10 11  1  0
 11 14  2  0
 11 27  1  0
 12 19  1  0
 12 24  4  0
 13 24  4  0
 15 18  1  0
 16 25  4  0
 16 26  4  0
 17 20  4  0
 17 28  1  0
 18 21  4  0
 21 26  4  0
 22 26  4  0
M  END
$$$$

 Created by Python create_sdf_string function

 28 30  0  0  0  0  0  0  0  0999 V2000
    5.7174   -8.4529   26.7190 C   0  0  0  0  0  0  0  0  0  0  0  0
    0.3974   -7.0711   27.5149 C   0  0  0  0  0  0  0  0  0  0  0  0
    2.5338   -7.6891   16.0102 C   0  0  0  0  0  0  0  0  0  0  0  0
    4.8690   -7.4380   26.4151 C   0  0  0  0  0  0  0  0  0  0  0  0
    2.3021   -5.6726   26.0378 C   0  0  0  0  0  0  0  0  0  0  0  0
    7.0880   -4.6163   27.0010 C   0  0  0  0  0  0  0  0  0  0  0  0
    8.3117   -4.3698   27.4436 C   0  0  0  0  0  0  0  0  0  0  0  0
    1.1339   -5.0515   26.3541 C   0  0  0  0  0  0  0  0  0  0  0  0
    4.8080   -8.0362   16.7101 C   0  0  0  0  0  0  0  0  0  0  0  0
   -1.2173   -3.9294   26.9717 O   0  0  0  0  0  0  0  0  0  0  0  0
   -1.0025   -5.0942   27.4586 C   0  0  0  0  0  0  0  0  0  0  0  0
    2.2474   -8.9123   16.6273 C   0  0  0  0  0  0  0  0  0  0  0  0
    4.4957   -9.2636   17.3041 C   0  0  0  0  0  0  0  0  0  0  0  0
   -1.8070   -5.6086   28.1920 O   0  0  0  0  0  0  0  0  0  0  0  0
   10.4296   -5.1799   28.3140 C   0  0  0  0  0  0  0  0  0  0  0  0
    6.6017   -5.9004   26.9187 C   0  0  0  0  0  0  0  0  0  0  0  0
    2.4761   -6.9940   26.4111 N   0  0  0  0  0  0  0  0  0  0  0  0
    9.1353   -5.4053   27.8239 C   0  0  0  0  0  0  0  0  0  0  0  0
    0.9922   -9.3232   16.5995 O   0  0  0  0  0  0  0  0  0  0  0  0
    1.5232   -7.6869   27.1182 C   0  0  0  0  0  0  0  0  0  0  0  0
    8.6878   -6.6715   27.7262 N   0  0  0  0  0  0  0  0  0  0  0  0
    6.9911   -8.2423   27.1808 C   0  0  0  0  0  0  0  0  0  0  0  0
    3.8436   -7.2758   16.0578 C   0  0  0  0  0  0  0  0  0  0  0  0
    3.1882   -9.7190   17.2566 C   0  0  0  0  0  0  0  0  0  0  0  0
    5.3488   -6.1737   26.5092 C   0  0  0  0  0  0  0  0  0  0  0  0
    7.4567   -6.9464   27.2858 C   0  0  0  0  0  0  0  0  0  0  0  0
    0.1921   -5.7592   27.1123 C   0  0  0  0  0  0  0  0  0  0  0  0
    3.5517   -7.7407   25.9711 C   0  0  0  0  0  0  0  0  0  0  0  0
  1  4  4  0
  1 22  4  0
  2 20  4  0
  2 27  4  0
  3 12  4  0
  3 23  4  0
  4 25  4  0
  4 28  1  0
  5  8  4  0
  5 17  4  0
  6  7  4  0
  6 16  4  0
  7 18  4  0
  8 27  4  0
  9 13  4  0
  9 23  4  0
 10 11  1  0
 11 14  2  0
 11 27  1  0
 12 19  1  0
 12 24  4  0
 13 24  4  0
 15 18  1  0
 16 25  4  0
 16 26  4  0
 17 20  4  0
 17 28  1  0
 18 21  4  0
 21 26  4  0
 22 26  4  0
M  END
$$$$

 Created by Python create_sdf_string function

 28 30  0  0  0  0  0  0  0  0999 V2000
    5.7174   -8.4529   26.7190 C   0  0  0  0  0  0  0  0  0  0  0  0
    0.3974   -7.0711   27.5149 C   0  0  0  0  0  0  0  0  0  0  0  0
    2.5338   -7.6891   16.0102 C   0  0  0  0  0  0  0  0  0  0  0  0
    4.8690   -7.4380   26.4151 C   0  0  0  0  0  0  0  0  0  0  0  0
    2.3021   -5.6726   26.0378 C   0  0  0  0  0  0  0  0  0  0  0  0
    7.0880   -4.6163   27.0010 C   0  0  0  0  0  0  0  0  0  0  0  0
    8.3117   -4.3698   27.4436 C   0  0  0  0  0  0  0  0  0  0  0  0
    1.1339   -5.0515   26.3541 C   0  0  0  0  0  0  0  0  0  0  0  0
    4.8080   -8.0362   16.7101 C   0  0  0  0  0  0  0  0  0  0  0  0
   -1.2173   -3.9294   26.9717 O   0  0  0  0  0  0  0  0  0  0  0  0
   -1.0025   -5.0942   27.4586 C   0  0  0  0  0  0  0  0  0  0  0  0
    2.2474   -8.9123   16.6273 C   0  0  0  0  0  0  0  0  0  0  0  0
    4.4957   -9.2636   17.3041 C   0  0  0  0  0  0  0  0  0  0  0  0
   -1.8070   -5.6086   28.1920 O   0  0  0  0  0  0  0  0  0  0  0  0
   10.4296   -5.1799   28.3140 C   0  0  0  0  0  0  0  0  0  0  0  0
    6.6017   -5.9004   26.9187 C   0  0  0  0  0  0  0  0  0  0  0  0
    2.4761   -6.9940   26.4111 N   0  0  0  0  0  0  0  0  0  0  0  0
    9.1353   -5.4053   27.8239 C   0  0  0  0  0  0  0  0  0  0  0  0
    0.9922   -9.3232   16.5995 O   0  0  0  0  0  0  0  0  0  0  0  0
    1.5232   -7.6869   27.1182 C   0  0  0  0  0  0  0  0  0  0  0  0
    8.6878   -6.6715   27.7262 N   0  0  0  0  0  0  0  0  0  0  0  0
    6.9911   -8.2423   27.1808 C   0  0  0  0  0  0  0  0  0  0  0  0
    3.8436   -7.2758   16.0578 C   0  0  0  0  0  0  0  0  0  0  0  0
    3.1882   -9.7190   17.2566 C   0  0  0  0  0  0  0  0  0  0  0  0
    5.3488   -6.1737   26.5092 C   0  0  0  0  0  0  0  0  0  0  0  0
    7.4567   -6.9464   27.2858 C   0  0  0  0  0  0  0  0  0  0  0  0
    0.1921   -5.7592   27.1123 C   0  0  0  0  0  0  0  0  0  0  0  0
    3.5517   -7.7407   25.9711 C   0  0  0  0  0  0  0  0  0  0  0  0
  1  4  4  0
  1 22  4  0
  2 20  4  0
  2 27  4  0
  3 12  4  0
  3 23  4  0
  4 25  4  0
  4 28  1  0
  5  8  4  0
  5 17  4  0
  6  7  4  0
  6 16  4  0
  7 18  4  0
  8 27  4  0
  9 13  4  0
  9 23  4  0
 10 11  1  0
 11 14  2  0
 11 27  1  0
 12 19  1  0
 12 24  4  0
 13 24  4  0
 15 18  1  0
 16 25  4  0
 16 26  4  0
 17 20  4  0
 17 28  1  0
 18 21  4  0
 21 26  4  0
 22 26  4  0
M  END
$$$$

 Created by Python create_sdf_string function

 28 30  0  0  0  0  0  0  0  0999 V2000
    5.7174   -8.4529   26.7190 C   0  0  0  0  0  0  0  0  0  0  0  0
    0.3974   -7.0711   27.5149 C   0  0  0  0  0  0  0  0  0  0  0  0
    2.5338   -7.6891   16.0102 C   0  0  0  0  0  0  0  0  0  0  0  0
    4.8690   -7.4380   26.4151 C   0  0  0  0  0  0  0  0  0  0  0  0
    2.3021   -5.6726   26.0378 C   0  0  0  0  0  0  0  0  0  0  0  0
    7.0880   -4.6163   27.0010 C   0  0  0  0  0  0  0  0  0  0  0  0
    8.3117   -4.3698   27.4436 C   0  0  0  0  0  0  0  0  0  0  0  0
    1.1339   -5.0515   26.3541 C   0  0  0  0  0  0  0  0  0  0  0  0
    4.8080   -8.0362   16.7101 C   0  0  0  0  0  0  0  0  0  0  0  0
   -1.2173   -3.9294   26.9717 O   0  0  0  0  0  0  0  0  0  0  0  0
   -1.0025   -5.0942   27.4586 C   0  0  0  0  0  0  0  0  0  0  0  0
    2.2474   -8.9123   16.6273 C   0  0  0  0  0  0  0  0  0  0  0  0
    4.4957   -9.2636   17.3041 C   0  0  0  0  0  0  0  0  0  0  0  0
   -1.8070   -5.6086   28.1920 O   0  0  0  0  0  0  0  0  0  0  0  0
   10.4296   -5.1799   28.3140 C   0  0  0  0  0  0  0  0  0  0  0  0
    6.6017   -5.9004   26.9187 C   0  0  0  0  0  0  0  0  0  0  0  0
    2.4761   -6.9940   26.4111 N   0  0  0  0  0  0  0  0  0  0  0  0
    9.1353   -5.4053   27.8239 C   0  0  0  0  0  0  0  0  0  0  0  0
    0.9922   -9.3232   16.5995 O   0  0  0  0  0  0  0  0  0  0  0  0
    1.5232   -7.6869   27.1182 C   0  0  0  0  0  0  0  0  0  0  0  0
    8.6878   -6.6715   27.7262 N   0  0  0  0  0  0  0  0  0  0  0  0
    6.9911   -8.2423   27.1808 C   0  0  0  0  0  0  0  0  0  0  0  0
    3.8436   -7.2758   16.0578 C   0  0  0  0  0  0  0  0  0  0  0  0
    3.1882   -9.7190   17.2566 C   0  0  0  0  0  0  0  0  0  0  0  0
    5.3488   -6.1737   26.5092 C   0  0  0  0  0  0  0  0  0  0  0  0
    7.4567   -6.9464   27.2858 C   0  0  0  0  0  0  0  0  0  0  0  0
    0.1921   -5.7592   27.1123 C   0  0  0  0  0  0  0  0  0  0  0  0
    3.5517   -7.7407   25.9711 C   0  0  0  0  0  0  0  0  0  0  0  0
  1  4  4  0
  1 22  4  0
  2 20  4  0
  2 27  4  0
  3 12  4  0
  3 23  4  0
  4 25  4  0
  4 28  1  0
  5  8  4  0
  5 17  4  0
  6  7  4  0
  6 16  4  0
  7 18  4  0
  8 27  4  0
  9 13  4  0
  9 23  4  0
 10 11  1  0
 11 14  2  0
 11 27  1  0
 12 19  1  0
 12 24  4  0
 13 24  4  0
 15 18  1  0
 16 25  4  0
 16 26  4  0
 17 20  4  0
 17 28  1  0
 18 21  4  0
 21 26  4  0
 22 26  4  0
M  END
$$$$

 Created by Python create_sdf_string function

 28 30  0  0  0  0  0  0  0  0999 V2000
    5.7174   -8.4529   26.7190 C   0  0  0  0  0  0  0  0  0  0  0  0
    0.3974   -7.0711   27.5149 C   0  0  0  0  0  0  0  0  0  0  0  0
    2.5338   -7.6891   16.0102 C   0  0  0  0  0  0  0  0  0  0  0  0
    4.8690   -7.4380   26.4151 C   0  0  0  0  0  0  0  0  0  0  0  0
    2.3021   -5.6726   26.0378 C   0  0  0  0  0  0  0  0  0  0  0  0
    7.0880   -4.6163   27.0010 C   0  0  0  0  0  0  0  0  0  0  0  0
    8.3117   -4.3698   27.4436 C   0  0  0  0  0  0  0  0  0  0  0  0
    1.1339   -5.0515   26.3541 C   0  0  0  0  0  0  0  0  0  0  0  0
    4.8080   -8.0362   16.7101 C   0  0  0  0  0  0  0  0  0  0  0  0
   -1.2173   -3.9294   26.9717 O   0  0  0  0  0  0  0  0  0  0  0  0
   -1.0025   -5.0942   27.4586 C   0  0  0  0  0  0  0  0  0  0  0  0
    2.2474   -8.9123   16.6273 C   0  0  0  0  0  0  0  0  0  0  0  0
    4.4957   -9.2636   17.3041 C   0  0  0  0  0  0  0  0  0  0  0  0
   -1.8070   -5.6086   28.1920 O   0  0  0  0  0  0  0  0  0  0  0  0
   10.4296   -5.1799   28.3140 C   0  0  0  0  0  0  0  0  0  0  0  0
    6.6017   -5.9004   26.9187 C   0  0  0  0  0  0  0  0  0  0  0  0
    2.4761   -6.9940   26.4111 N   0  0  0  0  0  0  0  0  0  0  0  0
    9.1353   -5.4053   27.8239 C   0  0  0  0  0  0  0  0  0  0  0  0
    0.9922   -9.3232   16.5995 O   0  0  0  0  0  0  0  0  0  0  0  0
    1.5232   -7.6869   27.1182 C   0  0  0  0  0  0  0  0  0  0  0  0
    8.6878   -6.6715   27.7262 N   0  0  0  0  0  0  0  0  0  0  0  0
    6.9911   -8.2423   27.1808 C   0  0  0  0  0  0  0  0  0  0  0  0
    3.8436   -7.2758   16.0578 C   0  0  0  0  0  0  0  0  0  0  0  0
    3.1882   -9.7190   17.2566 C   0  0  0  0  0  0  0  0  0  0  0  0
    5.3488   -6.1737   26.5092 C   0  0  0  0  0  0  0  0  0  0  0  0
    7.4567   -6.9464   27.2858 C   0  0  0  0  0  0  0  0  0  0  0  0
    0.1921   -5.7592   27.1123 C   0  0  0  0  0  0  0  0  0  0  0  0
    3.5517   -7.7407   25.9711 C   0  0  0  0  0  0  0  0  0  0  0  0
  1  4  4  0
  1 22  4  0
  2 20  4  0
  2 27  4  0
  3 12  4  0
  3 23  4  0
  4 25  4  0
  4 28  1  0
  5  8  4  0
  5 17  4  0
  6  7  4  0
  6 16  4  0
  7 18  4  0
  8 27  4  0
  9 13  4  0
  9 23  4  0
 10 11  1  0
 11 14  2  0
 11 27  1  0
 12 19  1  0
 12 24  4  0
 13 24  4  0
 15 18  1  0
 16 25  4  0
 16 26  4  0
 17 20  4  0
 17 28  1  0
 18 21  4  0
 21 26  4  0
 22 26  4  0
M  END
$$$$

 Created by Python create_sdf_string function

 28 30  0  0  0  0  0  0  0  0999 V2000
    5.7174   -8.4529   26.7190 C   0  0  0  0  0  0  0  0  0  0  0  0
    0.3974   -7.0711   27.5149 C   0  0  0  0  0  0  0  0  0  0  0  0
    2.5338   -7.6891   16.0102 C   0  0  0  0  0  0  0  0  0  0  0  0
    4.8690   -7.4380   26.4151 C   0  0  0  0  0  0  0  0  0  0  0  0
    2.3021   -5.6726   26.0378 C   0  0  0  0  0  0  0  0  0  0  0  0
    7.0880   -4.6163   27.0010 C   0  0  0  0  0  0  0  0  0  0  0  0
    8.3117   -4.3698   27.4436 C   0  0  0  0  0  0  0  0  0  0  0  0
    1.1339   -5.0515   26.3541 C   0  0  0  0  0  0  0  0  0  0  0  0
    4.8080   -8.0362   16.7101 C   0  0  0  0  0  0  0  0  0  0  0  0
   -1.2173   -3.9294   26.9717 O   0  0  0  0  0  0  0  0  0  0  0  0
   -1.0025   -5.0942   27.4586 C   0  0  0  0  0  0  0  0  0  0  0  0
    2.2474   -8.9123   16.6273 C   0  0  0  0  0  0  0  0  0  0  0  0
    4.4957   -9.2636   17.3041 C   0  0  0  0  0  0  0  0  0  0  0  0
   -1.8070   -5.6086   28.1920 O   0  0  0  0  0  0  0  0  0  0  0  0
   10.4296   -5.1799   28.3140 C   0  0  0  0  0  0  0  0  0  0  0  0
    6.6017   -5.9004   26.9187 C   0  0  0  0  0  0  0  0  0  0  0  0
    2.4761   -6.9940   26.4111 N   0  0  0  0  0  0  0  0  0  0  0  0
    9.1353   -5.4053   27.8239 C   0  0  0  0  0  0  0  0  0  0  0  0
    0.9922   -9.3232   16.5995 O   0  0  0  0  0  0  0  0  0  0  0  0
    1.5232   -7.6869   27.1182 C   0  0  0  0  0  0  0  0  0  0  0  0
    8.6878   -6.6715   27.7262 N   0  0  0  0  0  0  0  0  0  0  0  0
    6.9911   -8.2423   27.1808 C   0  0  0  0  0  0  0  0  0  0  0  0
    3.8436   -7.2758   16.0578 C   0  0  0  0  0  0  0  0  0  0  0  0
    3.1882   -9.7190   17.2566 C   0  0  0  0  0  0  0  0  0  0  0  0
    5.3488   -6.1737   26.5092 C   0  0  0  0  0  0  0  0  0  0  0  0
    7.4567   -6.9464   27.2858 C   0  0  0  0  0  0  0  0  0  0  0  0
    0.1921   -5.7592   27.1123 C   0  0  0  0  0  0  0  0  0  0  0  0
    3.5517   -7.7407   25.9711 C   0  0  0  0  0  0  0  0  0  0  0  0
  1  4  4  0
  1 22  4  0
  2 20  4  0
  2 27  4  0
  3 12  4  0
  3 23  4  0
  4 25  4  0
  4 28  1  0
  5  8  4  0
  5 17  4  0
  6  7  4  0
  6 16  4  0
  7 18  4  0
  8 27  4  0
  9 13  4  0
  9 23  4  0
 10 11  1  0
 11 14  2  0
 11 27  1  0
 12 19  1  0
 12 24  4  0
 13 24  4  0
 15 18  1  0
 16 25  4  0
 16 26  4  0
 17 20  4  0
 17 28  1  0
 18 21  4  0
 21 26  4  0
 22 26  4  0
M  END
$$$$

 Created by Python create_sdf_string function

 28 30  0  0  0  0  0  0  0  0999 V2000
    5.7174   -8.4529   26.7190 C   0  0  0  0  0  0  0  0  0  0  0  0
    0.3974   -7.0711   27.5149 C   0  0  0  0  0  0  0  0  0  0  0  0
    2.5338   -7.6891   16.0102 C   0  0  0  0  0  0  0  0  0  0  0  0
    4.8690   -7.4380   26.4151 C   0  0  0  0  0  0  0  0  0  0  0  0
    2.3021   -5.6726   26.0378 C   0  0  0  0  0  0  0  0  0  0  0  0
    7.0880   -4.6163   27.0010 C   0  0  0  0  0  0  0  0  0  0  0  0
    8.3117   -4.3698   27.4436 C   0  0  0  0  0  0  0  0  0  0  0  0
    1.1339   -5.0515   26.3541 C   0  0  0  0  0  0  0  0  0  0  0  0
    4.8080   -8.0362   16.7101 C   0  0  0  0  0  0  0  0  0  0  0  0
   -1.2173   -3.9294   26.9717 O   0  0  0  0  0  0  0  0  0  0  0  0
   -1.0025   -5.0942   27.4586 C   0  0  0  0  0  0  0  0  0  0  0  0
    2.2474   -8.9123   16.6273 C   0  0  0  0  0  0  0  0  0  0  0  0
    4.4957   -9.2636   17.3041 C   0  0  0  0  0  0  0  0  0  0  0  0
   -1.8070   -5.6086   28.1920 O   0  0  0  0  0  0  0  0  0  0  0  0
   10.4296   -5.1799   28.3140 C   0  0  0  0  0  0  0  0  0  0  0  0
    6.6017   -5.9004   26.9187 C   0  0  0  0  0  0  0  0  0  0  0  0
    2.4761   -6.9940   26.4111 N   0  0  0  0  0  0  0  0  0  0  0  0
    9.1353   -5.4053   27.8239 C   0  0  0  0  0  0  0  0  0  0  0  0
    0.9922   -9.3232   16.5995 O   0  0  0  0  0  0  0  0  0  0  0  0
    1.5232   -7.6869   27.1182 C   0  0  0  0  0  0  0  0  0  0  0  0
    8.6878   -6.6715   27.7262 N   0  0  0  0  0  0  0  0  0  0  0  0
    6.9911   -8.2423   27.1808 C   0  0  0  0  0  0  0  0  0  0  0  0
    3.8436   -7.2758   16.0578 C   0  0  0  0  0  0  0  0  0  0  0  0
    3.1882   -9.7190   17.2566 C   0  0  0  0  0  0  0  0  0  0  0  0
    5.3488   -6.1737   26.5092 C   0  0  0  0  0  0  0  0  0  0  0  0
    7.4567   -6.9464   27.2858 C   0  0  0  0  0  0  0  0  0  0  0  0
    0.1921   -5.7592   27.1123 C   0  0  0  0  0  0  0  0  0  0  0  0
    3.5517   -7.7407   25.9711 C   0  0  0  0  0  0  0  0  0  0  0  0
  1  4  4  0
  1 22  4  0
  2 20  4  0
  2 27  4  0
  3 12  4  0
  3 23  4  0
  4 25  4  0
  4 28  1  0
  5  8  4  0
  5 17  4  0
  6  7  4  0
  6 16  4  0
  7 18  4  0
  8 27  4  0
  9 13  4  0
  9 23  4  0
 10 11  1  0
 11 14  2  0
 11 27  1  0
 12 19  1  0
 12 24  4  0
 13 24  4  0
 15 18  1  0
 16 25  4  0
 16 26  4  0
 17 20  4  0
 17 28  1  0
 18 21  4  0
 21 26  4  0
 22 26  4  0
M  END
$$$$

 Created by Python create_sdf_string function

 28 30  0  0  0  0  0  0  0  0999 V2000
    5.7174   -8.4529   26.7190 C   0  0  0  0  0  0  0  0  0  0  0  0
    0.3974   -7.0711   27.5149 C   0  0  0  0  0  0  0  0  0  0  0  0
    2.5338   -7.6891   16.0102 C   0  0  0  0  0  0  0  0  0  0  0  0
    4.8690   -7.4380   26.4151 C   0  0  0  0  0  0  0  0  0  0  0  0
    2.3021   -5.6726   26.0378 C   0  0  0  0  0  0  0  0  0  0  0  0
    7.0880   -4.6163   27.0010 C   0  0  0  0  0  0  0  0  0  0  0  0
    8.3117   -4.3698   27.4436 C   0  0  0  0  0  0  0  0  0  0  0  0
    1.1339   -5.0515   26.3541 C   0  0  0  0  0  0  0  0  0  0  0  0
    4.8080   -8.0362   16.7101 C   0  0  0  0  0  0  0  0  0  0  0  0
   -1.2173   -3.9294   26.9717 O   0  0  0  0  0  0  0  0  0  0  0  0
   -1.0025   -5.0942   27.4586 C   0  0  0  0  0  0  0  0  0  0  0  0
    2.2474   -8.9123   16.6273 C   0  0  0  0  0  0  0  0  0  0  0  0
    4.4957   -9.2636   17.3041 C   0  0  0  0  0  0  0  0  0  0  0  0
   -1.8070   -5.6086   28.1920 O   0  0  0  0  0  0  0  0  0  0  0  0
   10.4296   -5.1799   28.3140 C   0  0  0  0  0  0  0  0  0  0  0  0
    6.6017   -5.9004   26.9187 C   0  0  0  0  0  0  0  0  0  0  0  0
    2.4761   -6.9940   26.4111 N   0  0  0  0  0  0  0  0  0  0  0  0
    9.1353   -5.4053   27.8239 C   0  0  0  0  0  0  0  0  0  0  0  0
    0.9922   -9.3232   16.5995 O   0  0  0  0  0  0  0  0  0  0  0  0
    1.5232   -7.6869   27.1182 C   0  0  0  0  0  0  0  0  0  0  0  0
    8.6878   -6.6715   27.7262 N   0  0  0  0  0  0  0  0  0  0  0  0
    6.9911   -8.2423   27.1808 C   0  0  0  0  0  0  0  0  0  0  0  0
    3.8436   -7.2758   16.0578 C   0  0  0  0  0  0  0  0  0  0  0  0
    3.1882   -9.7190   17.2566 C   0  0  0  0  0  0  0  0  0  0  0  0
    5.3488   -6.1737   26.5092 C   0  0  0  0  0  0  0  0  0  0  0  0
    7.4567   -6.9464   27.2858 C   0  0  0  0  0  0  0  0  0  0  0  0
    0.1921   -5.7592   27.1123 C   0  0  0  0  0  0  0  0  0  0  0  0
    3.5517   -7.7407   25.9711 C   0  0  0  0  0  0  0  0  0  0  0  0
  1  4  4  0
  1 22  4  0
  2 20  4  0
  2 27  4  0
  3 12  4  0
  3 23  4  0
  4 25  4  0
  4 28  1  0
  5  8  4  0
  5 17  4  0
  6  7  4  0
  6 16  4  0
  7 18  4  0
  8 27  4  0
  9 13  4  0
  9 23  4  0
 10 11  1  0
 11 14  2  0
 11 27  1  0
 12 19  1  0
 12 24  4  0
 13 24  4  0
 15 18  1  0
 16 25  4  0
 16 26  4  0
 17 20  4  0
 17 28  1  0
 18 21  4  0
 21 26  4  0
 22 26  4  0
M  END
$$$$

 Created by Python create_sdf_string function

 28 30  0  0  0  0  0  0  0  0999 V2000
    5.7174   -8.4529   26.7190 C   0  0  0  0  0  0  0  0  0  0  0  0
    0.3974   -7.0711   27.5149 C   0  0  0  0  0  0  0  0  0  0  0  0
    2.5338   -7.6891   16.0102 C   0  0  0  0  0  0  0  0  0  0  0  0
    4.8690   -7.4380   26.4151 C   0  0  0  0  0  0  0  0  0  0  0  0
    2.3021   -5.6726   26.0378 C   0  0  0  0  0  0  0  0  0  0  0  0
    7.0880   -4.6163   27.0010 C   0  0  0  0  0  0  0  0  0  0  0  0
    8.3117   -4.3698   27.4436 C   0  0  0  0  0  0  0  0  0  0  0  0
    1.1339   -5.0515   26.3541 C   0  0  0  0  0  0  0  0  0  0  0  0
    4.8080   -8.0362   16.7101 C   0  0  0  0  0  0  0  0  0  0  0  0
   -1.2173   -3.9294   26.9717 O   0  0  0  0  0  0  0  0  0  0  0  0
   -1.0025   -5.0942   27.4586 C   0  0  0  0  0  0  0  0  0  0  0  0
    2.2474   -8.9123   16.6273 C   0  0  0  0  0  0  0  0  0  0  0  0
    4.4957   -9.2636   17.3041 C   0  0  0  0  0  0  0  0  0  0  0  0
   -1.8070   -5.6086   28.1920 O   0  0  0  0  0  0  0  0  0  0  0  0
   10.4296   -5.1799   28.3140 C   0  0  0  0  0  0  0  0  0  0  0  0
    6.6017   -5.9004   26.9187 C   0  0  0  0  0  0  0  0  0  0  0  0
    2.4761   -6.9940   26.4111 N   0  0  0  0  0  0  0  0  0  0  0  0
    9.1353   -5.4053   27.8239 C   0  0  0  0  0  0  0  0  0  0  0  0
    0.9922   -9.3232   16.5995 O   0  0  0  0  0  0  0  0  0  0  0  0
    1.5232   -7.6869   27.1182 C   0  0  0  0  0  0  0  0  0  0  0  0
    8.6878   -6.6715   27.7262 N   0  0  0  0  0  0  0  0  0  0  0  0
    6.9911   -8.2423   27.1808 C   0  0  0  0  0  0  0  0  0  0  0  0
    3.8436   -7.2758   16.0578 C   0  0  0  0  0  0  0  0  0  0  0  0
    3.1882   -9.7190   17.2566 C   0  0  0  0  0  0  0  0  0  0  0  0
    5.3488   -6.1737   26.5092 C   0  0  0  0  0  0  0  0  0  0  0  0
    7.4567   -6.9464   27.2858 C   0  0  0  0  0  0  0  0  0  0  0  0
    0.1921   -5.7592   27.1123 C   0  0  0  0  0  0  0  0  0  0  0  0
    3.5517   -7.7407   25.9711 C   0  0  0  0  0  0  0  0  0  0  0  0
  1  4  4  0
  1 22  4  0
  2 20  4  0
  2 27  4  0
  3 12  4  0
  3 23  4  0
  4 25  4  0
  4 28  1  0
  5  8  4  0
  5 17  4  0
  6  7  4  0
  6 16  4  0
  7 18  4  0
  8 27  4  0
  9 13  4  0
  9 23  4  0
 10 11  1  0
 11 14  2  0
 11 27  1  0
 12 19  1  0
 12 24  4  0
 13 24  4  0
 15 18  1  0
 16 25  4  0
 16 26  4  0
 17 20  4  0
 17 28  1  0
 18 21  4  0
 21 26  4  0
 22 26  4  0
M  END
$$$$

 Created by Python create_sdf_string function

 28 30  0  0  0  0  0  0  0  0999 V2000
    5.7174   -8.4529   26.7190 C   0  0  0  0  0  0  0  0  0  0  0  0
    0.3974   -7.0711   27.5149 C   0  0  0  0  0  0  0  0  0  0  0  0
    2.5338   -7.6891   16.0102 C   0  0  0  0  0  0  0  0  0  0  0  0
    4.8690   -7.4380   26.4151 C   0  0  0  0  0  0  0  0  0  0  0  0
    2.3021   -5.6726   26.0378 C   0  0  0  0  0  0  0  0  0  0  0  0
    7.0880   -4.6163   27.0010 C   0  0  0  0  0  0  0  0  0  0  0  0
    8.3117   -4.3698   27.4436 C   0  0  0  0  0  0  0  0  0  0  0  0
    1.1339   -5.0515   26.3541 C   0  0  0  0  0  0  0  0  0  0  0  0
    4.8080   -8.0362   16.7101 C   0  0  0  0  0  0  0  0  0  0  0  0
   -1.2173   -3.9294   26.9717 O   0  0  0  0  0  0  0  0  0  0  0  0
   -1.0025   -5.0942   27.4586 C   0  0  0  0  0  0  0  0  0  0  0  0
    2.2474   -8.9123   16.6273 C   0  0  0  0  0  0  0  0  0  0  0  0
    4.4957   -9.2636   17.3041 C   0  0  0  0  0  0  0  0  0  0  0  0
   -1.8070   -5.6086   28.1920 O   0  0  0  0  0  0  0  0  0  0  0  0
   10.4296   -5.1799   28.3140 C   0  0  0  0  0  0  0  0  0  0  0  0
    6.6017   -5.9004   26.9187 C   0  0  0  0  0  0  0  0  0  0  0  0
    2.4761   -6.9940   26.4111 N   0  0  0  0  0  0  0  0  0  0  0  0
    9.1353   -5.4053   27.8239 C   0  0  0  0  0  0  0  0  0  0  0  0
    0.9922   -9.3232   16.5995 O   0  0  0  0  0  0  0  0  0  0  0  0
    1.5232   -7.6869   27.1182 C   0  0  0  0  0  0  0  0  0  0  0  0
    8.6878   -6.6715   27.7262 N   0  0  0  0  0  0  0  0  0  0  0  0
    6.9911   -8.2423   27.1808 C   0  0  0  0  0  0  0  0  0  0  0  0
    3.8436   -7.2758   16.0578 C   0  0  0  0  0  0  0  0  0  0  0  0
    3.1882   -9.7190   17.2566 C   0  0  0  0  0  0  0  0  0  0  0  0
    5.3488   -6.1737   26.5092 C   0  0  0  0  0  0  0  0  0  0  0  0
    7.4567   -6.9464   27.2858 C   0  0  0  0  0  0  0  0  0  0  0  0
    0.1921   -5.7592   27.1123 C   0  0  0  0  0  0  0  0  0  0  0  0
    3.5517   -7.7407   25.9711 C   0  0  0  0  0  0  0  0  0  0  0  0
  1  4  4  0
  1 22  4  0
  2 20  4  0
  2 27  4  0
  3 12  4  0
  3 23  4  0
  4 25  4  0
  4 28  1  0
  5  8  4  0
  5 17  4  0
  6  7  4  0
  6 16  4  0
  7 18  4  0
  8 27  4  0
  9 13  4  0
  9 23  4  0
 10 11  1  0
 11 14  2  0
 11 27  1  0
 12 19  1  0
 12 24  4  0
 13 24  4  0
 15 18  1  0
 16 25  4  0
 16 26  4  0
 17 20  4  0
 17 28  1  0
 18 21  4  0
 21 26  4  0
 22 26  4  0
M  END
$$$$

 Created by Python create_sdf_string function

 28 30  0  0  0  0  0  0  0  0999 V2000
    5.7174   -8.4529   26.7190 C   0  0  0  0  0  0  0  0  0  0  0  0
    0.3974   -7.0711   27.5149 C   0  0  0  0  0  0  0  0  0  0  0  0
    2.5338   -7.6891   16.0102 C   0  0  0  0  0  0  0  0  0  0  0  0
    4.8690   -7.4380   26.4151 C   0  0  0  0  0  0  0  0  0  0  0  0
    2.3021   -5.6726   26.0378 C   0  0  0  0  0  0  0  0  0  0  0  0
    7.0880   -4.6163   27.0010 C   0  0  0  0  0  0  0  0  0  0  0  0
    8.3117   -4.3698   27.4436 C   0  0  0  0  0  0  0  0  0  0  0  0
    1.1339   -5.0515   26.3541 C   0  0  0  0  0  0  0  0  0  0  0  0
    4.8080   -8.0362   16.7101 C   0  0  0  0  0  0  0  0  0  0  0  0
   -1.2173   -3.9294   26.9717 O   0  0  0  0  0  0  0  0  0  0  0  0
   -1.0025   -5.0942   27.4586 C   0  0  0  0  0  0  0  0  0  0  0  0
    2.2474   -8.9123   16.6273 C   0  0  0  0  0  0  0  0  0  0  0  0
    4.4957   -9.2636   17.3041 C   0  0  0  0  0  0  0  0  0  0  0  0
   -1.8070   -5.6086   28.1920 O   0  0  0  0  0  0  0  0  0  0  0  0
   10.4296   -5.1799   28.3140 C   0  0  0  0  0  0  0  0  0  0  0  0
    6.6017   -5.9004   26.9187 C   0  0  0  0  0  0  0  0  0  0  0  0
    2.4761   -6.9940   26.4111 N   0  0  0  0  0  0  0  0  0  0  0  0
    9.1353   -5.4053   27.8239 C   0  0  0  0  0  0  0  0  0  0  0  0
    0.9922   -9.3232   16.5995 O   0  0  0  0  0  0  0  0  0  0  0  0
    1.5232   -7.6869   27.1182 C   0  0  0  0  0  0  0  0  0  0  0  0
    8.6878   -6.6715   27.7262 N   0  0  0  0  0  0  0  0  0  0  0  0
    6.9911   -8.2423   27.1808 C   0  0  0  0  0  0  0  0  0  0  0  0
    3.8436   -7.2758   16.0578 C   0  0  0  0  0  0  0  0  0  0  0  0
    3.1882   -9.7190   17.2566 C   0  0  0  0  0  0  0  0  0  0  0  0
    5.3488   -6.1737   26.5092 C   0  0  0  0  0  0  0  0  0  0  0  0
    7.4567   -6.9464   27.2858 C   0  0  0  0  0  0  0  0  0  0  0  0
    0.1921   -5.7592   27.1123 C   0  0  0  0  0  0  0  0  0  0  0  0
    3.5517   -7.7407   25.9711 C   0  0  0  0  0  0  0  0  0  0  0  0
  1  4  4  0
  1 22  4  0
  2 20  4  0
  2 27  4  0
  3 12  4  0
  3 23  4  0
  4 25  4  0
  4 28  1  0
  5  8  4  0
  5 17  4  0
  6  7  4  0
  6 16  4  0
  7 18  4  0
  8 27  4  0
  9 13  4  0
  9 23  4  0
 10 11  1  0
 11 14  2  0
 11 27  1  0
 12 19  1  0
 12 24  4  0
 13 24  4  0
 15 18  1  0
 16 25  4  0
 16 26  4  0
 17 20  4  0
 17 28  1  0
 18 21  4  0
 21 26  4  0
 22 26  4  0
M  END
$$$$

 Created by Python create_sdf_string function

 28 30  0  0  0  0  0  0  0  0999 V2000
    5.7174   -8.4529   26.7190 C   0  0  0  0  0  0  0  0  0  0  0  0
    0.3974   -7.0711   27.5149 C   0  0  0  0  0  0  0  0  0  0  0  0
    2.5338   -7.6891   16.0102 C   0  0  0  0  0  0  0  0  0  0  0  0
    4.8690   -7.4380   26.4151 C   0  0  0  0  0  0  0  0  0  0  0  0
    2.3021   -5.6726   26.0378 C   0  0  0  0  0  0  0  0  0  0  0  0
    7.0880   -4.6163   27.0010 C   0  0  0  0  0  0  0  0  0  0  0  0
    8.3117   -4.3698   27.4436 C   0  0  0  0  0  0  0  0  0  0  0  0
    1.1339   -5.0515   26.3541 C   0  0  0  0  0  0  0  0  0  0  0  0
    4.8080   -8.0362   16.7101 C   0  0  0  0  0  0  0  0  0  0  0  0
   -1.2173   -3.9294   26.9717 O   0  0  0  0  0  0  0  0  0  0  0  0
   -1.0025   -5.0942   27.4586 C   0  0  0  0  0  0  0  0  0  0  0  0
    2.2474   -8.9123   16.6273 C   0  0  0  0  0  0  0  0  0  0  0  0
    4.4957   -9.2636   17.3041 C   0  0  0  0  0  0  0  0  0  0  0  0
   -1.8070   -5.6086   28.1920 O   0  0  0  0  0  0  0  0  0  0  0  0
   10.4296   -5.1799   28.3140 C   0  0  0  0  0  0  0  0  0  0  0  0
    6.6017   -5.9004   26.9187 C   0  0  0  0  0  0  0  0  0  0  0  0
    2.4761   -6.9940   26.4111 N   0  0  0  0  0  0  0  0  0  0  0  0
    9.1353   -5.4053   27.8239 C   0  0  0  0  0  0  0  0  0  0  0  0
    0.9922   -9.3232   16.5995 O   0  0  0  0  0  0  0  0  0  0  0  0
    1.5232   -7.6869   27.1182 C   0  0  0  0  0  0  0  0  0  0  0  0
    8.6878   -6.6715   27.7262 N   0  0  0  0  0  0  0  0  0  0  0  0
    6.9911   -8.2423   27.1808 C   0  0  0  0  0  0  0  0  0  0  0  0
    3.8436   -7.2758   16.0578 C   0  0  0  0  0  0  0  0  0  0  0  0
    3.1882   -9.7190   17.2566 C   0  0  0  0  0  0  0  0  0  0  0  0
    5.3488   -6.1737   26.5092 C   0  0  0  0  0  0  0  0  0  0  0  0
    7.4567   -6.9464   27.2858 C   0  0  0  0  0  0  0  0  0  0  0  0
    0.1921   -5.7592   27.1123 C   0  0  0  0  0  0  0  0  0  0  0  0
    3.5517   -7.7407   25.9711 C   0  0  0  0  0  0  0  0  0  0  0  0
  1  4  4  0
  1 22  4  0
  2 20  4  0
  2 27  4  0
  3 12  4  0
  3 23  4  0
  4 25  4  0
  4 28  1  0
  5  8  4  0
  5 17  4  0
  6  7  4  0
  6 16  4  0
  7 18  4  0
  8 27  4  0
  9 13  4  0
  9 23  4  0
 10 11  1  0
 11 14  2  0
 11 27  1  0
 12 19  1  0
 12 24  4  0
 13 24  4  0
 15 18  1  0
 16 25  4  0
 16 26  4  0
 17 20  4  0
 17 28  1  0
 18 21  4  0
 21 26  4  0
 22 26  4  0
M  END
$$$$

 Created by Python create_sdf_string function

 28 30  0  0  0  0  0  0  0  0999 V2000
    5.7174   -8.4529   26.7190 C   0  0  0  0  0  0  0  0  0  0  0  0
    0.3974   -7.0711   27.5149 C   0  0  0  0  0  0  0  0  0  0  0  0
    2.5338   -7.6891   16.0102 C   0  0  0  0  0  0  0  0  0  0  0  0
    4.8690   -7.4380   26.4151 C   0  0  0  0  0  0  0  0  0  0  0  0
    2.3021   -5.6726   26.0378 C   0  0  0  0  0  0  0  0  0  0  0  0
    7.0880   -4.6163   27.0010 C   0  0  0  0  0  0  0  0  0  0  0  0
    8.3117   -4.3698   27.4436 C   0  0  0  0  0  0  0  0  0  0  0  0
    1.1339   -5.0515   26.3541 C   0  0  0  0  0  0  0  0  0  0  0  0
    4.8080   -8.0362   16.7101 C   0  0  0  0  0  0  0  0  0  0  0  0
   -1.2173   -3.9294   26.9717 O   0  0  0  0  0  0  0  0  0  0  0  0
   -1.0025   -5.0942   27.4586 C   0  0  0  0  0  0  0  0  0  0  0  0
    2.2474   -8.9123   16.6273 C   0  0  0  0  0  0  0  0  0  0  0  0
    4.4957   -9.2636   17.3041 C   0  0  0  0  0  0  0  0  0  0  0  0
   -1.8070   -5.6086   28.1920 O   0  0  0  0  0  0  0  0  0  0  0  0
   10.4296   -5.1799   28.3140 C   0  0  0  0  0  0  0  0  0  0  0  0
    6.6017   -5.9004   26.9187 C   0  0  0  0  0  0  0  0  0  0  0  0
    2.4761   -6.9940   26.4111 N   0  0  0  0  0  0  0  0  0  0  0  0
    9.1353   -5.4053   27.8239 C   0  0  0  0  0  0  0  0  0  0  0  0
    0.9922   -9.3232   16.5995 O   0  0  0  0  0  0  0  0  0  0  0  0
    1.5232   -7.6869   27.1182 C   0  0  0  0  0  0  0  0  0  0  0  0
    8.6878   -6.6715   27.7262 N   0  0  0  0  0  0  0  0  0  0  0  0
    6.9911   -8.2423   27.1808 C   0  0  0  0  0  0  0  0  0  0  0  0
    3.8436   -7.2758   16.0578 C   0  0  0  0  0  0  0  0  0  0  0  0
    3.1882   -9.7190   17.2566 C   0  0  0  0  0  0  0  0  0  0  0  0
    5.3488   -6.1737   26.5092 C   0  0  0  0  0  0  0  0  0  0  0  0
    7.4567   -6.9464   27.2858 C   0  0  0  0  0  0  0  0  0  0  0  0
    0.1921   -5.7592   27.1123 C   0  0  0  0  0  0  0  0  0  0  0  0
    3.5517   -7.7407   25.9711 C   0  0  0  0  0  0  0  0  0  0  0  0
  1  4  4  0
  1 22  4  0
  2 20  4  0
  2 27  4  0
  3 12  4  0
  3 23  4  0
  4 25  4  0
  4 28  1  0
  5  8  4  0
  5 17  4  0
  6  7  4  0
  6 16  4  0
  7 18  4  0
  8 27  4  0
  9 13  4  0
  9 23  4  0
 10 11  1  0
 11 14  2  0
 11 27  1  0
 12 19  1  0
 12 24  4  0
 13 24  4  0
 15 18  1  0
 16 25  4  0
 16 26  4  0
 17 20  4  0
 17 28  1  0
 18 21  4  0
 21 26  4  0
 22 26  4  0
M  END
$$$$

 Created by Python create_sdf_string function

 28 30  0  0  0  0  0  0  0  0999 V2000
    5.7174   -8.4529   26.7190 C   0  0  0  0  0  0  0  0  0  0  0  0
    0.3974   -7.0711   27.5149 C   0  0  0  0  0  0  0  0  0  0  0  0
    2.5338   -7.6891   16.0102 C   0  0  0  0  0  0  0  0  0  0  0  0
    4.8690   -7.4380   26.4151 C   0  0  0  0  0  0  0  0  0  0  0  0
    2.3021   -5.6726   26.0378 C   0  0  0  0  0  0  0  0  0  0  0  0
    7.0880   -4.6163   27.0010 C   0  0  0  0  0  0  0  0  0  0  0  0
    8.3117   -4.3698   27.4436 C   0  0  0  0  0  0  0  0  0  0  0  0
    1.1339   -5.0515   26.3541 C   0  0  0  0  0  0  0  0  0  0  0  0
    4.8080   -8.0362   16.7101 C   0  0  0  0  0  0  0  0  0  0  0  0
   -1.2173   -3.9294   26.9717 O   0  0  0  0  0  0  0  0  0  0  0  0
   -1.0025   -5.0942   27.4586 C   0  0  0  0  0  0  0  0  0  0  0  0
    2.2474   -8.9123   16.6273 C   0  0  0  0  0  0  0  0  0  0  0  0
    4.4957   -9.2636   17.3041 C   0  0  0  0  0  0  0  0  0  0  0  0
   -1.8070   -5.6086   28.1920 O   0  0  0  0  0  0  0  0  0  0  0  0
   10.4296   -5.1799   28.3140 C   0  0  0  0  0  0  0  0  0  0  0  0
    6.6017   -5.9004   26.9187 C   0  0  0  0  0  0  0  0  0  0  0  0
    2.4761   -6.9940   26.4111 N   0  0  0  0  0  0  0  0  0  0  0  0
    9.1353   -5.4053   27.8239 C   0  0  0  0  0  0  0  0  0  0  0  0
    0.9922   -9.3232   16.5995 O   0  0  0  0  0  0  0  0  0  0  0  0
    1.5232   -7.6869   27.1182 C   0  0  0  0  0  0  0  0  0  0  0  0
    8.6878   -6.6715   27.7262 N   0  0  0  0  0  0  0  0  0  0  0  0
    6.9911   -8.2423   27.1808 C   0  0  0  0  0  0  0  0  0  0  0  0
    3.8436   -7.2758   16.0578 C   0  0  0  0  0  0  0  0  0  0  0  0
    3.1882   -9.7190   17.2566 C   0  0  0  0  0  0  0  0  0  0  0  0
    5.3488   -6.1737   26.5092 C   0  0  0  0  0  0  0  0  0  0  0  0
    7.4567   -6.9464   27.2858 C   0  0  0  0  0  0  0  0  0  0  0  0
    0.1921   -5.7592   27.1123 C   0  0  0  0  0  0  0  0  0  0  0  0
    3.5517   -7.7407   25.9711 C   0  0  0  0  0  0  0  0  0  0  0  0
  1  4  4  0
  1 22  4  0
  2 20  4  0
  2 27  4  0
  3 12  4  0
  3 23  4  0
  4 25  4  0
  4 28  1  0
  5  8  4  0
  5 17  4  0
  6  7  4  0
  6 16  4  0
  7 18  4  0
  8 27  4  0
  9 13  4  0
  9 23  4  0
 10 11  1  0
 11 14  2  0
 11 27  1  0
 12 19  1  0
 12 24  4  0
 13 24  4  0
 15 18  1  0
 16 25  4  0
 16 26  4  0
 17 20  4  0
 17 28  1  0
 18 21  4  0
 21 26  4  0
 22 26  4  0
M  END
$$$$

 Created by Python create_sdf_string function

 28 30  0  0  0  0  0  0  0  0999 V2000
    5.7174   -8.4529   26.7190 C   0  0  0  0  0  0  0  0  0  0  0  0
    0.3974   -7.0711   27.5149 C   0  0  0  0  0  0  0  0  0  0  0  0
    2.5338   -7.6891   16.0102 C   0  0  0  0  0  0  0  0  0  0  0  0
    4.8690   -7.4380   26.4151 C   0  0  0  0  0  0  0  0  0  0  0  0
    2.3021   -5.6726   26.0378 C   0  0  0  0  0  0  0  0  0  0  0  0
    7.0880   -4.6163   27.0010 C   0  0  0  0  0  0  0  0  0  0  0  0
    8.3117   -4.3698   27.4436 C   0  0  0  0  0  0  0  0  0  0  0  0
    1.1339   -5.0515   26.3541 C   0  0  0  0  0  0  0  0  0  0  0  0
    4.8080   -8.0362   16.7101 C   0  0  0  0  0  0  0  0  0  0  0  0
   -1.2173   -3.9294   26.9717 O   0  0  0  0  0  0  0  0  0  0  0  0
   -1.0025   -5.0942   27.4586 C   0  0  0  0  0  0  0  0  0  0  0  0
    2.2474   -8.9123   16.6273 C   0  0  0  0  0  0  0  0  0  0  0  0
    4.4957   -9.2636   17.3041 C   0  0  0  0  0  0  0  0  0  0  0  0
   -1.8070   -5.6086   28.1920 O   0  0  0  0  0  0  0  0  0  0  0  0
   10.4296   -5.1799   28.3140 C   0  0  0  0  0  0  0  0  0  0  0  0
    6.6017   -5.9004   26.9187 C   0  0  0  0  0  0  0  0  0  0  0  0
    2.4761   -6.9940   26.4111 N   0  0  0  0  0  0  0  0  0  0  0  0
    9.1353   -5.4053   27.8239 C   0  0  0  0  0  0  0  0  0  0  0  0
    0.9922   -9.3232   16.5995 O   0  0  0  0  0  0  0  0  0  0  0  0
    1.5232   -7.6869   27.1182 C   0  0  0  0  0  0  0  0  0  0  0  0
    8.6878   -6.6715   27.7262 N   0  0  0  0  0  0  0  0  0  0  0  0
    6.9911   -8.2423   27.1808 C   0  0  0  0  0  0  0  0  0  0  0  0
    3.8436   -7.2758   16.0578 C   0  0  0  0  0  0  0  0  0  0  0  0
    3.1882   -9.7190   17.2566 C   0  0  0  0  0  0  0  0  0  0  0  0
    5.3488   -6.1737   26.5092 C   0  0  0  0  0  0  0  0  0  0  0  0
    7.4567   -6.9464   27.2858 C   0  0  0  0  0  0  0  0  0  0  0  0
    0.1921   -5.7592   27.1123 C   0  0  0  0  0  0  0  0  0  0  0  0
    3.5517   -7.7407   25.9711 C   0  0  0  0  0  0  0  0  0  0  0  0
  1  4  4  0
  1 22  4  0
  2 20  4  0
  2 27  4  0
  3 12  4  0
  3 23  4  0
  4 25  4  0
  4 28  1  0
  5  8  4  0
  5 17  4  0
  6  7  4  0
  6 16  4  0
  7 18  4  0
  8 27  4  0
  9 13  4  0
  9 23  4  0
 10 11  1  0
 11 14  2  0
 11 27  1  0
 12 19  1  0
 12 24  4  0
 13 24  4  0
 15 18  1  0
 16 25  4  0
 16 26  4  0
 17 20  4  0
 17 28  1  0
 18 21  4  0
 21 26  4  0
 22 26  4  0
M  END
$$$$

 Created by Python create_sdf_string function

 28 30  0  0  0  0  0  0  0  0999 V2000
    5.7174   -8.4529   26.7190 C   0  0  0  0  0  0  0  0  0  0  0  0
    0.3974   -7.0711   27.5149 C   0  0  0  0  0  0  0  0  0  0  0  0
    2.5338   -7.6891   16.0102 C   0  0  0  0  0  0  0  0  0  0  0  0
    4.8690   -7.4380   26.4151 C   0  0  0  0  0  0  0  0  0  0  0  0
    2.3021   -5.6726   26.0378 C   0  0  0  0  0  0  0  0  0  0  0  0
    7.0880   -4.6163   27.0010 C   0  0  0  0  0  0  0  0  0  0  0  0
    8.3117   -4.3698   27.4436 C   0  0  0  0  0  0  0  0  0  0  0  0
    1.1339   -5.0515   26.3541 C   0  0  0  0  0  0  0  0  0  0  0  0
    4.8080   -8.0362   16.7101 C   0  0  0  0  0  0  0  0  0  0  0  0
   -1.2173   -3.9294   26.9717 O   0  0  0  0  0  0  0  0  0  0  0  0
   -1.0025   -5.0942   27.4586 C   0  0  0  0  0  0  0  0  0  0  0  0
    2.2474   -8.9123   16.6273 C   0  0  0  0  0  0  0  0  0  0  0  0
    4.4957   -9.2636   17.3041 C   0  0  0  0  0  0  0  0  0  0  0  0
   -1.8070   -5.6086   28.1920 O   0  0  0  0  0  0  0  0  0  0  0  0
   10.4296   -5.1799   28.3140 C   0  0  0  0  0  0  0  0  0  0  0  0
    6.6017   -5.9004   26.9187 C   0  0  0  0  0  0  0  0  0  0  0  0
    2.4761   -6.9940   26.4111 N   0  0  0  0  0  0  0  0  0  0  0  0
    9.1353   -5.4053   27.8239 C   0  0  0  0  0  0  0  0  0  0  0  0
    0.9922   -9.3232   16.5995 O   0  0  0  0  0  0  0  0  0  0  0  0
    1.5232   -7.6869   27.1182 C   0  0  0  0  0  0  0  0  0  0  0  0
    8.6878   -6.6715   27.7262 N   0  0  0  0  0  0  0  0  0  0  0  0
    6.9911   -8.2423   27.1808 C   0  0  0  0  0  0  0  0  0  0  0  0
    3.8436   -7.2758   16.0578 C   0  0  0  0  0  0  0  0  0  0  0  0
    3.1882   -9.7190   17.2566 C   0  0  0  0  0  0  0  0  0  0  0  0
    5.3488   -6.1737   26.5092 C   0  0  0  0  0  0  0  0  0  0  0  0
    7.4567   -6.9464   27.2858 C   0  0  0  0  0  0  0  0  0  0  0  0
    0.1921   -5.7592   27.1123 C   0  0  0  0  0  0  0  0  0  0  0  0
    3.5517   -7.7407   25.9711 C   0  0  0  0  0  0  0  0  0  0  0  0
  1  4  4  0
  1 22  4  0
  2 20  4  0
  2 27  4  0
  3 12  4  0
  3 23  4  0
  4 25  4  0
  4 28  1  0
  5  8  4  0
  5 17  4  0
  6  7  4  0
  6 16  4  0
  7 18  4  0
  8 27  4  0
  9 13  4  0
  9 23  4  0
 10 11  1  0
 11 14  2  0
 11 27  1  0
 12 19  1  0
 12 24  4  0
 13 24  4  0
 15 18  1  0
 16 25  4  0
 16 26  4  0
 17 20  4  0
 17 28  1  0
 18 21  4  0
 21 26  4  0
 22 26  4  0
M  END
$$$$

 Created by Python create_sdf_string function

 28 30  0  0  0  0  0  0  0  0999 V2000
    5.7174   -8.4529   26.7190 C   0  0  0  0  0  0  0  0  0  0  0  0
    0.3974   -7.0711   27.5149 C   0  0  0  0  0  0  0  0  0  0  0  0
    2.5338   -7.6891   16.0102 C   0  0  0  0  0  0  0  0  0  0  0  0
    4.8690   -7.4380   26.4151 C   0  0  0  0  0  0  0  0  0  0  0  0
    2.3021   -5.6726   26.0378 C   0  0  0  0  0  0  0  0  0  0  0  0
    7.0880   -4.6163   27.0010 C   0  0  0  0  0  0  0  0  0  0  0  0
    8.3117   -4.3698   27.4436 C   0  0  0  0  0  0  0  0  0  0  0  0
    1.1339   -5.0515   26.3541 C   0  0  0  0  0  0  0  0  0  0  0  0
    4.8080   -8.0362   16.7101 C   0  0  0  0  0  0  0  0  0  0  0  0
   -1.2173   -3.9294   26.9717 O   0  0  0  0  0  0  0  0  0  0  0  0
   -1.0025   -5.0942   27.4586 C   0  0  0  0  0  0  0  0  0  0  0  0
    2.2474   -8.9123   16.6273 C   0  0  0  0  0  0  0  0  0  0  0  0
    4.4957   -9.2636   17.3041 C   0  0  0  0  0  0  0  0  0  0  0  0
   -1.8070   -5.6086   28.1920 O   0  0  0  0  0  0  0  0  0  0  0  0
   10.4296   -5.1799   28.3140 C   0  0  0  0  0  0  0  0  0  0  0  0
    6.6017   -5.9004   26.9187 C   0  0  0  0  0  0  0  0  0  0  0  0
    2.4761   -6.9940   26.4111 N   0  0  0  0  0  0  0  0  0  0  0  0
    9.1353   -5.4053   27.8239 C   0  0  0  0  0  0  0  0  0  0  0  0
    0.9922   -9.3232   16.5995 O   0  0  0  0  0  0  0  0  0  0  0  0
    1.5232   -7.6869   27.1182 C   0  0  0  0  0  0  0  0  0  0  0  0
    8.6878   -6.6715   27.7262 N   0  0  0  0  0  0  0  0  0  0  0  0
    6.9911   -8.2423   27.1808 C   0  0  0  0  0  0  0  0  0  0  0  0
    3.8436   -7.2758   16.0578 C   0  0  0  0  0  0  0  0  0  0  0  0
    3.1882   -9.7190   17.2566 C   0  0  0  0  0  0  0  0  0  0  0  0
    5.3488   -6.1737   26.5092 C   0  0  0  0  0  0  0  0  0  0  0  0
    7.4567   -6.9464   27.2858 C   0  0  0  0  0  0  0  0  0  0  0  0
    0.1921   -5.7592   27.1123 C   0  0  0  0  0  0  0  0  0  0  0  0
    3.5517   -7.7407   25.9711 C   0  0  0  0  0  0  0  0  0  0  0  0
  1  4  4  0
  1 22  4  0
  2 20  4  0
  2 27  4  0
  3 12  4  0
  3 23  4  0
  4 25  4  0
  4 28  1  0
  5  8  4  0
  5 17  4  0
  6  7  4  0
  6 16  4  0
  7 18  4  0
  8 27  4  0
  9 13  4  0
  9 23  4  0
 10 11  1  0
 11 14  2  0
 11 27  1  0
 12 19  1  0
 12 24  4  0
 13 24  4  0
 15 18  1  0
 16 25  4  0
 16 26  4  0
 17 20  4  0
 17 28  1  0
 18 21  4  0
 21 26  4  0
 22 26  4  0
M  END
$$$$

 Created by Python create_sdf_string function

 28 30  0  0  0  0  0  0  0  0999 V2000
    5.7174   -8.4529   26.7190 C   0  0  0  0  0  0  0  0  0  0  0  0
    0.3974   -7.0711   27.5149 C   0  0  0  0  0  0  0  0  0  0  0  0
    2.5338   -7.6891   16.0102 C   0  0  0  0  0  0  0  0  0  0  0  0
    4.8690   -7.4380   26.4151 C   0  0  0  0  0  0  0  0  0  0  0  0
    2.3021   -5.6726   26.0378 C   0  0  0  0  0  0  0  0  0  0  0  0
    7.0880   -4.6163   27.0010 C   0  0  0  0  0  0  0  0  0  0  0  0
    8.3117   -4.3698   27.4436 C   0  0  0  0  0  0  0  0  0  0  0  0
    1.1339   -5.0515   26.3541 C   0  0  0  0  0  0  0  0  0  0  0  0
    4.8080   -8.0362   16.7101 C   0  0  0  0  0  0  0  0  0  0  0  0
   -1.2173   -3.9294   26.9717 O   0  0  0  0  0  0  0  0  0  0  0  0
   -1.0025   -5.0942   27.4586 C   0  0  0  0  0  0  0  0  0  0  0  0
    2.2474   -8.9123   16.6273 C   0  0  0  0  0  0  0  0  0  0  0  0
    4.4957   -9.2636   17.3041 C   0  0  0  0  0  0  0  0  0  0  0  0
   -1.8070   -5.6086   28.1920 O   0  0  0  0  0  0  0  0  0  0  0  0
   10.4296   -5.1799   28.3140 C   0  0  0  0  0  0  0  0  0  0  0  0
    6.6017   -5.9004   26.9187 C   0  0  0  0  0  0  0  0  0  0  0  0
    2.4761   -6.9940   26.4111 N   0  0  0  0  0  0  0  0  0  0  0  0
    9.1353   -5.4053   27.8239 C   0  0  0  0  0  0  0  0  0  0  0  0
    0.9922   -9.3232   16.5995 O   0  0  0  0  0  0  0  0  0  0  0  0
    1.5232   -7.6869   27.1182 C   0  0  0  0  0  0  0  0  0  0  0  0
    8.6878   -6.6715   27.7262 N   0  0  0  0  0  0  0  0  0  0  0  0
    6.9911   -8.2423   27.1808 C   0  0  0  0  0  0  0  0  0  0  0  0
    3.8436   -7.2758   16.0578 C   0  0  0  0  0  0  0  0  0  0  0  0
    3.1882   -9.7190   17.2566 C   0  0  0  0  0  0  0  0  0  0  0  0
    5.3488   -6.1737   26.5092 C   0  0  0  0  0  0  0  0  0  0  0  0
    7.4567   -6.9464   27.2858 C   0  0  0  0  0  0  0  0  0  0  0  0
    0.1921   -5.7592   27.1123 C   0  0  0  0  0  0  0  0  0  0  0  0
    3.5517   -7.7407   25.9711 C   0  0  0  0  0  0  0  0  0  0  0  0
  1  4  4  0
  1 22  4  0
  2 20  4  0
  2 27  4  0
  3 12  4  0
  3 23  4  0
  4 25  4  0
  4 28  1  0
  5  8  4  0
  5 17  4  0
  6  7  4  0
  6 16  4  0
  7 18  4  0
  8 27  4  0
  9 13  4  0
  9 23  4  0
 10 11  1  0
 11 14  2  0
 11 27  1  0
 12 19  1  0
 12 24  4  0
 13 24  4  0
 15 18  1  0
 16 25  4  0
 16 26  4  0
 17 20  4  0
 17 28  1  0
 18 21  4  0
 21 26  4  0
 22 26  4  0
M  END
$$$$

 Created by Python create_sdf_string function

 28 30  0  0  0  0  0  0  0  0999 V2000
    5.7174   -8.4529   26.7190 C   0  0  0  0  0  0  0  0  0  0  0  0
    0.3974   -7.0711   27.5149 C   0  0  0  0  0  0  0  0  0  0  0  0
    2.5338   -7.6891   16.0102 C   0  0  0  0  0  0  0  0  0  0  0  0
    4.8690   -7.4380   26.4151 C   0  0  0  0  0  0  0  0  0  0  0  0
    2.3021   -5.6726   26.0378 C   0  0  0  0  0  0  0  0  0  0  0  0
    7.0880   -4.6163   27.0010 C   0  0  0  0  0  0  0  0  0  0  0  0
    8.3117   -4.3698   27.4436 C   0  0  0  0  0  0  0  0  0  0  0  0
    1.1339   -5.0515   26.3541 C   0  0  0  0  0  0  0  0  0  0  0  0
    4.8080   -8.0362   16.7101 C   0  0  0  0  0  0  0  0  0  0  0  0
   -1.2173   -3.9294   26.9717 O   0  0  0  0  0  0  0  0  0  0  0  0
   -1.0025   -5.0942   27.4586 C   0  0  0  0  0  0  0  0  0  0  0  0
    2.2474   -8.9123   16.6273 C   0  0  0  0  0  0  0  0  0  0  0  0
    4.4957   -9.2636   17.3041 C   0  0  0  0  0  0  0  0  0  0  0  0
   -1.8070   -5.6086   28.1920 O   0  0  0  0  0  0  0  0  0  0  0  0
   10.4296   -5.1799   28.3140 C   0  0  0  0  0  0  0  0  0  0  0  0
    6.6017   -5.9004   26.9187 C   0  0  0  0  0  0  0  0  0  0  0  0
    2.4761   -6.9940   26.4111 N   0  0  0  0  0  0  0  0  0  0  0  0
    9.1353   -5.4053   27.8239 C   0  0  0  0  0  0  0  0  0  0  0  0
    0.9922   -9.3232   16.5995 O   0  0  0  0  0  0  0  0  0  0  0  0
    1.5232   -7.6869   27.1182 C   0  0  0  0  0  0  0  0  0  0  0  0
    8.6878   -6.6715   27.7262 N   0  0  0  0  0  0  0  0  0  0  0  0
    6.9911   -8.2423   27.1808 C   0  0  0  0  0  0  0  0  0  0  0  0
    3.8436   -7.2758   16.0578 C   0  0  0  0  0  0  0  0  0  0  0  0
    3.1882   -9.7190   17.2566 C   0  0  0  0  0  0  0  0  0  0  0  0
    5.3488   -6.1737   26.5092 C   0  0  0  0  0  0  0  0  0  0  0  0
    7.4567   -6.9464   27.2858 C   0  0  0  0  0  0  0  0  0  0  0  0
    0.1921   -5.7592   27.1123 C   0  0  0  0  0  0  0  0  0  0  0  0
    3.5517   -7.7407   25.9711 C   0  0  0  0  0  0  0  0  0  0  0  0
  1  4  4  0
  1 22  4  0
  2 20  4  0
  2 27  4  0
  3 12  4  0
  3 23  4  0
  4 25  4  0
  4 28  1  0
  5  8  4  0
  5 17  4  0
  6  7  4  0
  6 16  4  0
  7 18  4  0
  8 27  4  0
  9 13  4  0
  9 23  4  0
 10 11  1  0
 11 14  2  0
 11 27  1  0
 12 19  1  0
 12 24  4  0
 13 24  4  0
 15 18  1  0
 16 25  4  0
 16 26  4  0
 17 20  4  0
 17 28  1  0
 18 21  4  0
 21 26  4  0
 22 26  4  0
M  END
$$$$

 Created by Python create_sdf_string function

 28 30  0  0  0  0  0  0  0  0999 V2000
    5.7174   -8.4529   26.7190 C   0  0  0  0  0  0  0  0  0  0  0  0
    0.3974   -7.0711   27.5149 C   0  0  0  0  0  0  0  0  0  0  0  0
    2.5338   -7.6891   16.0102 C   0  0  0  0  0  0  0  0  0  0  0  0
    4.8690   -7.4380   26.4151 C   0  0  0  0  0  0  0  0  0  0  0  0
    2.3021   -5.6726   26.0378 C   0  0  0  0  0  0  0  0  0  0  0  0
    7.0880   -4.6163   27.0010 C   0  0  0  0  0  0  0  0  0  0  0  0
    8.3117   -4.3698   27.4436 C   0  0  0  0  0  0  0  0  0  0  0  0
    1.1339   -5.0515   26.3541 C   0  0  0  0  0  0  0  0  0  0  0  0
    4.8080   -8.0362   16.7101 C   0  0  0  0  0  0  0  0  0  0  0  0
   -1.2173   -3.9294   26.9717 O   0  0  0  0  0  0  0  0  0  0  0  0
   -1.0025   -5.0942   27.4586 C   0  0  0  0  0  0  0  0  0  0  0  0
    2.2474   -8.9123   16.6273 C   0  0  0  0  0  0  0  0  0  0  0  0
    4.4957   -9.2636   17.3041 C   0  0  0  0  0  0  0  0  0  0  0  0
   -1.8070   -5.6086   28.1920 O   0  0  0  0  0  0  0  0  0  0  0  0
   10.4296   -5.1799   28.3140 C   0  0  0  0  0  0  0  0  0  0  0  0
    6.6017   -5.9004   26.9187 C   0  0  0  0  0  0  0  0  0  0  0  0
    2.4761   -6.9940   26.4111 N   0  0  0  0  0  0  0  0  0  0  0  0
    9.1353   -5.4053   27.8239 C   0  0  0  0  0  0  0  0  0  0  0  0
    0.9922   -9.3232   16.5995 O   0  0  0  0  0  0  0  0  0  0  0  0
    1.5232   -7.6869   27.1182 C   0  0  0  0  0  0  0  0  0  0  0  0
    8.6878   -6.6715   27.7262 N   0  0  0  0  0  0  0  0  0  0  0  0
    6.9911   -8.2423   27.1808 C   0  0  0  0  0  0  0  0  0  0  0  0
    3.8436   -7.2758   16.0578 C   0  0  0  0  0  0  0  0  0  0  0  0
    3.1882   -9.7190   17.2566 C   0  0  0  0  0  0  0  0  0  0  0  0
    5.3488   -6.1737   26.5092 C   0  0  0  0  0  0  0  0  0  0  0  0
    7.4567   -6.9464   27.2858 C   0  0  0  0  0  0  0  0  0  0  0  0
    0.1921   -5.7592   27.1123 C   0  0  0  0  0  0  0  0  0  0  0  0
    3.5517   -7.7407   25.9711 C   0  0  0  0  0  0  0  0  0  0  0  0
  1  4  4  0
  1 22  4  0
  2 20  4  0
  2 27  4  0
  3 12  4  0
  3 23  4  0
  4 25  4  0
  4 28  1  0
  5  8  4  0
  5 17  4  0
  6  7  4  0
  6 16  4  0
  7 18  4  0
  8 27  4  0
  9 13  4  0
  9 23  4  0
 10 11  1  0
 11 14  2  0
 11 27  1  0
 12 19  1  0
 12 24  4  0
 13 24  4  0
 15 18  1  0
 16 25  4  0
 16 26  4  0
 17 20  4  0
 17 28  1  0
 18 21  4  0
 21 26  4  0
 22 26  4  0
M  END
$$$$

 Created by Python create_sdf_string function

 28 30  0  0  0  0  0  0  0  0999 V2000
    5.7174   -8.4529   26.7190 C   0  0  0  0  0  0  0  0  0  0  0  0
    0.3974   -7.0711   27.5149 C   0  0  0  0  0  0  0  0  0  0  0  0
    2.5338   -7.6891   16.0102 C   0  0  0  0  0  0  0  0  0  0  0  0
    4.8690   -7.4380   26.4151 C   0  0  0  0  0  0  0  0  0  0  0  0
    2.3021   -5.6726   26.0378 C   0  0  0  0  0  0  0  0  0  0  0  0
    7.0880   -4.6163   27.0010 C   0  0  0  0  0  0  0  0  0  0  0  0
    8.3117   -4.3698   27.4436 C   0  0  0  0  0  0  0  0  0  0  0  0
    1.1339   -5.0515   26.3541 C   0  0  0  0  0  0  0  0  0  0  0  0
    4.8080   -8.0362   16.7101 C   0  0  0  0  0  0  0  0  0  0  0  0
   -1.2173   -3.9294   26.9717 O   0  0  0  0  0  0  0  0  0  0  0  0
   -1.0025   -5.0942   27.4586 C   0  0  0  0  0  0  0  0  0  0  0  0
    2.2474   -8.9123   16.6273 C   0  0  0  0  0  0  0  0  0  0  0  0
    4.4957   -9.2636   17.3041 C   0  0  0  0  0  0  0  0  0  0  0  0
   -1.8070   -5.6086   28.1920 O   0  0  0  0  0  0  0  0  0  0  0  0
   10.4296   -5.1799   28.3140 C   0  0  0  0  0  0  0  0  0  0  0  0
    6.6017   -5.9004   26.9187 C   0  0  0  0  0  0  0  0  0  0  0  0
    2.4761   -6.9940   26.4111 N   0  0  0  0  0  0  0  0  0  0  0  0
    9.1353   -5.4053   27.8239 C   0  0  0  0  0  0  0  0  0  0  0  0
    0.9922   -9.3232   16.5995 O   0  0  0  0  0  0  0  0  0  0  0  0
    1.5232   -7.6869   27.1182 C   0  0  0  0  0  0  0  0  0  0  0  0
    8.6878   -6.6715   27.7262 N   0  0  0  0  0  0  0  0  0  0  0  0
    6.9911   -8.2423   27.1808 C   0  0  0  0  0  0  0  0  0  0  0  0
    3.8436   -7.2758   16.0578 C   0  0  0  0  0  0  0  0  0  0  0  0
    3.1882   -9.7190   17.2566 C   0  0  0  0  0  0  0  0  0  0  0  0
    5.3488   -6.1737   26.5092 C   0  0  0  0  0  0  0  0  0  0  0  0
    7.4567   -6.9464   27.2858 C   0  0  0  0  0  0  0  0  0  0  0  0
    0.1921   -5.7592   27.1123 C   0  0  0  0  0  0  0  0  0  0  0  0
    3.5517   -7.7407   25.9711 C   0  0  0  0  0  0  0  0  0  0  0  0
  1  4  4  0
  1 22  4  0
  2 20  4  0
  2 27  4  0
  3 12  4  0
  3 23  4  0
  4 25  4  0
  4 28  1  0
  5  8  4  0
  5 17  4  0
  6  7  4  0
  6 16  4  0
  7 18  4  0
  8 27  4  0
  9 13  4  0
  9 23  4  0
 10 11  1  0
 11 14  2  0
 11 27  1  0
 12 19  1  0
 12 24  4  0
 13 24  4  0
 15 18  1  0
 16 25  4  0
 16 26  4  0
 17 20  4  0
 17 28  1  0
 18 21  4  0
 21 26  4  0
 22 26  4  0
M  END
$$$$

 Created by Python create_sdf_string function

 28 30  0  0  0  0  0  0  0  0999 V2000
    5.7174   -8.4529   26.7190 C   0  0  0  0  0  0  0  0  0  0  0  0
    0.3974   -7.0711   27.5149 C   0  0  0  0  0  0  0  0  0  0  0  0
    2.5338   -7.6891   16.0102 C   0  0  0  0  0  0  0  0  0  0  0  0
    4.8690   -7.4380   26.4151 C   0  0  0  0  0  0  0  0  0  0  0  0
    2.3021   -5.6726   26.0378 C   0  0  0  0  0  0  0  0  0  0  0  0
    7.0880   -4.6163   27.0010 C   0  0  0  0  0  0  0  0  0  0  0  0
    8.3117   -4.3698   27.4436 C   0  0  0  0  0  0  0  0  0  0  0  0
    1.1339   -5.0515   26.3541 C   0  0  0  0  0  0  0  0  0  0  0  0
    4.8080   -8.0362   16.7101 C   0  0  0  0  0  0  0  0  0  0  0  0
   -1.2173   -3.9294   26.9717 O   0  0  0  0  0  0  0  0  0  0  0  0
   -1.0025   -5.0942   27.4586 C   0  0  0  0  0  0  0  0  0  0  0  0
    2.2474   -8.9123   16.6273 C   0  0  0  0  0  0  0  0  0  0  0  0
    4.4957   -9.2636   17.3041 C   0  0  0  0  0  0  0  0  0  0  0  0
   -1.8070   -5.6086   28.1920 O   0  0  0  0  0  0  0  0  0  0  0  0
   10.4296   -5.1799   28.3140 C   0  0  0  0  0  0  0  0  0  0  0  0
    6.6017   -5.9004   26.9187 C   0  0  0  0  0  0  0  0  0  0  0  0
    2.4761   -6.9940   26.4111 N   0  0  0  0  0  0  0  0  0  0  0  0
    9.1353   -5.4053   27.8239 C   0  0  0  0  0  0  0  0  0  0  0  0
    0.9922   -9.3232   16.5995 O   0  0  0  0  0  0  0  0  0  0  0  0
    1.5232   -7.6869   27.1182 C   0  0  0  0  0  0  0  0  0  0  0  0
    8.6878   -6.6715   27.7262 N   0  0  0  0  0  0  0  0  0  0  0  0
    6.9911   -8.2423   27.1808 C   0  0  0  0  0  0  0  0  0  0  0  0
    3.8436   -7.2758   16.0578 C   0  0  0  0  0  0  0  0  0  0  0  0
    3.1882   -9.7190   17.2566 C   0  0  0  0  0  0  0  0  0  0  0  0
    5.3488   -6.1737   26.5092 C   0  0  0  0  0  0  0  0  0  0  0  0
    7.4567   -6.9464   27.2858 C   0  0  0  0  0  0  0  0  0  0  0  0
    0.1921   -5.7592   27.1123 C   0  0  0  0  0  0  0  0  0  0  0  0
    3.5517   -7.7407   25.9711 C   0  0  0  0  0  0  0  0  0  0  0  0
  1  4  4  0
  1 22  4  0
  2 20  4  0
  2 27  4  0
  3 12  4  0
  3 23  4  0
  4 25  4  0
  4 28  1  0
  5  8  4  0
  5 17  4  0
  6  7  4  0
  6 16  4  0
  7 18  4  0
  8 27  4  0
  9 13  4  0
  9 23  4  0
 10 11  1  0
 11 14  2  0
 11 27  1  0
 12 19  1  0
 12 24  4  0
 13 24  4  0
 15 18  1  0
 16 25  4  0
 16 26  4  0
 17 20  4  0
 17 28  1  0
 18 21  4  0
 21 26  4  0
 22 26  4  0
M  END
$$$$

 Created by Python create_sdf_string function

 28 30  0  0  0  0  0  0  0  0999 V2000
    5.7174   -8.4529   26.7190 C   0  0  0  0  0  0  0  0  0  0  0  0
    0.3974   -7.0711   27.5149 C   0  0  0  0  0  0  0  0  0  0  0  0
    2.5338   -7.6891   16.0102 C   0  0  0  0  0  0  0  0  0  0  0  0
    4.8690   -7.4380   26.4151 C   0  0  0  0  0  0  0  0  0  0  0  0
    2.3021   -5.6726   26.0378 C   0  0  0  0  0  0  0  0  0  0  0  0
    7.0880   -4.6163   27.0010 C   0  0  0  0  0  0  0  0  0  0  0  0
    8.3117   -4.3698   27.4436 C   0  0  0  0  0  0  0  0  0  0  0  0
    1.1339   -5.0515   26.3541 C   0  0  0  0  0  0  0  0  0  0  0  0
    4.8080   -8.0362   16.7101 C   0  0  0  0  0  0  0  0  0  0  0  0
   -1.2173   -3.9294   26.9717 O   0  0  0  0  0  0  0  0  0  0  0  0
   -1.0025   -5.0942   27.4586 C   0  0  0  0  0  0  0  0  0  0  0  0
    2.2474   -8.9123   16.6273 C   0  0  0  0  0  0  0  0  0  0  0  0
    4.4957   -9.2636   17.3041 C   0  0  0  0  0  0  0  0  0  0  0  0
   -1.8070   -5.6086   28.1920 O   0  0  0  0  0  0  0  0  0  0  0  0
   10.4296   -5.1799   28.3140 C   0  0  0  0  0  0  0  0  0  0  0  0
    6.6017   -5.9004   26.9187 C   0  0  0  0  0  0  0  0  0  0  0  0
    2.4761   -6.9940   26.4111 N   0  0  0  0  0  0  0  0  0  0  0  0
    9.1353   -5.4053   27.8239 C   0  0  0  0  0  0  0  0  0  0  0  0
    0.9922   -9.3232   16.5995 O   0  0  0  0  0  0  0  0  0  0  0  0
    1.5232   -7.6869   27.1182 C   0  0  0  0  0  0  0  0  0  0  0  0
    8.6878   -6.6715   27.7262 N   0  0  0  0  0  0  0  0  0  0  0  0
    6.9911   -8.2423   27.1808 C   0  0  0  0  0  0  0  0  0  0  0  0
    3.8436   -7.2758   16.0578 C   0  0  0  0  0  0  0  0  0  0  0  0
    3.1882   -9.7190   17.2566 C   0  0  0  0  0  0  0  0  0  0  0  0
    5.3488   -6.1737   26.5092 C   0  0  0  0  0  0  0  0  0  0  0  0
    7.4567   -6.9464   27.2858 C   0  0  0  0  0  0  0  0  0  0  0  0
    0.1921   -5.7592   27.1123 C   0  0  0  0  0  0  0  0  0  0  0  0
    3.5517   -7.7407   25.9711 C   0  0  0  0  0  0  0  0  0  0  0  0
  1  4  4  0
  1 22  4  0
  2 20  4  0
  2 27  4  0
  3 12  4  0
  3 23  4  0
  4 25  4  0
  4 28  1  0
  5  8  4  0
  5 17  4  0
  6  7  4  0
  6 16  4  0
  7 18  4  0
  8 27  4  0
  9 13  4  0
  9 23  4  0
 10 11  1  0
 11 14  2  0
 11 27  1  0
 12 19  1  0
 12 24  4  0
 13 24  4  0
 15 18  1  0
 16 25  4  0
 16 26  4  0
 17 20  4  0
 17 28  1  0
 18 21  4  0
 21 26  4  0
 22 26  4  0
M  END
$$$$

 Created by Python create_sdf_string function

 28 30  0  0  0  0  0  0  0  0999 V2000
    5.7174   -8.4529   26.7190 C   0  0  0  0  0  0  0  0  0  0  0  0
    0.3974   -7.0711   27.5149 C   0  0  0  0  0  0  0  0  0  0  0  0
    2.5338   -7.6891   16.0102 C   0  0  0  0  0  0  0  0  0  0  0  0
    4.8690   -7.4380   26.4151 C   0  0  0  0  0  0  0  0  0  0  0  0
    2.3021   -5.6726   26.0378 C   0  0  0  0  0  0  0  0  0  0  0  0
    7.0880   -4.6163   27.0010 C   0  0  0  0  0  0  0  0  0  0  0  0
    8.3117   -4.3698   27.4436 C   0  0  0  0  0  0  0  0  0  0  0  0
    1.1339   -5.0515   26.3541 C   0  0  0  0  0  0  0  0  0  0  0  0
    4.8080   -8.0362   16.7101 C   0  0  0  0  0  0  0  0  0  0  0  0
   -1.2173   -3.9294   26.9717 O   0  0  0  0  0  0  0  0  0  0  0  0
   -1.0025   -5.0942   27.4586 C   0  0  0  0  0  0  0  0  0  0  0  0
    2.2474   -8.9123   16.6273 C   0  0  0  0  0  0  0  0  0  0  0  0
    4.4957   -9.2636   17.3041 C   0  0  0  0  0  0  0  0  0  0  0  0
   -1.8070   -5.6086   28.1920 O   0  0  0  0  0  0  0  0  0  0  0  0
   10.4296   -5.1799   28.3140 C   0  0  0  0  0  0  0  0  0  0  0  0
    6.6017   -5.9004   26.9187 C   0  0  0  0  0  0  0  0  0  0  0  0
    2.4761   -6.9940   26.4111 N   0  0  0  0  0  0  0  0  0  0  0  0
    9.1353   -5.4053   27.8239 C   0  0  0  0  0  0  0  0  0  0  0  0
    0.9922   -9.3232   16.5995 O   0  0  0  0  0  0  0  0  0  0  0  0
    1.5232   -7.6869   27.1182 C   0  0  0  0  0  0  0  0  0  0  0  0
    8.6878   -6.6715   27.7262 N   0  0  0  0  0  0  0  0  0  0  0  0
    6.9911   -8.2423   27.1808 C   0  0  0  0  0  0  0  0  0  0  0  0
    3.8436   -7.2758   16.0578 C   0  0  0  0  0  0  0  0  0  0  0  0
    3.1882   -9.7190   17.2566 C   0  0  0  0  0  0  0  0  0  0  0  0
    5.3488   -6.1737   26.5092 C   0  0  0  0  0  0  0  0  0  0  0  0
    7.4567   -6.9464   27.2858 C   0  0  0  0  0  0  0  0  0  0  0  0
    0.1921   -5.7592   27.1123 C   0  0  0  0  0  0  0  0  0  0  0  0
    3.5517   -7.7407   25.9711 C   0  0  0  0  0  0  0  0  0  0  0  0
  1  4  4  0
  1 22  4  0
  2 20  4  0
  2 27  4  0
  3 12  4  0
  3 23  4  0
  4 25  4  0
  4 28  1  0
  5  8  4  0
  5 17  4  0
  6  7  4  0
  6 16  4  0
  7 18  4  0
  8 27  4  0
  9 13  4  0
  9 23  4  0
 10 11  1  0
 11 14  2  0
 11 27  1  0
 12 19  1  0
 12 24  4  0
 13 24  4  0
 15 18  1  0
 16 25  4  0
 16 26  4  0
 17 20  4  0
 17 28  1  0
 18 21  4  0
 21 26  4  0
 22 26  4  0
M  END
$$$$

 Created by Python create_sdf_string function

 28 30  0  0  0  0  0  0  0  0999 V2000
    5.7174   -8.4529   26.7190 C   0  0  0  0  0  0  0  0  0  0  0  0
    0.3974   -7.0711   27.5149 C   0  0  0  0  0  0  0  0  0  0  0  0
    2.5338   -7.6891   16.0102 C   0  0  0  0  0  0  0  0  0  0  0  0
    4.8690   -7.4380   26.4151 C   0  0  0  0  0  0  0  0  0  0  0  0
    2.3021   -5.6726   26.0378 C   0  0  0  0  0  0  0  0  0  0  0  0
    7.0880   -4.6163   27.0010 C   0  0  0  0  0  0  0  0  0  0  0  0
    8.3117   -4.3698   27.4436 C   0  0  0  0  0  0  0  0  0  0  0  0
    1.1339   -5.0515   26.3541 C   0  0  0  0  0  0  0  0  0  0  0  0
    4.8080   -8.0362   16.7101 C   0  0  0  0  0  0  0  0  0  0  0  0
   -1.2173   -3.9294   26.9717 O   0  0  0  0  0  0  0  0  0  0  0  0
   -1.0025   -5.0942   27.4586 C   0  0  0  0  0  0  0  0  0  0  0  0
    2.2474   -8.9123   16.6273 C   0  0  0  0  0  0  0  0  0  0  0  0
    4.4957   -9.2636   17.3041 C   0  0  0  0  0  0  0  0  0  0  0  0
   -1.8070   -5.6086   28.1920 O   0  0  0  0  0  0  0  0  0  0  0  0
   10.4296   -5.1799   28.3140 C   0  0  0  0  0  0  0  0  0  0  0  0
    6.6017   -5.9004   26.9187 C   0  0  0  0  0  0  0  0  0  0  0  0
    2.4761   -6.9940   26.4111 N   0  0  0  0  0  0  0  0  0  0  0  0
    9.1353   -5.4053   27.8239 C   0  0  0  0  0  0  0  0  0  0  0  0
    0.9922   -9.3232   16.5995 O   0  0  0  0  0  0  0  0  0  0  0  0
    1.5232   -7.6869   27.1182 C   0  0  0  0  0  0  0  0  0  0  0  0
    8.6878   -6.6715   27.7262 N   0  0  0  0  0  0  0  0  0  0  0  0
    6.9911   -8.2423   27.1808 C   0  0  0  0  0  0  0  0  0  0  0  0
    3.8436   -7.2758   16.0578 C   0  0  0  0  0  0  0  0  0  0  0  0
    3.1882   -9.7190   17.2566 C   0  0  0  0  0  0  0  0  0  0  0  0
    5.3488   -6.1737   26.5092 C   0  0  0  0  0  0  0  0  0  0  0  0
    7.4567   -6.9464   27.2858 C   0  0  0  0  0  0  0  0  0  0  0  0
    0.1921   -5.7592   27.1123 C   0  0  0  0  0  0  0  0  0  0  0  0
    3.5517   -7.7407   25.9711 C   0  0  0  0  0  0  0  0  0  0  0  0
  1  4  4  0
  1 22  4  0
  2 20  4  0
  2 27  4  0
  3 12  4  0
  3 23  4  0
  4 25  4  0
  4 28  1  0
  5  8  4  0
  5 17  4  0
  6  7  4  0
  6 16  4  0
  7 18  4  0
  8 27  4  0
  9 13  4  0
  9 23  4  0
 10 11  1  0
 11 14  2  0
 11 27  1  0
 12 19  1  0
 12 24  4  0
 13 24  4  0
 15 18  1  0
 16 25  4  0
 16 26  4  0
 17 20  4  0
 17 28  1  0
 18 21  4  0
 21 26  4  0
 22 26  4  0
M  END
$$$$

 Created by Python create_sdf_string function

 28 30  0  0  0  0  0  0  0  0999 V2000
    5.7174   -8.4529   26.7190 C   0  0  0  0  0  0  0  0  0  0  0  0
    0.3974   -7.0711   27.5149 C   0  0  0  0  0  0  0  0  0  0  0  0
    2.5338   -7.6891   16.0102 C   0  0  0  0  0  0  0  0  0  0  0  0
    4.8690   -7.4380   26.4151 C   0  0  0  0  0  0  0  0  0  0  0  0
    2.3021   -5.6726   26.0378 C   0  0  0  0  0  0  0  0  0  0  0  0
    7.0880   -4.6163   27.0010 C   0  0  0  0  0  0  0  0  0  0  0  0
    8.3117   -4.3698   27.4436 C   0  0  0  0  0  0  0  0  0  0  0  0
    1.1339   -5.0515   26.3541 C   0  0  0  0  0  0  0  0  0  0  0  0
    4.8080   -8.0362   16.7101 C   0  0  0  0  0  0  0  0  0  0  0  0
   -1.2173   -3.9294   26.9717 O   0  0  0  0  0  0  0  0  0  0  0  0
   -1.0025   -5.0942   27.4586 C   0  0  0  0  0  0  0  0  0  0  0  0
    2.2474   -8.9123   16.6273 C   0  0  0  0  0  0  0  0  0  0  0  0
    4.4957   -9.2636   17.3041 C   0  0  0  0  0  0  0  0  0  0  0  0
   -1.8070   -5.6086   28.1920 O   0  0  0  0  0  0  0  0  0  0  0  0
   10.4296   -5.1799   28.3140 C   0  0  0  0  0  0  0  0  0  0  0  0
    6.6017   -5.9004   26.9187 C   0  0  0  0  0  0  0  0  0  0  0  0
    2.4761   -6.9940   26.4111 N   0  0  0  0  0  0  0  0  0  0  0  0
    9.1353   -5.4053   27.8239 C   0  0  0  0  0  0  0  0  0  0  0  0
    0.9922   -9.3232   16.5995 O   0  0  0  0  0  0  0  0  0  0  0  0
    1.5232   -7.6869   27.1182 C   0  0  0  0  0  0  0  0  0  0  0  0
    8.6878   -6.6715   27.7262 N   0  0  0  0  0  0  0  0  0  0  0  0
    6.9911   -8.2423   27.1808 C   0  0  0  0  0  0  0  0  0  0  0  0
    3.8436   -7.2758   16.0578 C   0  0  0  0  0  0  0  0  0  0  0  0
    3.1882   -9.7190   17.2566 C   0  0  0  0  0  0  0  0  0  0  0  0
    5.3488   -6.1737   26.5092 C   0  0  0  0  0  0  0  0  0  0  0  0
    7.4567   -6.9464   27.2858 C   0  0  0  0  0  0  0  0  0  0  0  0
    0.1921   -5.7592   27.1123 C   0  0  0  0  0  0  0  0  0  0  0  0
    3.5517   -7.7407   25.9711 C   0  0  0  0  0  0  0  0  0  0  0  0
  1  4  4  0
  1 22  4  0
  2 20  4  0
  2 27  4  0
  3 12  4  0
  3 23  4  0
  4 25  4  0
  4 28  1  0
  5  8  4  0
  5 17  4  0
  6  7  4  0
  6 16  4  0
  7 18  4  0
  8 27  4  0
  9 13  4  0
  9 23  4  0
 10 11  1  0
 11 14  2  0
 11 27  1  0
 12 19  1  0
 12 24  4  0
 13 24  4  0
 15 18  1  0
 16 25  4  0
 16 26  4  0
 17 20  4  0
 17 28  1  0
 18 21  4  0
 21 26  4  0
 22 26  4  0
M  END
$$$$

 Created by Python create_sdf_string function

 28 30  0  0  0  0  0  0  0  0999 V2000
    5.7174   -8.4529   26.7190 C   0  0  0  0  0  0  0  0  0  0  0  0
    0.3974   -7.0711   27.5149 C   0  0  0  0  0  0  0  0  0  0  0  0
    2.5338   -7.6891   16.0102 C   0  0  0  0  0  0  0  0  0  0  0  0
    4.8690   -7.4380   26.4151 C   0  0  0  0  0  0  0  0  0  0  0  0
    2.3021   -5.6726   26.0378 C   0  0  0  0  0  0  0  0  0  0  0  0
    7.0880   -4.6163   27.0010 C   0  0  0  0  0  0  0  0  0  0  0  0
    8.3117   -4.3698   27.4436 C   0  0  0  0  0  0  0  0  0  0  0  0
    1.1339   -5.0515   26.3541 C   0  0  0  0  0  0  0  0  0  0  0  0
    4.8080   -8.0362   16.7101 C   0  0  0  0  0  0  0  0  0  0  0  0
   -1.2173   -3.9294   26.9717 O   0  0  0  0  0  0  0  0  0  0  0  0
   -1.0025   -5.0942   27.4586 C   0  0  0  0  0  0  0  0  0  0  0  0
    2.2474   -8.9123   16.6273 C   0  0  0  0  0  0  0  0  0  0  0  0
    4.4957   -9.2636   17.3041 C   0  0  0  0  0  0  0  0  0  0  0  0
   -1.8070   -5.6086   28.1920 O   0  0  0  0  0  0  0  0  0  0  0  0
   10.4296   -5.1799   28.3140 C   0  0  0  0  0  0  0  0  0  0  0  0
    6.6017   -5.9004   26.9187 C   0  0  0  0  0  0  0  0  0  0  0  0
    2.4761   -6.9940   26.4111 N   0  0  0  0  0  0  0  0  0  0  0  0
    9.1353   -5.4053   27.8239 C   0  0  0  0  0  0  0  0  0  0  0  0
    0.9922   -9.3232   16.5995 O   0  0  0  0  0  0  0  0  0  0  0  0
    1.5232   -7.6869   27.1182 C   0  0  0  0  0  0  0  0  0  0  0  0
    8.6878   -6.6715   27.7262 N   0  0  0  0  0  0  0  0  0  0  0  0
    6.9911   -8.2423   27.1808 C   0  0  0  0  0  0  0  0  0  0  0  0
    3.8436   -7.2758   16.0578 C   0  0  0  0  0  0  0  0  0  0  0  0
    3.1882   -9.7190   17.2566 C   0  0  0  0  0  0  0  0  0  0  0  0
    5.3488   -6.1737   26.5092 C   0  0  0  0  0  0  0  0  0  0  0  0
    7.4567   -6.9464   27.2858 C   0  0  0  0  0  0  0  0  0  0  0  0
    0.1921   -5.7592   27.1123 C   0  0  0  0  0  0  0  0  0  0  0  0
    3.5517   -7.7407   25.9711 C   0  0  0  0  0  0  0  0  0  0  0  0
  1  4  4  0
  1 22  4  0
  2 20  4  0
  2 27  4  0
  3 12  4  0
  3 23  4  0
  4 25  4  0
  4 28  1  0
  5  8  4  0
  5 17  4  0
  6  7  4  0
  6 16  4  0
  7 18  4  0
  8 27  4  0
  9 13  4  0
  9 23  4  0
 10 11  1  0
 11 14  2  0
 11 27  1  0
 12 19  1  0
 12 24  4  0
 13 24  4  0
 15 18  1  0
 16 25  4  0
 16 26  4  0
 17 20  4  0
 17 28  1  0
 18 21  4  0
 21 26  4  0
 22 26  4  0
M  END
$$$$

 Created by Python create_sdf_string function

 28 30  0  0  0  0  0  0  0  0999 V2000
    5.7174   -8.4529   26.7190 C   0  0  0  0  0  0  0  0  0  0  0  0
    0.3974   -7.0711   27.5149 C   0  0  0  0  0  0  0  0  0  0  0  0
    2.5338   -7.6891   16.0102 C   0  0  0  0  0  0  0  0  0  0  0  0
    4.8690   -7.4380   26.4151 C   0  0  0  0  0  0  0  0  0  0  0  0
    2.3021   -5.6726   26.0378 C   0  0  0  0  0  0  0  0  0  0  0  0
    7.0880   -4.6163   27.0010 C   0  0  0  0  0  0  0  0  0  0  0  0
    8.3117   -4.3698   27.4436 C   0  0  0  0  0  0  0  0  0  0  0  0
    1.1339   -5.0515   26.3541 C   0  0  0  0  0  0  0  0  0  0  0  0
    4.8080   -8.0362   16.7101 C   0  0  0  0  0  0  0  0  0  0  0  0
   -1.2173   -3.9294   26.9717 O   0  0  0  0  0  0  0  0  0  0  0  0
   -1.0025   -5.0942   27.4586 C   0  0  0  0  0  0  0  0  0  0  0  0
    2.2474   -8.9123   16.6273 C   0  0  0  0  0  0  0  0  0  0  0  0
    4.4957   -9.2636   17.3041 C   0  0  0  0  0  0  0  0  0  0  0  0
   -1.8070   -5.6086   28.1920 O   0  0  0  0  0  0  0  0  0  0  0  0
   10.4296   -5.1799   28.3140 C   0  0  0  0  0  0  0  0  0  0  0  0
    6.6017   -5.9004   26.9187 C   0  0  0  0  0  0  0  0  0  0  0  0
    2.4761   -6.9940   26.4111 N   0  0  0  0  0  0  0  0  0  0  0  0
    9.1353   -5.4053   27.8239 C   0  0  0  0  0  0  0  0  0  0  0  0
    0.9922   -9.3232   16.5995 O   0  0  0  0  0  0  0  0  0  0  0  0
    1.5232   -7.6869   27.1182 C   0  0  0  0  0  0  0  0  0  0  0  0
    8.6878   -6.6715   27.7262 N   0  0  0  0  0  0  0  0  0  0  0  0
    6.9911   -8.2423   27.1808 C   0  0  0  0  0  0  0  0  0  0  0  0
    3.8436   -7.2758   16.0578 C   0  0  0  0  0  0  0  0  0  0  0  0
    3.1882   -9.7190   17.2566 C   0  0  0  0  0  0  0  0  0  0  0  0
    5.3488   -6.1737   26.5092 C   0  0  0  0  0  0  0  0  0  0  0  0
    7.4567   -6.9464   27.2858 C   0  0  0  0  0  0  0  0  0  0  0  0
    0.1921   -5.7592   27.1123 C   0  0  0  0  0  0  0  0  0  0  0  0
    3.5517   -7.7407   25.9711 C   0  0  0  0  0  0  0  0  0  0  0  0
  1  4  4  0
  1 22  4  0
  2 20  4  0
  2 27  4  0
  3 12  4  0
  3 23  4  0
  4 25  4  0
  4 28  1  0
  5  8  4  0
  5 17  4  0
  6  7  4  0
  6 16  4  0
  7 18  4  0
  8 27  4  0
  9 13  4  0
  9 23  4  0
 10 11  1  0
 11 14  2  0
 11 27  1  0
 12 19  1  0
 12 24  4  0
 13 24  4  0
 15 18  1  0
 16 25  4  0
 16 26  4  0
 17 20  4  0
 17 28  1  0
 18 21  4  0
 21 26  4  0
 22 26  4  0
M  END
$$$$

 Created by Python create_sdf_string function

 28 30  0  0  0  0  0  0  0  0999 V2000
    5.7174   -8.4529   26.7190 C   0  0  0  0  0  0  0  0  0  0  0  0
    0.3974   -7.0711   27.5149 C   0  0  0  0  0  0  0  0  0  0  0  0
    2.5338   -7.6891   16.0102 C   0  0  0  0  0  0  0  0  0  0  0  0
    4.8690   -7.4380   26.4151 C   0  0  0  0  0  0  0  0  0  0  0  0
    2.3021   -5.6726   26.0378 C   0  0  0  0  0  0  0  0  0  0  0  0
    7.0880   -4.6163   27.0010 C   0  0  0  0  0  0  0  0  0  0  0  0
    8.3117   -4.3698   27.4436 C   0  0  0  0  0  0  0  0  0  0  0  0
    1.1339   -5.0515   26.3541 C   0  0  0  0  0  0  0  0  0  0  0  0
    4.8080   -8.0362   16.7101 C   0  0  0  0  0  0  0  0  0  0  0  0
   -1.2173   -3.9294   26.9717 O   0  0  0  0  0  0  0  0  0  0  0  0
   -1.0025   -5.0942   27.4586 C   0  0  0  0  0  0  0  0  0  0  0  0
    2.2474   -8.9123   16.6273 C   0  0  0  0  0  0  0  0  0  0  0  0
    4.4957   -9.2636   17.3041 C   0  0  0  0  0  0  0  0  0  0  0  0
   -1.8070   -5.6086   28.1920 O   0  0  0  0  0  0  0  0  0  0  0  0
   10.4296   -5.1799   28.3140 C   0  0  0  0  0  0  0  0  0  0  0  0
    6.6017   -5.9004   26.9187 C   0  0  0  0  0  0  0  0  0  0  0  0
    2.4761   -6.9940   26.4111 N   0  0  0  0  0  0  0  0  0  0  0  0
    9.1353   -5.4053   27.8239 C   0  0  0  0  0  0  0  0  0  0  0  0
    0.9922   -9.3232   16.5995 O   0  0  0  0  0  0  0  0  0  0  0  0
    1.5232   -7.6869   27.1182 C   0  0  0  0  0  0  0  0  0  0  0  0
    8.6878   -6.6715   27.7262 N   0  0  0  0  0  0  0  0  0  0  0  0
    6.9911   -8.2423   27.1808 C   0  0  0  0  0  0  0  0  0  0  0  0
    3.8436   -7.2758   16.0578 C   0  0  0  0  0  0  0  0  0  0  0  0
    3.1882   -9.7190   17.2566 C   0  0  0  0  0  0  0  0  0  0  0  0
    5.3488   -6.1737   26.5092 C   0  0  0  0  0  0  0  0  0  0  0  0
    7.4567   -6.9464   27.2858 C   0  0  0  0  0  0  0  0  0  0  0  0
    0.1921   -5.7592   27.1123 C   0  0  0  0  0  0  0  0  0  0  0  0
    3.5517   -7.7407   25.9711 C   0  0  0  0  0  0  0  0  0  0  0  0
  1  4  4  0
  1 22  4  0
  2 20  4  0
  2 27  4  0
  3 12  4  0
  3 23  4  0
  4 25  4  0
  4 28  1  0
  5  8  4  0
  5 17  4  0
  6  7  4  0
  6 16  4  0
  7 18  4  0
  8 27  4  0
  9 13  4  0
  9 23  4  0
 10 11  1  0
 11 14  2  0
 11 27  1  0
 12 19  1  0
 12 24  4  0
 13 24  4  0
 15 18  1  0
 16 25  4  0
 16 26  4  0
 17 20  4  0
 17 28  1  0
 18 21  4  0
 21 26  4  0
 22 26  4  0
M  END
$$$$

 Created by Python create_sdf_string function

 28 30  0  0  0  0  0  0  0  0999 V2000
    5.7174   -8.4529   26.7190 C   0  0  0  0  0  0  0  0  0  0  0  0
    0.3974   -7.0711   27.5149 C   0  0  0  0  0  0  0  0  0  0  0  0
    2.5338   -7.6891   16.0102 C   0  0  0  0  0  0  0  0  0  0  0  0
    4.8690   -7.4380   26.4151 C   0  0  0  0  0  0  0  0  0  0  0  0
    2.3021   -5.6726   26.0378 C   0  0  0  0  0  0  0  0  0  0  0  0
    7.0880   -4.6163   27.0010 C   0  0  0  0  0  0  0  0  0  0  0  0
    8.3117   -4.3698   27.4436 C   0  0  0  0  0  0  0  0  0  0  0  0
    1.1339   -5.0515   26.3541 C   0  0  0  0  0  0  0  0  0  0  0  0
    4.8080   -8.0362   16.7101 C   0  0  0  0  0  0  0  0  0  0  0  0
   -1.2173   -3.9294   26.9717 O   0  0  0  0  0  0  0  0  0  0  0  0
   -1.0025   -5.0942   27.4586 C   0  0  0  0  0  0  0  0  0  0  0  0
    2.2474   -8.9123   16.6273 C   0  0  0  0  0  0  0  0  0  0  0  0
    4.4957   -9.2636   17.3041 C   0  0  0  0  0  0  0  0  0  0  0  0
   -1.8070   -5.6086   28.1920 O   0  0  0  0  0  0  0  0  0  0  0  0
   10.4296   -5.1799   28.3140 C   0  0  0  0  0  0  0  0  0  0  0  0
    6.6017   -5.9004   26.9187 C   0  0  0  0  0  0  0  0  0  0  0  0
    2.4761   -6.9940   26.4111 N   0  0  0  0  0  0  0  0  0  0  0  0
    9.1353   -5.4053   27.8239 C   0  0  0  0  0  0  0  0  0  0  0  0
    0.9922   -9.3232   16.5995 O   0  0  0  0  0  0  0  0  0  0  0  0
    1.5232   -7.6869   27.1182 C   0  0  0  0  0  0  0  0  0  0  0  0
    8.6878   -6.6715   27.7262 N   0  0  0  0  0  0  0  0  0  0  0  0
    6.9911   -8.2423   27.1808 C   0  0  0  0  0  0  0  0  0  0  0  0
    3.8436   -7.2758   16.0578 C   0  0  0  0  0  0  0  0  0  0  0  0
    3.1882   -9.7190   17.2566 C   0  0  0  0  0  0  0  0  0  0  0  0
    5.3488   -6.1737   26.5092 C   0  0  0  0  0  0  0  0  0  0  0  0
    7.4567   -6.9464   27.2858 C   0  0  0  0  0  0  0  0  0  0  0  0
    0.1921   -5.7592   27.1123 C   0  0  0  0  0  0  0  0  0  0  0  0
    3.5517   -7.7407   25.9711 C   0  0  0  0  0  0  0  0  0  0  0  0
  1  4  4  0
  1 22  4  0
  2 20  4  0
  2 27  4  0
  3 12  4  0
  3 23  4  0
  4 25  4  0
  4 28  1  0
  5  8  4  0
  5 17  4  0
  6  7  4  0
  6 16  4  0
  7 18  4  0
  8 27  4  0
  9 13  4  0
  9 23  4  0
 10 11  1  0
 11 14  2  0
 11 27  1  0
 12 19  1  0
 12 24  4  0
 13 24  4  0
 15 18  1  0
 16 25  4  0
 16 26  4  0
 17 20  4  0
 17 28  1  0
 18 21  4  0
 21 26  4  0
 22 26  4  0
M  END
$$$$

 Created by Python create_sdf_string function

 28 30  0  0  0  0  0  0  0  0999 V2000
    5.7174   -8.4529   26.7190 C   0  0  0  0  0  0  0  0  0  0  0  0
    0.3974   -7.0711   27.5149 C   0  0  0  0  0  0  0  0  0  0  0  0
    2.5338   -7.6891   16.0102 C   0  0  0  0  0  0  0  0  0  0  0  0
    4.8690   -7.4380   26.4151 C   0  0  0  0  0  0  0  0  0  0  0  0
    2.3021   -5.6726   26.0378 C   0  0  0  0  0  0  0  0  0  0  0  0
    7.0880   -4.6163   27.0010 C   0  0  0  0  0  0  0  0  0  0  0  0
    8.3117   -4.3698   27.4436 C   0  0  0  0  0  0  0  0  0  0  0  0
    1.1339   -5.0515   26.3541 C   0  0  0  0  0  0  0  0  0  0  0  0
    4.8080   -8.0362   16.7101 C   0  0  0  0  0  0  0  0  0  0  0  0
   -1.2173   -3.9294   26.9717 O   0  0  0  0  0  0  0  0  0  0  0  0
   -1.0025   -5.0942   27.4586 C   0  0  0  0  0  0  0  0  0  0  0  0
    2.2474   -8.9123   16.6273 C   0  0  0  0  0  0  0  0  0  0  0  0
    4.4957   -9.2636   17.3041 C   0  0  0  0  0  0  0  0  0  0  0  0
   -1.8070   -5.6086   28.1920 O   0  0  0  0  0  0  0  0  0  0  0  0
   10.4296   -5.1799   28.3140 C   0  0  0  0  0  0  0  0  0  0  0  0
    6.6017   -5.9004   26.9187 C   0  0  0  0  0  0  0  0  0  0  0  0
    2.4761   -6.9940   26.4111 N   0  0  0  0  0  0  0  0  0  0  0  0
    9.1353   -5.4053   27.8239 C   0  0  0  0  0  0  0  0  0  0  0  0
    0.9922   -9.3232   16.5995 O   0  0  0  0  0  0  0  0  0  0  0  0
    1.5232   -7.6869   27.1182 C   0  0  0  0  0  0  0  0  0  0  0  0
    8.6878   -6.6715   27.7262 N   0  0  0  0  0  0  0  0  0  0  0  0
    6.9911   -8.2423   27.1808 C   0  0  0  0  0  0  0  0  0  0  0  0
    3.8436   -7.2758   16.0578 C   0  0  0  0  0  0  0  0  0  0  0  0
    3.1882   -9.7190   17.2566 C   0  0  0  0  0  0  0  0  0  0  0  0
    5.3488   -6.1737   26.5092 C   0  0  0  0  0  0  0  0  0  0  0  0
    7.4567   -6.9464   27.2858 C   0  0  0  0  0  0  0  0  0  0  0  0
    0.1921   -5.7592   27.1123 C   0  0  0  0  0  0  0  0  0  0  0  0
    3.5517   -7.7407   25.9711 C   0  0  0  0  0  0  0  0  0  0  0  0
  1  4  4  0
  1 22  4  0
  2 20  4  0
  2 27  4  0
  3 12  4  0
  3 23  4  0
  4 25  4  0
  4 28  1  0
  5  8  4  0
  5 17  4  0
  6  7  4  0
  6 16  4  0
  7 18  4  0
  8 27  4  0
  9 13  4  0
  9 23  4  0
 10 11  1  0
 11 14  2  0
 11 27  1  0
 12 19  1  0
 12 24  4  0
 13 24  4  0
 15 18  1  0
 16 25  4  0
 16 26  4  0
 17 20  4  0
 17 28  1  0
 18 21  4  0
 21 26  4  0
 22 26  4  0
M  END
$$$$

 Created by Python create_sdf_string function

 28 30  0  0  0  0  0  0  0  0999 V2000
    5.7174   -8.4529   26.7190 C   0  0  0  0  0  0  0  0  0  0  0  0
    0.3974   -7.0711   27.5149 C   0  0  0  0  0  0  0  0  0  0  0  0
    2.5338   -7.6891   16.0102 C   0  0  0  0  0  0  0  0  0  0  0  0
    4.8690   -7.4380   26.4151 C   0  0  0  0  0  0  0  0  0  0  0  0
    2.3021   -5.6726   26.0378 C   0  0  0  0  0  0  0  0  0  0  0  0
    7.0880   -4.6163   27.0010 C   0  0  0  0  0  0  0  0  0  0  0  0
    8.3117   -4.3698   27.4436 C   0  0  0  0  0  0  0  0  0  0  0  0
    1.1339   -5.0515   26.3541 C   0  0  0  0  0  0  0  0  0  0  0  0
    4.8080   -8.0362   16.7101 C   0  0  0  0  0  0  0  0  0  0  0  0
   -1.2173   -3.9294   26.9717 O   0  0  0  0  0  0  0  0  0  0  0  0
   -1.0025   -5.0942   27.4586 C   0  0  0  0  0  0  0  0  0  0  0  0
    2.2474   -8.9123   16.6273 C   0  0  0  0  0  0  0  0  0  0  0  0
    4.4957   -9.2636   17.3041 C   0  0  0  0  0  0  0  0  0  0  0  0
   -1.8070   -5.6086   28.1920 O   0  0  0  0  0  0  0  0  0  0  0  0
   10.4296   -5.1799   28.3140 C   0  0  0  0  0  0  0  0  0  0  0  0
    6.6017   -5.9004   26.9187 C   0  0  0  0  0  0  0  0  0  0  0  0
    2.4761   -6.9940   26.4111 N   0  0  0  0  0  0  0  0  0  0  0  0
    9.1353   -5.4053   27.8239 C   0  0  0  0  0  0  0  0  0  0  0  0
    0.9922   -9.3232   16.5995 O   0  0  0  0  0  0  0  0  0  0  0  0
    1.5232   -7.6869   27.1182 C   0  0  0  0  0  0  0  0  0  0  0  0
    8.6878   -6.6715   27.7262 N   0  0  0  0  0  0  0  0  0  0  0  0
    6.9911   -8.2423   27.1808 C   0  0  0  0  0  0  0  0  0  0  0  0
    3.8436   -7.2758   16.0578 C   0  0  0  0  0  0  0  0  0  0  0  0
    3.1882   -9.7190   17.2566 C   0  0  0  0  0  0  0  0  0  0  0  0
    5.3488   -6.1737   26.5092 C   0  0  0  0  0  0  0  0  0  0  0  0
    7.4567   -6.9464   27.2858 C   0  0  0  0  0  0  0  0  0  0  0  0
    0.1921   -5.7592   27.1123 C   0  0  0  0  0  0  0  0  0  0  0  0
    3.5517   -7.7407   25.9711 C   0  0  0  0  0  0  0  0  0  0  0  0
  1  4  4  0
  1 22  4  0
  2 20  4  0
  2 27  4  0
  3 12  4  0
  3 23  4  0
  4 25  4  0
  4 28  1  0
  5  8  4  0
  5 17  4  0
  6  7  4  0
  6 16  4  0
  7 18  4  0
  8 27  4  0
  9 13  4  0
  9 23  4  0
 10 11  1  0
 11 14  2  0
 11 27  1  0
 12 19  1  0
 12 24  4  0
 13 24  4  0
 15 18  1  0
 16 25  4  0
 16 26  4  0
 17 20  4  0
 17 28  1  0
 18 21  4  0
 21 26  4  0
 22 26  4  0
M  END
$$$$

 Created by Python create_sdf_string function

 28 30  0  0  0  0  0  0  0  0999 V2000
    5.7174   -8.4529   26.7190 C   0  0  0  0  0  0  0  0  0  0  0  0
    0.3974   -7.0711   27.5149 C   0  0  0  0  0  0  0  0  0  0  0  0
    2.5338   -7.6891   16.0102 C   0  0  0  0  0  0  0  0  0  0  0  0
    4.8690   -7.4380   26.4151 C   0  0  0  0  0  0  0  0  0  0  0  0
    2.3021   -5.6726   26.0378 C   0  0  0  0  0  0  0  0  0  0  0  0
    7.0880   -4.6163   27.0010 C   0  0  0  0  0  0  0  0  0  0  0  0
    8.3117   -4.3698   27.4436 C   0  0  0  0  0  0  0  0  0  0  0  0
    1.1339   -5.0515   26.3541 C   0  0  0  0  0  0  0  0  0  0  0  0
    4.8080   -8.0362   16.7101 C   0  0  0  0  0  0  0  0  0  0  0  0
   -1.2173   -3.9294   26.9717 O   0  0  0  0  0  0  0  0  0  0  0  0
   -1.0025   -5.0942   27.4586 C   0  0  0  0  0  0  0  0  0  0  0  0
    2.2474   -8.9123   16.6273 C   0  0  0  0  0  0  0  0  0  0  0  0
    4.4957   -9.2636   17.3041 C   0  0  0  0  0  0  0  0  0  0  0  0
   -1.8070   -5.6086   28.1920 O   0  0  0  0  0  0  0  0  0  0  0  0
   10.4296   -5.1799   28.3140 C   0  0  0  0  0  0  0  0  0  0  0  0
    6.6017   -5.9004   26.9187 C   0  0  0  0  0  0  0  0  0  0  0  0
    2.4761   -6.9940   26.4111 N   0  0  0  0  0  0  0  0  0  0  0  0
    9.1353   -5.4053   27.8239 C   0  0  0  0  0  0  0  0  0  0  0  0
    0.9922   -9.3232   16.5995 O   0  0  0  0  0  0  0  0  0  0  0  0
    1.5232   -7.6869   27.1182 C   0  0  0  0  0  0  0  0  0  0  0  0
    8.6878   -6.6715   27.7262 N   0  0  0  0  0  0  0  0  0  0  0  0
    6.9911   -8.2423   27.1808 C   0  0  0  0  0  0  0  0  0  0  0  0
    3.8436   -7.2758   16.0578 C   0  0  0  0  0  0  0  0  0  0  0  0
    3.1882   -9.7190   17.2566 C   0  0  0  0  0  0  0  0  0  0  0  0
    5.3488   -6.1737   26.5092 C   0  0  0  0  0  0  0  0  0  0  0  0
    7.4567   -6.9464   27.2858 C   0  0  0  0  0  0  0  0  0  0  0  0
    0.1921   -5.7592   27.1123 C   0  0  0  0  0  0  0  0  0  0  0  0
    3.5517   -7.7407   25.9711 C   0  0  0  0  0  0  0  0  0  0  0  0
  1  4  4  0
  1 22  4  0
  2 20  4  0
  2 27  4  0
  3 12  4  0
  3 23  4  0
  4 25  4  0
  4 28  1  0
  5  8  4  0
  5 17  4  0
  6  7  4  0
  6 16  4  0
  7 18  4  0
  8 27  4  0
  9 13  4  0
  9 23  4  0
 10 11  1  0
 11 14  2  0
 11 27  1  0
 12 19  1  0
 12 24  4  0
 13 24  4  0
 15 18  1  0
 16 25  4  0
 16 26  4  0
 17 20  4  0
 17 28  1  0
 18 21  4  0
 21 26  4  0
 22 26  4  0
M  END
$$$$

 Created by Python create_sdf_string function

 28 30  0  0  0  0  0  0  0  0999 V2000
    5.7174   -8.4529   26.7190 C   0  0  0  0  0  0  0  0  0  0  0  0
    0.3974   -7.0711   27.5149 C   0  0  0  0  0  0  0  0  0  0  0  0
    2.5338   -7.6891   16.0102 C   0  0  0  0  0  0  0  0  0  0  0  0
    4.8690   -7.4380   26.4151 C   0  0  0  0  0  0  0  0  0  0  0  0
    2.3021   -5.6726   26.0378 C   0  0  0  0  0  0  0  0  0  0  0  0
    7.0880   -4.6163   27.0010 C   0  0  0  0  0  0  0  0  0  0  0  0
    8.3117   -4.3698   27.4436 C   0  0  0  0  0  0  0  0  0  0  0  0
    1.1339   -5.0515   26.3541 C   0  0  0  0  0  0  0  0  0  0  0  0
    4.8080   -8.0362   16.7101 C   0  0  0  0  0  0  0  0  0  0  0  0
   -1.2173   -3.9294   26.9717 O   0  0  0  0  0  0  0  0  0  0  0  0
   -1.0025   -5.0942   27.4586 C   0  0  0  0  0  0  0  0  0  0  0  0
    2.2474   -8.9123   16.6273 C   0  0  0  0  0  0  0  0  0  0  0  0
    4.4957   -9.2636   17.3041 C   0  0  0  0  0  0  0  0  0  0  0  0
   -1.8070   -5.6086   28.1920 O   0  0  0  0  0  0  0  0  0  0  0  0
   10.4296   -5.1799   28.3140 C   0  0  0  0  0  0  0  0  0  0  0  0
    6.6017   -5.9004   26.9187 C   0  0  0  0  0  0  0  0  0  0  0  0
    2.4761   -6.9940   26.4111 N   0  0  0  0  0  0  0  0  0  0  0  0
    9.1353   -5.4053   27.8239 C   0  0  0  0  0  0  0  0  0  0  0  0
    0.9922   -9.3232   16.5995 O   0  0  0  0  0  0  0  0  0  0  0  0
    1.5232   -7.6869   27.1182 C   0  0  0  0  0  0  0  0  0  0  0  0
    8.6878   -6.6715   27.7262 N   0  0  0  0  0  0  0  0  0  0  0  0
    6.9911   -8.2423   27.1808 C   0  0  0  0  0  0  0  0  0  0  0  0
    3.8436   -7.2758   16.0578 C   0  0  0  0  0  0  0  0  0  0  0  0
    3.1882   -9.7190   17.2566 C   0  0  0  0  0  0  0  0  0  0  0  0
    5.3488   -6.1737   26.5092 C   0  0  0  0  0  0  0  0  0  0  0  0
    7.4567   -6.9464   27.2858 C   0  0  0  0  0  0  0  0  0  0  0  0
    0.1921   -5.7592   27.1123 C   0  0  0  0  0  0  0  0  0  0  0  0
    3.5517   -7.7407   25.9711 C   0  0  0  0  0  0  0  0  0  0  0  0
  1  4  4  0
  1 22  4  0
  2 20  4  0
  2 27  4  0
  3 12  4  0
  3 23  4  0
  4 25  4  0
  4 28  1  0
  5  8  4  0
  5 17  4  0
  6  7  4  0
  6 16  4  0
  7 18  4  0
  8 27  4  0
  9 13  4  0
  9 23  4  0
 10 11  1  0
 11 14  2  0
 11 27  1  0
 12 19  1  0
 12 24  4  0
 13 24  4  0
 15 18  1  0
 16 25  4  0
 16 26  4  0
 17 20  4  0
 17 28  1  0
 18 21  4  0
 21 26  4  0
 22 26  4  0
M  END
$$$$

 Created by Python create_sdf_string function

 28 30  0  0  0  0  0  0  0  0999 V2000
    5.7174   -8.4529   26.7190 C   0  0  0  0  0  0  0  0  0  0  0  0
    0.3974   -7.0711   27.5149 C   0  0  0  0  0  0  0  0  0  0  0  0
    2.5338   -7.6891   16.0102 C   0  0  0  0  0  0  0  0  0  0  0  0
    4.8690   -7.4380   26.4151 C   0  0  0  0  0  0  0  0  0  0  0  0
    2.3021   -5.6726   26.0378 C   0  0  0  0  0  0  0  0  0  0  0  0
    7.0880   -4.6163   27.0010 C   0  0  0  0  0  0  0  0  0  0  0  0
    8.3117   -4.3698   27.4436 C   0  0  0  0  0  0  0  0  0  0  0  0
    1.1339   -5.0515   26.3541 C   0  0  0  0  0  0  0  0  0  0  0  0
    4.8080   -8.0362   16.7101 C   0  0  0  0  0  0  0  0  0  0  0  0
   -1.2173   -3.9294   26.9717 O   0  0  0  0  0  0  0  0  0  0  0  0
   -1.0025   -5.0942   27.4586 C   0  0  0  0  0  0  0  0  0  0  0  0
    2.2474   -8.9123   16.6273 C   0  0  0  0  0  0  0  0  0  0  0  0
    4.4957   -9.2636   17.3041 C   0  0  0  0  0  0  0  0  0  0  0  0
   -1.8070   -5.6086   28.1920 O   0  0  0  0  0  0  0  0  0  0  0  0
   10.4296   -5.1799   28.3140 C   0  0  0  0  0  0  0  0  0  0  0  0
    6.6017   -5.9004   26.9187 C   0  0  0  0  0  0  0  0  0  0  0  0
    2.4761   -6.9940   26.4111 N   0  0  0  0  0  0  0  0  0  0  0  0
    9.1353   -5.4053   27.8239 C   0  0  0  0  0  0  0  0  0  0  0  0
    0.9922   -9.3232   16.5995 O   0  0  0  0  0  0  0  0  0  0  0  0
    1.5232   -7.6869   27.1182 C   0  0  0  0  0  0  0  0  0  0  0  0
    8.6878   -6.6715   27.7262 N   0  0  0  0  0  0  0  0  0  0  0  0
    6.9911   -8.2423   27.1808 C   0  0  0  0  0  0  0  0  0  0  0  0
    3.8436   -7.2758   16.0578 C   0  0  0  0  0  0  0  0  0  0  0  0
    3.1882   -9.7190   17.2566 C   0  0  0  0  0  0  0  0  0  0  0  0
    5.3488   -6.1737   26.5092 C   0  0  0  0  0  0  0  0  0  0  0  0
    7.4567   -6.9464   27.2858 C   0  0  0  0  0  0  0  0  0  0  0  0
    0.1921   -5.7592   27.1123 C   0  0  0  0  0  0  0  0  0  0  0  0
    3.5517   -7.7407   25.9711 C   0  0  0  0  0  0  0  0  0  0  0  0
  1  4  4  0
  1 22  4  0
  2 20  4  0
  2 27  4  0
  3 12  4  0
  3 23  4  0
  4 25  4  0
  4 28  1  0
  5  8  4  0
  5 17  4  0
  6  7  4  0
  6 16  4  0
  7 18  4  0
  8 27  4  0
  9 13  4  0
  9 23  4  0
 10 11  1  0
 11 14  2  0
 11 27  1  0
 12 19  1  0
 12 24  4  0
 13 24  4  0
 15 18  1  0
 16 25  4  0
 16 26  4  0
 17 20  4  0
 17 28  1  0
 18 21  4  0
 21 26  4  0
 22 26  4  0
M  END
$$$$

 Created by Python create_sdf_string function

 28 30  0  0  0  0  0  0  0  0999 V2000
    5.7174   -8.4529   26.7190 C   0  0  0  0  0  0  0  0  0  0  0  0
    0.3974   -7.0711   27.5149 C   0  0  0  0  0  0  0  0  0  0  0  0
    2.5338   -7.6891   16.0102 C   0  0  0  0  0  0  0  0  0  0  0  0
    4.8690   -7.4380   26.4151 C   0  0  0  0  0  0  0  0  0  0  0  0
    2.3021   -5.6726   26.0378 C   0  0  0  0  0  0  0  0  0  0  0  0
    7.0880   -4.6163   27.0010 C   0  0  0  0  0  0  0  0  0  0  0  0
    8.3117   -4.3698   27.4436 C   0  0  0  0  0  0  0  0  0  0  0  0
    1.1339   -5.0515   26.3541 C   0  0  0  0  0  0  0  0  0  0  0  0
    4.8080   -8.0362   16.7101 C   0  0  0  0  0  0  0  0  0  0  0  0
   -1.2173   -3.9294   26.9717 O   0  0  0  0  0  0  0  0  0  0  0  0
   -1.0025   -5.0942   27.4586 C   0  0  0  0  0  0  0  0  0  0  0  0
    2.2474   -8.9123   16.6273 C   0  0  0  0  0  0  0  0  0  0  0  0
    4.4957   -9.2636   17.3041 C   0  0  0  0  0  0  0  0  0  0  0  0
   -1.8070   -5.6086   28.1920 O   0  0  0  0  0  0  0  0  0  0  0  0
   10.4296   -5.1799   28.3140 C   0  0  0  0  0  0  0  0  0  0  0  0
    6.6017   -5.9004   26.9187 C   0  0  0  0  0  0  0  0  0  0  0  0
    2.4761   -6.9940   26.4111 N   0  0  0  0  0  0  0  0  0  0  0  0
    9.1353   -5.4053   27.8239 C   0  0  0  0  0  0  0  0  0  0  0  0
    0.9922   -9.3232   16.5995 O   0  0  0  0  0  0  0  0  0  0  0  0
    1.5232   -7.6869   27.1182 C   0  0  0  0  0  0  0  0  0  0  0  0
    8.6878   -6.6715   27.7262 N   0  0  0  0  0  0  0  0  0  0  0  0
    6.9911   -8.2423   27.1808 C   0  0  0  0  0  0  0  0  0  0  0  0
    3.8436   -7.2758   16.0578 C   0  0  0  0  0  0  0  0  0  0  0  0
    3.1882   -9.7190   17.2566 C   0  0  0  0  0  0  0  0  0  0  0  0
    5.3488   -6.1737   26.5092 C   0  0  0  0  0  0  0  0  0  0  0  0
    7.4567   -6.9464   27.2858 C   0  0  0  0  0  0  0  0  0  0  0  0
    0.1921   -5.7592   27.1123 C   0  0  0  0  0  0  0  0  0  0  0  0
    3.5517   -7.7407   25.9711 C   0  0  0  0  0  0  0  0  0  0  0  0
  1  4  4  0
  1 22  4  0
  2 20  4  0
  2 27  4  0
  3 12  4  0
  3 23  4  0
  4 25  4  0
  4 28  1  0
  5  8  4  0
  5 17  4  0
  6  7  4  0
  6 16  4  0
  7 18  4  0
  8 27  4  0
  9 13  4  0
  9 23  4  0
 10 11  1  0
 11 14  2  0
 11 27  1  0
 12 19  1  0
 12 24  4  0
 13 24  4  0
 15 18  1  0
 16 25  4  0
 16 26  4  0
 17 20  4  0
 17 28  1  0
 18 21  4  0
 21 26  4  0
 22 26  4  0
M  END
$$$$

 Created by Python create_sdf_string function

 28 30  0  0  0  0  0  0  0  0999 V2000
    5.7174   -8.4529   26.7190 C   0  0  0  0  0  0  0  0  0  0  0  0
    0.3974   -7.0711   27.5149 C   0  0  0  0  0  0  0  0  0  0  0  0
    2.5338   -7.6891   16.0102 C   0  0  0  0  0  0  0  0  0  0  0  0
    4.8690   -7.4380   26.4151 C   0  0  0  0  0  0  0  0  0  0  0  0
    2.3021   -5.6726   26.0378 C   0  0  0  0  0  0  0  0  0  0  0  0
    7.0880   -4.6163   27.0010 C   0  0  0  0  0  0  0  0  0  0  0  0
    8.3117   -4.3698   27.4436 C   0  0  0  0  0  0  0  0  0  0  0  0
    1.1339   -5.0515   26.3541 C   0  0  0  0  0  0  0  0  0  0  0  0
    4.8080   -8.0362   16.7101 C   0  0  0  0  0  0  0  0  0  0  0  0
   -1.2173   -3.9294   26.9717 O   0  0  0  0  0  0  0  0  0  0  0  0
   -1.0025   -5.0942   27.4586 C   0  0  0  0  0  0  0  0  0  0  0  0
    2.2474   -8.9123   16.6273 C   0  0  0  0  0  0  0  0  0  0  0  0
    4.4957   -9.2636   17.3041 C   0  0  0  0  0  0  0  0  0  0  0  0
   -1.8070   -5.6086   28.1920 O   0  0  0  0  0  0  0  0  0  0  0  0
   10.4296   -5.1799   28.3140 C   0  0  0  0  0  0  0  0  0  0  0  0
    6.6017   -5.9004   26.9187 C   0  0  0  0  0  0  0  0  0  0  0  0
    2.4761   -6.9940   26.4111 N   0  0  0  0  0  0  0  0  0  0  0  0
    9.1353   -5.4053   27.8239 C   0  0  0  0  0  0  0  0  0  0  0  0
    0.9922   -9.3232   16.5995 O   0  0  0  0  0  0  0  0  0  0  0  0
    1.5232   -7.6869   27.1182 C   0  0  0  0  0  0  0  0  0  0  0  0
    8.6878   -6.6715   27.7262 N   0  0  0  0  0  0  0  0  0  0  0  0
    6.9911   -8.2423   27.1808 C   0  0  0  0  0  0  0  0  0  0  0  0
    3.8436   -7.2758   16.0578 C   0  0  0  0  0  0  0  0  0  0  0  0
    3.1882   -9.7190   17.2566 C   0  0  0  0  0  0  0  0  0  0  0  0
    5.3488   -6.1737   26.5092 C   0  0  0  0  0  0  0  0  0  0  0  0
    7.4567   -6.9464   27.2858 C   0  0  0  0  0  0  0  0  0  0  0  0
    0.1921   -5.7592   27.1123 C   0  0  0  0  0  0  0  0  0  0  0  0
    3.5517   -7.7407   25.9711 C   0  0  0  0  0  0  0  0  0  0  0  0
  1  4  4  0
  1 22  4  0
  2 20  4  0
  2 27  4  0
  3 12  4  0
  3 23  4  0
  4 25  4  0
  4 28  1  0
  5  8  4  0
  5 17  4  0
  6  7  4  0
  6 16  4  0
  7 18  4  0
  8 27  4  0
  9 13  4  0
  9 23  4  0
 10 11  1  0
 11 14  2  0
 11 27  1  0
 12 19  1  0
 12 24  4  0
 13 24  4  0
 15 18  1  0
 16 25  4  0
 16 26  4  0
 17 20  4  0
 17 28  1  0
 18 21  4  0
 21 26  4  0
 22 26  4  0
M  END
$$$$

 Created by Python create_sdf_string function

 28 30  0  0  0  0  0  0  0  0999 V2000
    5.7174   -8.4529   26.7190 C   0  0  0  0  0  0  0  0  0  0  0  0
    0.3974   -7.0711   27.5149 C   0  0  0  0  0  0  0  0  0  0  0  0
    2.5338   -7.6891   16.0102 C   0  0  0  0  0  0  0  0  0  0  0  0
    4.8690   -7.4380   26.4151 C   0  0  0  0  0  0  0  0  0  0  0  0
    2.3021   -5.6726   26.0378 C   0  0  0  0  0  0  0  0  0  0  0  0
    7.0880   -4.6163   27.0010 C   0  0  0  0  0  0  0  0  0  0  0  0
    8.3117   -4.3698   27.4436 C   0  0  0  0  0  0  0  0  0  0  0  0
    1.1339   -5.0515   26.3541 C   0  0  0  0  0  0  0  0  0  0  0  0
    4.8080   -8.0362   16.7101 C   0  0  0  0  0  0  0  0  0  0  0  0
   -1.2173   -3.9294   26.9717 O   0  0  0  0  0  0  0  0  0  0  0  0
   -1.0025   -5.0942   27.4586 C   0  0  0  0  0  0  0  0  0  0  0  0
    2.2474   -8.9123   16.6273 C   0  0  0  0  0  0  0  0  0  0  0  0
    4.4957   -9.2636   17.3041 C   0  0  0  0  0  0  0  0  0  0  0  0
   -1.8070   -5.6086   28.1920 O   0  0  0  0  0  0  0  0  0  0  0  0
   10.4296   -5.1799   28.3140 C   0  0  0  0  0  0  0  0  0  0  0  0
    6.6017   -5.9004   26.9187 C   0  0  0  0  0  0  0  0  0  0  0  0
    2.4761   -6.9940   26.4111 N   0  0  0  0  0  0  0  0  0  0  0  0
    9.1353   -5.4053   27.8239 C   0  0  0  0  0  0  0  0  0  0  0  0
    0.9922   -9.3232   16.5995 O   0  0  0  0  0  0  0  0  0  0  0  0
    1.5232   -7.6869   27.1182 C   0  0  0  0  0  0  0  0  0  0  0  0
    8.6878   -6.6715   27.7262 N   0  0  0  0  0  0  0  0  0  0  0  0
    6.9911   -8.2423   27.1808 C   0  0  0  0  0  0  0  0  0  0  0  0
    3.8436   -7.2758   16.0578 C   0  0  0  0  0  0  0  0  0  0  0  0
    3.1882   -9.7190   17.2566 C   0  0  0  0  0  0  0  0  0  0  0  0
    5.3488   -6.1737   26.5092 C   0  0  0  0  0  0  0  0  0  0  0  0
    7.4567   -6.9464   27.2858 C   0  0  0  0  0  0  0  0  0  0  0  0
    0.1921   -5.7592   27.1123 C   0  0  0  0  0  0  0  0  0  0  0  0
    3.5517   -7.7407   25.9711 C   0  0  0  0  0  0  0  0  0  0  0  0
  1  4  4  0
  1 22  4  0
  2 20  4  0
  2 27  4  0
  3 12  4  0
  3 23  4  0
  4 25  4  0
  4 28  1  0
  5  8  4  0
  5 17  4  0
  6  7  4  0
  6 16  4  0
  7 18  4  0
  8 27  4  0
  9 13  4  0
  9 23  4  0
 10 11  1  0
 11 14  2  0
 11 27  1  0
 12 19  1  0
 12 24  4  0
 13 24  4  0
 15 18  1  0
 16 25  4  0
 16 26  4  0
 17 20  4  0
 17 28  1  0
 18 21  4  0
 21 26  4  0
 22 26  4  0
M  END
$$$$

 Created by Python create_sdf_string function

 28 30  0  0  0  0  0  0  0  0999 V2000
    5.7174   -8.4529   26.7190 C   0  0  0  0  0  0  0  0  0  0  0  0
    0.3974   -7.0711   27.5149 C   0  0  0  0  0  0  0  0  0  0  0  0
    2.5338   -7.6891   16.0102 C   0  0  0  0  0  0  0  0  0  0  0  0
    4.8690   -7.4380   26.4151 C   0  0  0  0  0  0  0  0  0  0  0  0
    2.3021   -5.6726   26.0378 C   0  0  0  0  0  0  0  0  0  0  0  0
    7.0880   -4.6163   27.0010 C   0  0  0  0  0  0  0  0  0  0  0  0
    8.3117   -4.3698   27.4436 C   0  0  0  0  0  0  0  0  0  0  0  0
    1.1339   -5.0515   26.3541 C   0  0  0  0  0  0  0  0  0  0  0  0
    4.8080   -8.0362   16.7101 C   0  0  0  0  0  0  0  0  0  0  0  0
   -1.2173   -3.9294   26.9717 O   0  0  0  0  0  0  0  0  0  0  0  0
   -1.0025   -5.0942   27.4586 C   0  0  0  0  0  0  0  0  0  0  0  0
    2.2474   -8.9123   16.6273 C   0  0  0  0  0  0  0  0  0  0  0  0
    4.4957   -9.2636   17.3041 C   0  0  0  0  0  0  0  0  0  0  0  0
   -1.8070   -5.6086   28.1920 O   0  0  0  0  0  0  0  0  0  0  0  0
   10.4296   -5.1799   28.3140 C   0  0  0  0  0  0  0  0  0  0  0  0
    6.6017   -5.9004   26.9187 C   0  0  0  0  0  0  0  0  0  0  0  0
    2.4761   -6.9940   26.4111 N   0  0  0  0  0  0  0  0  0  0  0  0
    9.1353   -5.4053   27.8239 C   0  0  0  0  0  0  0  0  0  0  0  0
    0.9922   -9.3232   16.5995 O   0  0  0  0  0  0  0  0  0  0  0  0
    1.5232   -7.6869   27.1182 C   0  0  0  0  0  0  0  0  0  0  0  0
    8.6878   -6.6715   27.7262 N   0  0  0  0  0  0  0  0  0  0  0  0
    6.9911   -8.2423   27.1808 C   0  0  0  0  0  0  0  0  0  0  0  0
    3.8436   -7.2758   16.0578 C   0  0  0  0  0  0  0  0  0  0  0  0
    3.1882   -9.7190   17.2566 C   0  0  0  0  0  0  0  0  0  0  0  0
    5.3488   -6.1737   26.5092 C   0  0  0  0  0  0  0  0  0  0  0  0
    7.4567   -6.9464   27.2858 C   0  0  0  0  0  0  0  0  0  0  0  0
    0.1921   -5.7592   27.1123 C   0  0  0  0  0  0  0  0  0  0  0  0
    3.5517   -7.7407   25.9711 C   0  0  0  0  0  0  0  0  0  0  0  0
  1  4  4  0
  1 22  4  0
  2 20  4  0
  2 27  4  0
  3 12  4  0
  3 23  4  0
  4 25  4  0
  4 28  1  0
  5  8  4  0
  5 17  4  0
  6  7  4  0
  6 16  4  0
  7 18  4  0
  8 27  4  0
  9 13  4  0
  9 23  4  0
 10 11  1  0
 11 14  2  0
 11 27  1  0
 12 19  1  0
 12 24  4  0
 13 24  4  0
 15 18  1  0
 16 25  4  0
 16 26  4  0
 17 20  4  0
 17 28  1  0
 18 21  4  0
 21 26  4  0
 22 26  4  0
M  END
$$$$

 Created by Python create_sdf_string function

 28 30  0  0  0  0  0  0  0  0999 V2000
    5.7174   -8.4529   26.7190 C   0  0  0  0  0  0  0  0  0  0  0  0
    0.3974   -7.0711   27.5149 C   0  0  0  0  0  0  0  0  0  0  0  0
    2.5338   -7.6891   16.0102 C   0  0  0  0  0  0  0  0  0  0  0  0
    4.8690   -7.4380   26.4151 C   0  0  0  0  0  0  0  0  0  0  0  0
    2.3021   -5.6726   26.0378 C   0  0  0  0  0  0  0  0  0  0  0  0
    7.0880   -4.6163   27.0010 C   0  0  0  0  0  0  0  0  0  0  0  0
    8.3117   -4.3698   27.4436 C   0  0  0  0  0  0  0  0  0  0  0  0
    1.1339   -5.0515   26.3541 C   0  0  0  0  0  0  0  0  0  0  0  0
    4.8080   -8.0362   16.7101 C   0  0  0  0  0  0  0  0  0  0  0  0
   -1.2173   -3.9294   26.9717 O   0  0  0  0  0  0  0  0  0  0  0  0
   -1.0025   -5.0942   27.4586 C   0  0  0  0  0  0  0  0  0  0  0  0
    2.2474   -8.9123   16.6273 C   0  0  0  0  0  0  0  0  0  0  0  0
    4.4957   -9.2636   17.3041 C   0  0  0  0  0  0  0  0  0  0  0  0
   -1.8070   -5.6086   28.1920 O   0  0  0  0  0  0  0  0  0  0  0  0
   10.4296   -5.1799   28.3140 C   0  0  0  0  0  0  0  0  0  0  0  0
    6.6017   -5.9004   26.9187 C   0  0  0  0  0  0  0  0  0  0  0  0
    2.4761   -6.9940   26.4111 N   0  0  0  0  0  0  0  0  0  0  0  0
    9.1353   -5.4053   27.8239 C   0  0  0  0  0  0  0  0  0  0  0  0
    0.9922   -9.3232   16.5995 O   0  0  0  0  0  0  0  0  0  0  0  0
    1.5232   -7.6869   27.1182 C   0  0  0  0  0  0  0  0  0  0  0  0
    8.6878   -6.6715   27.7262 N   0  0  0  0  0  0  0  0  0  0  0  0
    6.9911   -8.2423   27.1808 C   0  0  0  0  0  0  0  0  0  0  0  0
    3.8436   -7.2758   16.0578 C   0  0  0  0  0  0  0  0  0  0  0  0
    3.1882   -9.7190   17.2566 C   0  0  0  0  0  0  0  0  0  0  0  0
    5.3488   -6.1737   26.5092 C   0  0  0  0  0  0  0  0  0  0  0  0
    7.4567   -6.9464   27.2858 C   0  0  0  0  0  0  0  0  0  0  0  0
    0.1921   -5.7592   27.1123 C   0  0  0  0  0  0  0  0  0  0  0  0
    3.5517   -7.7407   25.9711 C   0  0  0  0  0  0  0  0  0  0  0  0
  1  4  4  0
  1 22  4  0
  2 20  4  0
  2 27  4  0
  3 12  4  0
  3 23  4  0
  4 25  4  0
  4 28  1  0
  5  8  4  0
  5 17  4  0
  6  7  4  0
  6 16  4  0
  7 18  4  0
  8 27  4  0
  9 13  4  0
  9 23  4  0
 10 11  1  0
 11 14  2  0
 11 27  1  0
 12 19  1  0
 12 24  4  0
 13 24  4  0
 15 18  1  0
 16 25  4  0
 16 26  4  0
 17 20  4  0
 17 28  1  0
 18 21  4  0
 21 26  4  0
 22 26  4  0
M  END
$$$$

 Created by Python create_sdf_string function

 28 30  0  0  0  0  0  0  0  0999 V2000
    5.7174   -8.4529   26.7190 C   0  0  0  0  0  0  0  0  0  0  0  0
    0.3974   -7.0711   27.5149 C   0  0  0  0  0  0  0  0  0  0  0  0
    2.5338   -7.6891   16.0102 C   0  0  0  0  0  0  0  0  0  0  0  0
    4.8690   -7.4380   26.4151 C   0  0  0  0  0  0  0  0  0  0  0  0
    2.3021   -5.6726   26.0378 C   0  0  0  0  0  0  0  0  0  0  0  0
    7.0880   -4.6163   27.0010 C   0  0  0  0  0  0  0  0  0  0  0  0
    8.3117   -4.3698   27.4436 C   0  0  0  0  0  0  0  0  0  0  0  0
    1.1339   -5.0515   26.3541 C   0  0  0  0  0  0  0  0  0  0  0  0
    4.8080   -8.0362   16.7101 C   0  0  0  0  0  0  0  0  0  0  0  0
   -1.2173   -3.9294   26.9717 O   0  0  0  0  0  0  0  0  0  0  0  0
   -1.0025   -5.0942   27.4586 C   0  0  0  0  0  0  0  0  0  0  0  0
    2.2474   -8.9123   16.6273 C   0  0  0  0  0  0  0  0  0  0  0  0
    4.4957   -9.2636   17.3041 C   0  0  0  0  0  0  0  0  0  0  0  0
   -1.8070   -5.6086   28.1920 O   0  0  0  0  0  0  0  0  0  0  0  0
   10.4296   -5.1799   28.3140 C   0  0  0  0  0  0  0  0  0  0  0  0
    6.6017   -5.9004   26.9187 C   0  0  0  0  0  0  0  0  0  0  0  0
    2.4761   -6.9940   26.4111 N   0  0  0  0  0  0  0  0  0  0  0  0
    9.1353   -5.4053   27.8239 C   0  0  0  0  0  0  0  0  0  0  0  0
    0.9922   -9.3232   16.5995 O   0  0  0  0  0  0  0  0  0  0  0  0
    1.5232   -7.6869   27.1182 C   0  0  0  0  0  0  0  0  0  0  0  0
    8.6878   -6.6715   27.7262 N   0  0  0  0  0  0  0  0  0  0  0  0
    6.9911   -8.2423   27.1808 C   0  0  0  0  0  0  0  0  0  0  0  0
    3.8436   -7.2758   16.0578 C   0  0  0  0  0  0  0  0  0  0  0  0
    3.1882   -9.7190   17.2566 C   0  0  0  0  0  0  0  0  0  0  0  0
    5.3488   -6.1737   26.5092 C   0  0  0  0  0  0  0  0  0  0  0  0
    7.4567   -6.9464   27.2858 C   0  0  0  0  0  0  0  0  0  0  0  0
    0.1921   -5.7592   27.1123 C   0  0  0  0  0  0  0  0  0  0  0  0
    3.5517   -7.7407   25.9711 C   0  0  0  0  0  0  0  0  0  0  0  0
  1  4  4  0
  1 22  4  0
  2 20  4  0
  2 27  4  0
  3 12  4  0
  3 23  4  0
  4 25  4  0
  4 28  1  0
  5  8  4  0
  5 17  4  0
  6  7  4  0
  6 16  4  0
  7 18  4  0
  8 27  4  0
  9 13  4  0
  9 23  4  0
 10 11  1  0
 11 14  2  0
 11 27  1  0
 12 19  1  0
 12 24  4  0
 13 24  4  0
 15 18  1  0
 16 25  4  0
 16 26  4  0
 17 20  4  0
 17 28  1  0
 18 21  4  0
 21 26  4  0
 22 26  4  0
M  END
$$$$

 Created by Python create_sdf_string function

 28 30  0  0  0  0  0  0  0  0999 V2000
    5.7174   -8.4529   26.7190 C   0  0  0  0  0  0  0  0  0  0  0  0
    0.3974   -7.0711   27.5149 C   0  0  0  0  0  0  0  0  0  0  0  0
    2.5338   -7.6891   16.0102 C   0  0  0  0  0  0  0  0  0  0  0  0
    4.8690   -7.4380   26.4151 C   0  0  0  0  0  0  0  0  0  0  0  0
    2.3021   -5.6726   26.0378 C   0  0  0  0  0  0  0  0  0  0  0  0
    7.0880   -4.6163   27.0010 C   0  0  0  0  0  0  0  0  0  0  0  0
    8.3117   -4.3698   27.4436 C   0  0  0  0  0  0  0  0  0  0  0  0
    1.1339   -5.0515   26.3541 C   0  0  0  0  0  0  0  0  0  0  0  0
    4.8080   -8.0362   16.7101 C   0  0  0  0  0  0  0  0  0  0  0  0
   -1.2173   -3.9294   26.9717 O   0  0  0  0  0  0  0  0  0  0  0  0
   -1.0025   -5.0942   27.4586 C   0  0  0  0  0  0  0  0  0  0  0  0
    2.2474   -8.9123   16.6273 C   0  0  0  0  0  0  0  0  0  0  0  0
    4.4957   -9.2636   17.3041 C   0  0  0  0  0  0  0  0  0  0  0  0
   -1.8070   -5.6086   28.1920 O   0  0  0  0  0  0  0  0  0  0  0  0
   10.4296   -5.1799   28.3140 C   0  0  0  0  0  0  0  0  0  0  0  0
    6.6017   -5.9004   26.9187 C   0  0  0  0  0  0  0  0  0  0  0  0
    2.4761   -6.9940   26.4111 N   0  0  0  0  0  0  0  0  0  0  0  0
    9.1353   -5.4053   27.8239 C   0  0  0  0  0  0  0  0  0  0  0  0
    0.9922   -9.3232   16.5995 O   0  0  0  0  0  0  0  0  0  0  0  0
    1.5232   -7.6869   27.1182 C   0  0  0  0  0  0  0  0  0  0  0  0
    8.6878   -6.6715   27.7262 N   0  0  0  0  0  0  0  0  0  0  0  0
    6.9911   -8.2423   27.1808 C   0  0  0  0  0  0  0  0  0  0  0  0
    3.8436   -7.2758   16.0578 C   0  0  0  0  0  0  0  0  0  0  0  0
    3.1882   -9.7190   17.2566 C   0  0  0  0  0  0  0  0  0  0  0  0
    5.3488   -6.1737   26.5092 C   0  0  0  0  0  0  0  0  0  0  0  0
    7.4567   -6.9464   27.2858 C   0  0  0  0  0  0  0  0  0  0  0  0
    0.1921   -5.7592   27.1123 C   0  0  0  0  0  0  0  0  0  0  0  0
    3.5517   -7.7407   25.9711 C   0  0  0  0  0  0  0  0  0  0  0  0
  1  4  4  0
  1 22  4  0
  2 20  4  0
  2 27  4  0
  3 12  4  0
  3 23  4  0
  4 25  4  0
  4 28  1  0
  5  8  4  0
  5 17  4  0
  6  7  4  0
  6 16  4  0
  7 18  4  0
  8 27  4  0
  9 13  4  0
  9 23  4  0
 10 11  1  0
 11 14  2  0
 11 27  1  0
 12 19  1  0
 12 24  4  0
 13 24  4  0
 15 18  1  0
 16 25  4  0
 16 26  4  0
 17 20  4  0
 17 28  1  0
 18 21  4  0
 21 26  4  0
 22 26  4  0
M  END
$$$$

 Created by Python create_sdf_string function

 28 30  0  0  0  0  0  0  0  0999 V2000
    5.7174   -8.4529   26.7190 C   0  0  0  0  0  0  0  0  0  0  0  0
    0.3974   -7.0711   27.5149 C   0  0  0  0  0  0  0  0  0  0  0  0
    2.5338   -7.6891   16.0102 C   0  0  0  0  0  0  0  0  0  0  0  0
    4.8690   -7.4380   26.4151 C   0  0  0  0  0  0  0  0  0  0  0  0
    2.3021   -5.6726   26.0378 C   0  0  0  0  0  0  0  0  0  0  0  0
    7.0880   -4.6163   27.0010 C   0  0  0  0  0  0  0  0  0  0  0  0
    8.3117   -4.3698   27.4436 C   0  0  0  0  0  0  0  0  0  0  0  0
    1.1339   -5.0515   26.3541 C   0  0  0  0  0  0  0  0  0  0  0  0
    4.8080   -8.0362   16.7101 C   0  0  0  0  0  0  0  0  0  0  0  0
   -1.2173   -3.9294   26.9717 O   0  0  0  0  0  0  0  0  0  0  0  0
   -1.0025   -5.0942   27.4586 C   0  0  0  0  0  0  0  0  0  0  0  0
    2.2474   -8.9123   16.6273 C   0  0  0  0  0  0  0  0  0  0  0  0
    4.4957   -9.2636   17.3041 C   0  0  0  0  0  0  0  0  0  0  0  0
   -1.8070   -5.6086   28.1920 O   0  0  0  0  0  0  0  0  0  0  0  0
   10.4296   -5.1799   28.3140 C   0  0  0  0  0  0  0  0  0  0  0  0
    6.6017   -5.9004   26.9187 C   0  0  0  0  0  0  0  0  0  0  0  0
    2.4761   -6.9940   26.4111 N   0  0  0  0  0  0  0  0  0  0  0  0
    9.1353   -5.4053   27.8239 C   0  0  0  0  0  0  0  0  0  0  0  0
    0.9922   -9.3232   16.5995 O   0  0  0  0  0  0  0  0  0  0  0  0
    1.5232   -7.6869   27.1182 C   0  0  0  0  0  0  0  0  0  0  0  0
    8.6878   -6.6715   27.7262 N   0  0  0  0  0  0  0  0  0  0  0  0
    6.9911   -8.2423   27.1808 C   0  0  0  0  0  0  0  0  0  0  0  0
    3.8436   -7.2758   16.0578 C   0  0  0  0  0  0  0  0  0  0  0  0
    3.1882   -9.7190   17.2566 C   0  0  0  0  0  0  0  0  0  0  0  0
    5.3488   -6.1737   26.5092 C   0  0  0  0  0  0  0  0  0  0  0  0
    7.4567   -6.9464   27.2858 C   0  0  0  0  0  0  0  0  0  0  0  0
    0.1921   -5.7592   27.1123 C   0  0  0  0  0  0  0  0  0  0  0  0
    3.5517   -7.7407   25.9711 C   0  0  0  0  0  0  0  0  0  0  0  0
  1  4  4  0
  1 22  4  0
  2 20  4  0
  2 27  4  0
  3 12  4  0
  3 23  4  0
  4 25  4  0
  4 28  1  0
  5  8  4  0
  5 17  4  0
  6  7  4  0
  6 16  4  0
  7 18  4  0
  8 27  4  0
  9 13  4  0
  9 23  4  0
 10 11  1  0
 11 14  2  0
 11 27  1  0
 12 19  1  0
 12 24  4  0
 13 24  4  0
 15 18  1  0
 16 25  4  0
 16 26  4  0
 17 20  4  0
 17 28  1  0
 18 21  4  0
 21 26  4  0
 22 26  4  0
M  END
$$$$

 Created by Python create_sdf_string function

 28 30  0  0  0  0  0  0  0  0999 V2000
    5.7174   -8.4529   26.7190 C   0  0  0  0  0  0  0  0  0  0  0  0
    0.3974   -7.0711   27.5149 C   0  0  0  0  0  0  0  0  0  0  0  0
    2.5338   -7.6891   16.0102 C   0  0  0  0  0  0  0  0  0  0  0  0
    4.8690   -7.4380   26.4151 C   0  0  0  0  0  0  0  0  0  0  0  0
    2.3021   -5.6726   26.0378 C   0  0  0  0  0  0  0  0  0  0  0  0
    7.0880   -4.6163   27.0010 C   0  0  0  0  0  0  0  0  0  0  0  0
    8.3117   -4.3698   27.4436 C   0  0  0  0  0  0  0  0  0  0  0  0
    1.1339   -5.0515   26.3541 C   0  0  0  0  0  0  0  0  0  0  0  0
    4.8080   -8.0362   16.7101 C   0  0  0  0  0  0  0  0  0  0  0  0
   -1.2173   -3.9294   26.9717 O   0  0  0  0  0  0  0  0  0  0  0  0
   -1.0025   -5.0942   27.4586 C   0  0  0  0  0  0  0  0  0  0  0  0
    2.2474   -8.9123   16.6273 C   0  0  0  0  0  0  0  0  0  0  0  0
    4.4957   -9.2636   17.3041 C   0  0  0  0  0  0  0  0  0  0  0  0
   -1.8070   -5.6086   28.1920 O   0  0  0  0  0  0  0  0  0  0  0  0
   10.4296   -5.1799   28.3140 C   0  0  0  0  0  0  0  0  0  0  0  0
    6.6017   -5.9004   26.9187 C   0  0  0  0  0  0  0  0  0  0  0  0
    2.4761   -6.9940   26.4111 N   0  0  0  0  0  0  0  0  0  0  0  0
    9.1353   -5.4053   27.8239 C   0  0  0  0  0  0  0  0  0  0  0  0
    0.9922   -9.3232   16.5995 O   0  0  0  0  0  0  0  0  0  0  0  0
    1.5232   -7.6869   27.1182 C   0  0  0  0  0  0  0  0  0  0  0  0
    8.6878   -6.6715   27.7262 N   0  0  0  0  0  0  0  0  0  0  0  0
    6.9911   -8.2423   27.1808 C   0  0  0  0  0  0  0  0  0  0  0  0
    3.8436   -7.2758   16.0578 C   0  0  0  0  0  0  0  0  0  0  0  0
    3.1882   -9.7190   17.2566 C   0  0  0  0  0  0  0  0  0  0  0  0
    5.3488   -6.1737   26.5092 C   0  0  0  0  0  0  0  0  0  0  0  0
    7.4567   -6.9464   27.2858 C   0  0  0  0  0  0  0  0  0  0  0  0
    0.1921   -5.7592   27.1123 C   0  0  0  0  0  0  0  0  0  0  0  0
    3.5517   -7.7407   25.9711 C   0  0  0  0  0  0  0  0  0  0  0  0
  1  4  4  0
  1 22  4  0
  2 20  4  0
  2 27  4  0
  3 12  4  0
  3 23  4  0
  4 25  4  0
  4 28  1  0
  5  8  4  0
  5 17  4  0
  6  7  4  0
  6 16  4  0
  7 18  4  0
  8 27  4  0
  9 13  4  0
  9 23  4  0
 10 11  1  0
 11 14  2  0
 11 27  1  0
 12 19  1  0
 12 24  4  0
 13 24  4  0
 15 18  1  0
 16 25  4  0
 16 26  4  0
 17 20  4  0
 17 28  1  0
 18 21  4  0
 21 26  4  0
 22 26  4  0
M  END
$$$$

 Created by Python create_sdf_string function

 28 30  0  0  0  0  0  0  0  0999 V2000
    5.7174   -8.4529   26.7190 C   0  0  0  0  0  0  0  0  0  0  0  0
    0.3974   -7.0711   27.5149 C   0  0  0  0  0  0  0  0  0  0  0  0
    2.5338   -7.6891   16.0102 C   0  0  0  0  0  0  0  0  0  0  0  0
    4.8690   -7.4380   26.4151 C   0  0  0  0  0  0  0  0  0  0  0  0
    2.3021   -5.6726   26.0378 C   0  0  0  0  0  0  0  0  0  0  0  0
    7.0880   -4.6163   27.0010 C   0  0  0  0  0  0  0  0  0  0  0  0
    8.3117   -4.3698   27.4436 C   0  0  0  0  0  0  0  0  0  0  0  0
    1.1339   -5.0515   26.3541 C   0  0  0  0  0  0  0  0  0  0  0  0
    4.8080   -8.0362   16.7101 C   0  0  0  0  0  0  0  0  0  0  0  0
   -1.2173   -3.9294   26.9717 O   0  0  0  0  0  0  0  0  0  0  0  0
   -1.0025   -5.0942   27.4586 C   0  0  0  0  0  0  0  0  0  0  0  0
    2.2474   -8.9123   16.6273 C   0  0  0  0  0  0  0  0  0  0  0  0
    4.4957   -9.2636   17.3041 C   0  0  0  0  0  0  0  0  0  0  0  0
   -1.8070   -5.6086   28.1920 O   0  0  0  0  0  0  0  0  0  0  0  0
   10.4296   -5.1799   28.3140 C   0  0  0  0  0  0  0  0  0  0  0  0
    6.6017   -5.9004   26.9187 C   0  0  0  0  0  0  0  0  0  0  0  0
    2.4761   -6.9940   26.4111 N   0  0  0  0  0  0  0  0  0  0  0  0
    9.1353   -5.4053   27.8239 C   0  0  0  0  0  0  0  0  0  0  0  0
    0.9922   -9.3232   16.5995 O   0  0  0  0  0  0  0  0  0  0  0  0
    1.5232   -7.6869   27.1182 C   0  0  0  0  0  0  0  0  0  0  0  0
    8.6878   -6.6715   27.7262 N   0  0  0  0  0  0  0  0  0  0  0  0
    6.9911   -8.2423   27.1808 C   0  0  0  0  0  0  0  0  0  0  0  0
    3.8436   -7.2758   16.0578 C   0  0  0  0  0  0  0  0  0  0  0  0
    3.1882   -9.7190   17.2566 C   0  0  0  0  0  0  0  0  0  0  0  0
    5.3488   -6.1737   26.5092 C   0  0  0  0  0  0  0  0  0  0  0  0
    7.4567   -6.9464   27.2858 C   0  0  0  0  0  0  0  0  0  0  0  0
    0.1921   -5.7592   27.1123 C   0  0  0  0  0  0  0  0  0  0  0  0
    3.5517   -7.7407   25.9711 C   0  0  0  0  0  0  0  0  0  0  0  0
  1  4  4  0
  1 22  4  0
  2 20  4  0
  2 27  4  0
  3 12  4  0
  3 23  4  0
  4 25  4  0
  4 28  1  0
  5  8  4  0
  5 17  4  0
  6  7  4  0
  6 16  4  0
  7 18  4  0
  8 27  4  0
  9 13  4  0
  9 23  4  0
 10 11  1  0
 11 14  2  0
 11 27  1  0
 12 19  1  0
 12 24  4  0
 13 24  4  0
 15 18  1  0
 16 25  4  0
 16 26  4  0
 17 20  4  0
 17 28  1  0
 18 21  4  0
 21 26  4  0
 22 26  4  0
M  END
$$$$

 Created by Python create_sdf_string function

 28 30  0  0  0  0  0  0  0  0999 V2000
    5.7174   -8.4529   26.7190 C   0  0  0  0  0  0  0  0  0  0  0  0
    0.3974   -7.0711   27.5149 C   0  0  0  0  0  0  0  0  0  0  0  0
    2.5338   -7.6891   16.0102 C   0  0  0  0  0  0  0  0  0  0  0  0
    4.8690   -7.4380   26.4151 C   0  0  0  0  0  0  0  0  0  0  0  0
    2.3021   -5.6726   26.0378 C   0  0  0  0  0  0  0  0  0  0  0  0
    7.0880   -4.6163   27.0010 C   0  0  0  0  0  0  0  0  0  0  0  0
    8.3117   -4.3698   27.4436 C   0  0  0  0  0  0  0  0  0  0  0  0
    1.1339   -5.0515   26.3541 C   0  0  0  0  0  0  0  0  0  0  0  0
    4.8080   -8.0362   16.7101 C   0  0  0  0  0  0  0  0  0  0  0  0
   -1.2173   -3.9294   26.9717 O   0  0  0  0  0  0  0  0  0  0  0  0
   -1.0025   -5.0942   27.4586 C   0  0  0  0  0  0  0  0  0  0  0  0
    2.2474   -8.9123   16.6273 C   0  0  0  0  0  0  0  0  0  0  0  0
    4.4957   -9.2636   17.3041 C   0  0  0  0  0  0  0  0  0  0  0  0
   -1.8070   -5.6086   28.1920 O   0  0  0  0  0  0  0  0  0  0  0  0
   10.4296   -5.1799   28.3140 C   0  0  0  0  0  0  0  0  0  0  0  0
    6.6017   -5.9004   26.9187 C   0  0  0  0  0  0  0  0  0  0  0  0
    2.4761   -6.9940   26.4111 N   0  0  0  0  0  0  0  0  0  0  0  0
    9.1353   -5.4053   27.8239 C   0  0  0  0  0  0  0  0  0  0  0  0
    0.9922   -9.3232   16.5995 O   0  0  0  0  0  0  0  0  0  0  0  0
    1.5232   -7.6869   27.1182 C   0  0  0  0  0  0  0  0  0  0  0  0
    8.6878   -6.6715   27.7262 N   0  0  0  0  0  0  0  0  0  0  0  0
    6.9911   -8.2423   27.1808 C   0  0  0  0  0  0  0  0  0  0  0  0
    3.8436   -7.2758   16.0578 C   0  0  0  0  0  0  0  0  0  0  0  0
    3.1882   -9.7190   17.2566 C   0  0  0  0  0  0  0  0  0  0  0  0
    5.3488   -6.1737   26.5092 C   0  0  0  0  0  0  0  0  0  0  0  0
    7.4567   -6.9464   27.2858 C   0  0  0  0  0  0  0  0  0  0  0  0
    0.1921   -5.7592   27.1123 C   0  0  0  0  0  0  0  0  0  0  0  0
    3.5517   -7.7407   25.9711 C   0  0  0  0  0  0  0  0  0  0  0  0
  1  4  4  0
  1 22  4  0
  2 20  4  0
  2 27  4  0
  3 12  4  0
  3 23  4  0
  4 25  4  0
  4 28  1  0
  5  8  4  0
  5 17  4  0
  6  7  4  0
  6 16  4  0
  7 18  4  0
  8 27  4  0
  9 13  4  0
  9 23  4  0
 10 11  1  0
 11 14  2  0
 11 27  1  0
 12 19  1  0
 12 24  4  0
 13 24  4  0
 15 18  1  0
 16 25  4  0
 16 26  4  0
 17 20  4  0
 17 28  1  0
 18 21  4  0
 21 26  4  0
 22 26  4  0
M  END
$$$$

 Created by Python create_sdf_string function

 28 30  0  0  0  0  0  0  0  0999 V2000
    5.7174   -8.4529   26.7190 C   0  0  0  0  0  0  0  0  0  0  0  0
    0.3974   -7.0711   27.5149 C   0  0  0  0  0  0  0  0  0  0  0  0
    2.5338   -7.6891   16.0102 C   0  0  0  0  0  0  0  0  0  0  0  0
    4.8690   -7.4380   26.4151 C   0  0  0  0  0  0  0  0  0  0  0  0
    2.3021   -5.6726   26.0378 C   0  0  0  0  0  0  0  0  0  0  0  0
    7.0880   -4.6163   27.0010 C   0  0  0  0  0  0  0  0  0  0  0  0
    8.3117   -4.3698   27.4436 C   0  0  0  0  0  0  0  0  0  0  0  0
    1.1339   -5.0515   26.3541 C   0  0  0  0  0  0  0  0  0  0  0  0
    4.8080   -8.0362   16.7101 C   0  0  0  0  0  0  0  0  0  0  0  0
   -1.2173   -3.9294   26.9717 O   0  0  0  0  0  0  0  0  0  0  0  0
   -1.0025   -5.0942   27.4586 C   0  0  0  0  0  0  0  0  0  0  0  0
    2.2474   -8.9123   16.6273 C   0  0  0  0  0  0  0  0  0  0  0  0
    4.4957   -9.2636   17.3041 C   0  0  0  0  0  0  0  0  0  0  0  0
   -1.8070   -5.6086   28.1920 O   0  0  0  0  0  0  0  0  0  0  0  0
   10.4296   -5.1799   28.3140 C   0  0  0  0  0  0  0  0  0  0  0  0
    6.6017   -5.9004   26.9187 C   0  0  0  0  0  0  0  0  0  0  0  0
    2.4761   -6.9940   26.4111 N   0  0  0  0  0  0  0  0  0  0  0  0
    9.1353   -5.4053   27.8239 C   0  0  0  0  0  0  0  0  0  0  0  0
    0.9922   -9.3232   16.5995 O   0  0  0  0  0  0  0  0  0  0  0  0
    1.5232   -7.6869   27.1182 C   0  0  0  0  0  0  0  0  0  0  0  0
    8.6878   -6.6715   27.7262 N   0  0  0  0  0  0  0  0  0  0  0  0
    6.9911   -8.2423   27.1808 C   0  0  0  0  0  0  0  0  0  0  0  0
    3.8436   -7.2758   16.0578 C   0  0  0  0  0  0  0  0  0  0  0  0
    3.1882   -9.7190   17.2566 C   0  0  0  0  0  0  0  0  0  0  0  0
    5.3488   -6.1737   26.5092 C   0  0  0  0  0  0  0  0  0  0  0  0
    7.4567   -6.9464   27.2858 C   0  0  0  0  0  0  0  0  0  0  0  0
    0.1921   -5.7592   27.1123 C   0  0  0  0  0  0  0  0  0  0  0  0
    3.5517   -7.7407   25.9711 C   0  0  0  0  0  0  0  0  0  0  0  0
  1  4  4  0
  1 22  4  0
  2 20  4  0
  2 27  4  0
  3 12  4  0
  3 23  4  0
  4 25  4  0
  4 28  1  0
  5  8  4  0
  5 17  4  0
  6  7  4  0
  6 16  4  0
  7 18  4  0
  8 27  4  0
  9 13  4  0
  9 23  4  0
 10 11  1  0
 11 14  2  0
 11 27  1  0
 12 19  1  0
 12 24  4  0
 13 24  4  0
 15 18  1  0
 16 25  4  0
 16 26  4  0
 17 20  4  0
 17 28  1  0
 18 21  4  0
 21 26  4  0
 22 26  4  0
M  END
$$$$

 Created by Python create_sdf_string function

 28 30  0  0  0  0  0  0  0  0999 V2000
    5.7174   -8.4529   26.7190 C   0  0  0  0  0  0  0  0  0  0  0  0
    0.3974   -7.0711   27.5149 C   0  0  0  0  0  0  0  0  0  0  0  0
    2.5338   -7.6891   16.0102 C   0  0  0  0  0  0  0  0  0  0  0  0
    4.8690   -7.4380   26.4151 C   0  0  0  0  0  0  0  0  0  0  0  0
    2.3021   -5.6726   26.0378 C   0  0  0  0  0  0  0  0  0  0  0  0
    7.0880   -4.6163   27.0010 C   0  0  0  0  0  0  0  0  0  0  0  0
    8.3117   -4.3698   27.4436 C   0  0  0  0  0  0  0  0  0  0  0  0
    1.1339   -5.0515   26.3541 C   0  0  0  0  0  0  0  0  0  0  0  0
    4.8080   -8.0362   16.7101 C   0  0  0  0  0  0  0  0  0  0  0  0
   -1.2173   -3.9294   26.9717 O   0  0  0  0  0  0  0  0  0  0  0  0
   -1.0025   -5.0942   27.4586 C   0  0  0  0  0  0  0  0  0  0  0  0
    2.2474   -8.9123   16.6273 C   0  0  0  0  0  0  0  0  0  0  0  0
    4.4957   -9.2636   17.3041 C   0  0  0  0  0  0  0  0  0  0  0  0
   -1.8070   -5.6086   28.1920 O   0  0  0  0  0  0  0  0  0  0  0  0
   10.4296   -5.1799   28.3140 C   0  0  0  0  0  0  0  0  0  0  0  0
    6.6017   -5.9004   26.9187 C   0  0  0  0  0  0  0  0  0  0  0  0
    2.4761   -6.9940   26.4111 N   0  0  0  0  0  0  0  0  0  0  0  0
    9.1353   -5.4053   27.8239 C   0  0  0  0  0  0  0  0  0  0  0  0
    0.9922   -9.3232   16.5995 O   0  0  0  0  0  0  0  0  0  0  0  0
    1.5232   -7.6869   27.1182 C   0  0  0  0  0  0  0  0  0  0  0  0
    8.6878   -6.6715   27.7262 N   0  0  0  0  0  0  0  0  0  0  0  0
    6.9911   -8.2423   27.1808 C   0  0  0  0  0  0  0  0  0  0  0  0
    3.8436   -7.2758   16.0578 C   0  0  0  0  0  0  0  0  0  0  0  0
    3.1882   -9.7190   17.2566 C   0  0  0  0  0  0  0  0  0  0  0  0
    5.3488   -6.1737   26.5092 C   0  0  0  0  0  0  0  0  0  0  0  0
    7.4567   -6.9464   27.2858 C   0  0  0  0  0  0  0  0  0  0  0  0
    0.1921   -5.7592   27.1123 C   0  0  0  0  0  0  0  0  0  0  0  0
    3.5517   -7.7407   25.9711 C   0  0  0  0  0  0  0  0  0  0  0  0
  1  4  4  0
  1 22  4  0
  2 20  4  0
  2 27  4  0
  3 12  4  0
  3 23  4  0
  4 25  4  0
  4 28  1  0
  5  8  4  0
  5 17  4  0
  6  7  4  0
  6 16  4  0
  7 18  4  0
  8 27  4  0
  9 13  4  0
  9 23  4  0
 10 11  1  0
 11 14  2  0
 11 27  1  0
 12 19  1  0
 12 24  4  0
 13 24  4  0
 15 18  1  0
 16 25  4  0
 16 26  4  0
 17 20  4  0
 17 28  1  0
 18 21  4  0
 21 26  4  0
 22 26  4  0
M  END
$$$$

 Created by Python create_sdf_string function

 28 30  0  0  0  0  0  0  0  0999 V2000
    5.7174   -8.4529   26.7190 C   0  0  0  0  0  0  0  0  0  0  0  0
    0.3974   -7.0711   27.5149 C   0  0  0  0  0  0  0  0  0  0  0  0
    2.5338   -7.6891   16.0102 C   0  0  0  0  0  0  0  0  0  0  0  0
    4.8690   -7.4380   26.4151 C   0  0  0  0  0  0  0  0  0  0  0  0
    2.3021   -5.6726   26.0378 C   0  0  0  0  0  0  0  0  0  0  0  0
    7.0880   -4.6163   27.0010 C   0  0  0  0  0  0  0  0  0  0  0  0
    8.3117   -4.3698   27.4436 C   0  0  0  0  0  0  0  0  0  0  0  0
    1.1339   -5.0515   26.3541 C   0  0  0  0  0  0  0  0  0  0  0  0
    4.8080   -8.0362   16.7101 C   0  0  0  0  0  0  0  0  0  0  0  0
   -1.2173   -3.9294   26.9717 O   0  0  0  0  0  0  0  0  0  0  0  0
   -1.0025   -5.0942   27.4586 C   0  0  0  0  0  0  0  0  0  0  0  0
    2.2474   -8.9123   16.6273 C   0  0  0  0  0  0  0  0  0  0  0  0
    4.4957   -9.2636   17.3041 C   0  0  0  0  0  0  0  0  0  0  0  0
   -1.8070   -5.6086   28.1920 O   0  0  0  0  0  0  0  0  0  0  0  0
   10.4296   -5.1799   28.3140 C   0  0  0  0  0  0  0  0  0  0  0  0
    6.6017   -5.9004   26.9187 C   0  0  0  0  0  0  0  0  0  0  0  0
    2.4761   -6.9940   26.4111 N   0  0  0  0  0  0  0  0  0  0  0  0
    9.1353   -5.4053   27.8239 C   0  0  0  0  0  0  0  0  0  0  0  0
    0.9922   -9.3232   16.5995 O   0  0  0  0  0  0  0  0  0  0  0  0
    1.5232   -7.6869   27.1182 C   0  0  0  0  0  0  0  0  0  0  0  0
    8.6878   -6.6715   27.7262 N   0  0  0  0  0  0  0  0  0  0  0  0
    6.9911   -8.2423   27.1808 C   0  0  0  0  0  0  0  0  0  0  0  0
    3.8436   -7.2758   16.0578 C   0  0  0  0  0  0  0  0  0  0  0  0
    3.1882   -9.7190   17.2566 C   0  0  0  0  0  0  0  0  0  0  0  0
    5.3488   -6.1737   26.5092 C   0  0  0  0  0  0  0  0  0  0  0  0
    7.4567   -6.9464   27.2858 C   0  0  0  0  0  0  0  0  0  0  0  0
    0.1921   -5.7592   27.1123 C   0  0  0  0  0  0  0  0  0  0  0  0
    3.5517   -7.7407   25.9711 C   0  0  0  0  0  0  0  0  0  0  0  0
  1  4  4  0
  1 22  4  0
  2 20  4  0
  2 27  4  0
  3 12  4  0
  3 23  4  0
  4 25  4  0
  4 28  1  0
  5  8  4  0
  5 17  4  0
  6  7  4  0
  6 16  4  0
  7 18  4  0
  8 27  4  0
  9 13  4  0
  9 23  4  0
 10 11  1  0
 11 14  2  0
 11 27  1  0
 12 19  1  0
 12 24  4  0
 13 24  4  0
 15 18  1  0
 16 25  4  0
 16 26  4  0
 17 20  4  0
 17 28  1  0
 18 21  4  0
 21 26  4  0
 22 26  4  0
M  END
$$$$

 Created by Python create_sdf_string function

 28 30  0  0  0  0  0  0  0  0999 V2000
    5.7174   -8.4529   26.7190 C   0  0  0  0  0  0  0  0  0  0  0  0
    0.3974   -7.0711   27.5149 C   0  0  0  0  0  0  0  0  0  0  0  0
    2.5338   -7.6891   16.0102 C   0  0  0  0  0  0  0  0  0  0  0  0
    4.8690   -7.4380   26.4151 C   0  0  0  0  0  0  0  0  0  0  0  0
    2.3021   -5.6726   26.0378 C   0  0  0  0  0  0  0  0  0  0  0  0
    7.0880   -4.6163   27.0010 C   0  0  0  0  0  0  0  0  0  0  0  0
    8.3117   -4.3698   27.4436 C   0  0  0  0  0  0  0  0  0  0  0  0
    1.1339   -5.0515   26.3541 C   0  0  0  0  0  0  0  0  0  0  0  0
    4.8080   -8.0362   16.7101 C   0  0  0  0  0  0  0  0  0  0  0  0
   -1.2173   -3.9294   26.9717 O   0  0  0  0  0  0  0  0  0  0  0  0
   -1.0025   -5.0942   27.4586 C   0  0  0  0  0  0  0  0  0  0  0  0
    2.2474   -8.9123   16.6273 C   0  0  0  0  0  0  0  0  0  0  0  0
    4.4957   -9.2636   17.3041 C   0  0  0  0  0  0  0  0  0  0  0  0
   -1.8070   -5.6086   28.1920 O   0  0  0  0  0  0  0  0  0  0  0  0
   10.4296   -5.1799   28.3140 C   0  0  0  0  0  0  0  0  0  0  0  0
    6.6017   -5.9004   26.9187 C   0  0  0  0  0  0  0  0  0  0  0  0
    2.4761   -6.9940   26.4111 N   0  0  0  0  0  0  0  0  0  0  0  0
    9.1353   -5.4053   27.8239 C   0  0  0  0  0  0  0  0  0  0  0  0
    0.9922   -9.3232   16.5995 O   0  0  0  0  0  0  0  0  0  0  0  0
    1.5232   -7.6869   27.1182 C   0  0  0  0  0  0  0  0  0  0  0  0
    8.6878   -6.6715   27.7262 N   0  0  0  0  0  0  0  0  0  0  0  0
    6.9911   -8.2423   27.1808 C   0  0  0  0  0  0  0  0  0  0  0  0
    3.8436   -7.2758   16.0578 C   0  0  0  0  0  0  0  0  0  0  0  0
    3.1882   -9.7190   17.2566 C   0  0  0  0  0  0  0  0  0  0  0  0
    5.3488   -6.1737   26.5092 C   0  0  0  0  0  0  0  0  0  0  0  0
    7.4567   -6.9464   27.2858 C   0  0  0  0  0  0  0  0  0  0  0  0
    0.1921   -5.7592   27.1123 C   0  0  0  0  0  0  0  0  0  0  0  0
    3.5517   -7.7407   25.9711 C   0  0  0  0  0  0  0  0  0  0  0  0
  1  4  4  0
  1 22  4  0
  2 20  4  0
  2 27  4  0
  3 12  4  0
  3 23  4  0
  4 25  4  0
  4 28  1  0
  5  8  4  0
  5 17  4  0
  6  7  4  0
  6 16  4  0
  7 18  4  0
  8 27  4  0
  9 13  4  0
  9 23  4  0
 10 11  1  0
 11 14  2  0
 11 27  1  0
 12 19  1  0
 12 24  4  0
 13 24  4  0
 15 18  1  0
 16 25  4  0
 16 26  4  0
 17 20  4  0
 17 28  1  0
 18 21  4  0
 21 26  4  0
 22 26  4  0
M  END
$$$$

 Created by Python create_sdf_string function

 28 30  0  0  0  0  0  0  0  0999 V2000
    5.7174   -8.4529   26.7190 C   0  0  0  0  0  0  0  0  0  0  0  0
    0.3974   -7.0711   27.5149 C   0  0  0  0  0  0  0  0  0  0  0  0
    2.5338   -7.6891   16.0102 C   0  0  0  0  0  0  0  0  0  0  0  0
    4.8690   -7.4380   26.4151 C   0  0  0  0  0  0  0  0  0  0  0  0
    2.3021   -5.6726   26.0378 C   0  0  0  0  0  0  0  0  0  0  0  0
    7.0880   -4.6163   27.0010 C   0  0  0  0  0  0  0  0  0  0  0  0
    8.3117   -4.3698   27.4436 C   0  0  0  0  0  0  0  0  0  0  0  0
    1.1339   -5.0515   26.3541 C   0  0  0  0  0  0  0  0  0  0  0  0
    4.8080   -8.0362   16.7101 C   0  0  0  0  0  0  0  0  0  0  0  0
   -1.2173   -3.9294   26.9717 O   0  0  0  0  0  0  0  0  0  0  0  0
   -1.0025   -5.0942   27.4586 C   0  0  0  0  0  0  0  0  0  0  0  0
    2.2474   -8.9123   16.6273 C   0  0  0  0  0  0  0  0  0  0  0  0
    4.4957   -9.2636   17.3041 C   0  0  0  0  0  0  0  0  0  0  0  0
   -1.8070   -5.6086   28.1920 O   0  0  0  0  0  0  0  0  0  0  0  0
   10.4296   -5.1799   28.3140 C   0  0  0  0  0  0  0  0  0  0  0  0
    6.6017   -5.9004   26.9187 C   0  0  0  0  0  0  0  0  0  0  0  0
    2.4761   -6.9940   26.4111 N   0  0  0  0  0  0  0  0  0  0  0  0
    9.1353   -5.4053   27.8239 C   0  0  0  0  0  0  0  0  0  0  0  0
    0.9922   -9.3232   16.5995 O   0  0  0  0  0  0  0  0  0  0  0  0
    1.5232   -7.6869   27.1182 C   0  0  0  0  0  0  0  0  0  0  0  0
    8.6878   -6.6715   27.7262 N   0  0  0  0  0  0  0  0  0  0  0  0
    6.9911   -8.2423   27.1808 C   0  0  0  0  0  0  0  0  0  0  0  0
    3.8436   -7.2758   16.0578 C   0  0  0  0  0  0  0  0  0  0  0  0
    3.1882   -9.7190   17.2566 C   0  0  0  0  0  0  0  0  0  0  0  0
    5.3488   -6.1737   26.5092 C   0  0  0  0  0  0  0  0  0  0  0  0
    7.4567   -6.9464   27.2858 C   0  0  0  0  0  0  0  0  0  0  0  0
    0.1921   -5.7592   27.1123 C   0  0  0  0  0  0  0  0  0  0  0  0
    3.5517   -7.7407   25.9711 C   0  0  0  0  0  0  0  0  0  0  0  0
  1  4  4  0
  1 22  4  0
  2 20  4  0
  2 27  4  0
  3 12  4  0
  3 23  4  0
  4 25  4  0
  4 28  1  0
  5  8  4  0
  5 17  4  0
  6  7  4  0
  6 16  4  0
  7 18  4  0
  8 27  4  0
  9 13  4  0
  9 23  4  0
 10 11  1  0
 11 14  2  0
 11 27  1  0
 12 19  1  0
 12 24  4  0
 13 24  4  0
 15 18  1  0
 16 25  4  0
 16 26  4  0
 17 20  4  0
 17 28  1  0
 18 21  4  0
 21 26  4  0
 22 26  4  0
M  END
$$$$

 Created by Python create_sdf_string function

 28 30  0  0  0  0  0  0  0  0999 V2000
    5.7174   -8.4529   26.7190 C   0  0  0  0  0  0  0  0  0  0  0  0
    0.3974   -7.0711   27.5149 C   0  0  0  0  0  0  0  0  0  0  0  0
    2.5338   -7.6891   16.0102 C   0  0  0  0  0  0  0  0  0  0  0  0
    4.8690   -7.4380   26.4151 C   0  0  0  0  0  0  0  0  0  0  0  0
    2.3021   -5.6726   26.0378 C   0  0  0  0  0  0  0  0  0  0  0  0
    7.0880   -4.6163   27.0010 C   0  0  0  0  0  0  0  0  0  0  0  0
    8.3117   -4.3698   27.4436 C   0  0  0  0  0  0  0  0  0  0  0  0
    1.1339   -5.0515   26.3541 C   0  0  0  0  0  0  0  0  0  0  0  0
    4.8080   -8.0362   16.7101 C   0  0  0  0  0  0  0  0  0  0  0  0
   -1.2173   -3.9294   26.9717 O   0  0  0  0  0  0  0  0  0  0  0  0
   -1.0025   -5.0942   27.4586 C   0  0  0  0  0  0  0  0  0  0  0  0
    2.2474   -8.9123   16.6273 C   0  0  0  0  0  0  0  0  0  0  0  0
    4.4957   -9.2636   17.3041 C   0  0  0  0  0  0  0  0  0  0  0  0
   -1.8070   -5.6086   28.1920 O   0  0  0  0  0  0  0  0  0  0  0  0
   10.4296   -5.1799   28.3140 C   0  0  0  0  0  0  0  0  0  0  0  0
    6.6017   -5.9004   26.9187 C   0  0  0  0  0  0  0  0  0  0  0  0
    2.4761   -6.9940   26.4111 N   0  0  0  0  0  0  0  0  0  0  0  0
    9.1353   -5.4053   27.8239 C   0  0  0  0  0  0  0  0  0  0  0  0
    0.9922   -9.3232   16.5995 O   0  0  0  0  0  0  0  0  0  0  0  0
    1.5232   -7.6869   27.1182 C   0  0  0  0  0  0  0  0  0  0  0  0
    8.6878   -6.6715   27.7262 N   0  0  0  0  0  0  0  0  0  0  0  0
    6.9911   -8.2423   27.1808 C   0  0  0  0  0  0  0  0  0  0  0  0
    3.8436   -7.2758   16.0578 C   0  0  0  0  0  0  0  0  0  0  0  0
    3.1882   -9.7190   17.2566 C   0  0  0  0  0  0  0  0  0  0  0  0
    5.3488   -6.1737   26.5092 C   0  0  0  0  0  0  0  0  0  0  0  0
    7.4567   -6.9464   27.2858 C   0  0  0  0  0  0  0  0  0  0  0  0
    0.1921   -5.7592   27.1123 C   0  0  0  0  0  0  0  0  0  0  0  0
    3.5517   -7.7407   25.9711 C   0  0  0  0  0  0  0  0  0  0  0  0
  1  4  4  0
  1 22  4  0
  2 20  4  0
  2 27  4  0
  3 12  4  0
  3 23  4  0
  4 25  4  0
  4 28  1  0
  5  8  4  0
  5 17  4  0
  6  7  4  0
  6 16  4  0
  7 18  4  0
  8 27  4  0
  9 13  4  0
  9 23  4  0
 10 11  1  0
 11 14  2  0
 11 27  1  0
 12 19  1  0
 12 24  4  0
 13 24  4  0
 15 18  1  0
 16 25  4  0
 16 26  4  0
 17 20  4  0
 17 28  1  0
 18 21  4  0
 21 26  4  0
 22 26  4  0
M  END
$$$$

 Created by Python create_sdf_string function

 28 30  0  0  0  0  0  0  0  0999 V2000
    5.7174   -8.4529   26.7190 C   0  0  0  0  0  0  0  0  0  0  0  0
    0.3974   -7.0711   27.5149 C   0  0  0  0  0  0  0  0  0  0  0  0
    2.5338   -7.6891   16.0102 C   0  0  0  0  0  0  0  0  0  0  0  0
    4.8690   -7.4380   26.4151 C   0  0  0  0  0  0  0  0  0  0  0  0
    2.3021   -5.6726   26.0378 C   0  0  0  0  0  0  0  0  0  0  0  0
    7.0880   -4.6163   27.0010 C   0  0  0  0  0  0  0  0  0  0  0  0
    8.3117   -4.3698   27.4436 C   0  0  0  0  0  0  0  0  0  0  0  0
    1.1339   -5.0515   26.3541 C   0  0  0  0  0  0  0  0  0  0  0  0
    4.8080   -8.0362   16.7101 C   0  0  0  0  0  0  0  0  0  0  0  0
   -1.2173   -3.9294   26.9717 O   0  0  0  0  0  0  0  0  0  0  0  0
   -1.0025   -5.0942   27.4586 C   0  0  0  0  0  0  0  0  0  0  0  0
    2.2474   -8.9123   16.6273 C   0  0  0  0  0  0  0  0  0  0  0  0
    4.4957   -9.2636   17.3041 C   0  0  0  0  0  0  0  0  0  0  0  0
   -1.8070   -5.6086   28.1920 O   0  0  0  0  0  0  0  0  0  0  0  0
   10.4296   -5.1799   28.3140 C   0  0  0  0  0  0  0  0  0  0  0  0
    6.6017   -5.9004   26.9187 C   0  0  0  0  0  0  0  0  0  0  0  0
    2.4761   -6.9940   26.4111 N   0  0  0  0  0  0  0  0  0  0  0  0
    9.1353   -5.4053   27.8239 C   0  0  0  0  0  0  0  0  0  0  0  0
    0.9922   -9.3232   16.5995 O   0  0  0  0  0  0  0  0  0  0  0  0
    1.5232   -7.6869   27.1182 C   0  0  0  0  0  0  0  0  0  0  0  0
    8.6878   -6.6715   27.7262 N   0  0  0  0  0  0  0  0  0  0  0  0
    6.9911   -8.2423   27.1808 C   0  0  0  0  0  0  0  0  0  0  0  0
    3.8436   -7.2758   16.0578 C   0  0  0  0  0  0  0  0  0  0  0  0
    3.1882   -9.7190   17.2566 C   0  0  0  0  0  0  0  0  0  0  0  0
    5.3488   -6.1737   26.5092 C   0  0  0  0  0  0  0  0  0  0  0  0
    7.4567   -6.9464   27.2858 C   0  0  0  0  0  0  0  0  0  0  0  0
    0.1921   -5.7592   27.1123 C   0  0  0  0  0  0  0  0  0  0  0  0
    3.5517   -7.7407   25.9711 C   0  0  0  0  0  0  0  0  0  0  0  0
  1  4  4  0
  1 22  4  0
  2 20  4  0
  2 27  4  0
  3 12  4  0
  3 23  4  0
  4 25  4  0
  4 28  1  0
  5  8  4  0
  5 17  4  0
  6  7  4  0
  6 16  4  0
  7 18  4  0
  8 27  4  0
  9 13  4  0
  9 23  4  0
 10 11  1  0
 11 14  2  0
 11 27  1  0
 12 19  1  0
 12 24  4  0
 13 24  4  0
 15 18  1  0
 16 25  4  0
 16 26  4  0
 17 20  4  0
 17 28  1  0
 18 21  4  0
 21 26  4  0
 22 26  4  0
M  END
$$$$

 Created by Python create_sdf_string function

 28 30  0  0  0  0  0  0  0  0999 V2000
    5.7174   -8.4529   26.7190 C   0  0  0  0  0  0  0  0  0  0  0  0
    0.3974   -7.0711   27.5149 C   0  0  0  0  0  0  0  0  0  0  0  0
    2.5338   -7.6891   16.0102 C   0  0  0  0  0  0  0  0  0  0  0  0
    4.8690   -7.4380   26.4151 C   0  0  0  0  0  0  0  0  0  0  0  0
    2.3021   -5.6726   26.0378 C   0  0  0  0  0  0  0  0  0  0  0  0
    7.0880   -4.6163   27.0010 C   0  0  0  0  0  0  0  0  0  0  0  0
    8.3117   -4.3698   27.4436 C   0  0  0  0  0  0  0  0  0  0  0  0
    1.1339   -5.0515   26.3541 C   0  0  0  0  0  0  0  0  0  0  0  0
    4.8080   -8.0362   16.7101 C   0  0  0  0  0  0  0  0  0  0  0  0
   -1.2173   -3.9294   26.9717 O   0  0  0  0  0  0  0  0  0  0  0  0
   -1.0025   -5.0942   27.4586 C   0  0  0  0  0  0  0  0  0  0  0  0
    2.2474   -8.9123   16.6273 C   0  0  0  0  0  0  0  0  0  0  0  0
    4.4957   -9.2636   17.3041 C   0  0  0  0  0  0  0  0  0  0  0  0
   -1.8070   -5.6086   28.1920 O   0  0  0  0  0  0  0  0  0  0  0  0
   10.4296   -5.1799   28.3140 C   0  0  0  0  0  0  0  0  0  0  0  0
    6.6017   -5.9004   26.9187 C   0  0  0  0  0  0  0  0  0  0  0  0
    2.4761   -6.9940   26.4111 N   0  0  0  0  0  0  0  0  0  0  0  0
    9.1353   -5.4053   27.8239 C   0  0  0  0  0  0  0  0  0  0  0  0
    0.9922   -9.3232   16.5995 O   0  0  0  0  0  0  0  0  0  0  0  0
    1.5232   -7.6869   27.1182 C   0  0  0  0  0  0  0  0  0  0  0  0
    8.6878   -6.6715   27.7262 N   0  0  0  0  0  0  0  0  0  0  0  0
    6.9911   -8.2423   27.1808 C   0  0  0  0  0  0  0  0  0  0  0  0
    3.8436   -7.2758   16.0578 C   0  0  0  0  0  0  0  0  0  0  0  0
    3.1882   -9.7190   17.2566 C   0  0  0  0  0  0  0  0  0  0  0  0
    5.3488   -6.1737   26.5092 C   0  0  0  0  0  0  0  0  0  0  0  0
    7.4567   -6.9464   27.2858 C   0  0  0  0  0  0  0  0  0  0  0  0
    0.1921   -5.7592   27.1123 C   0  0  0  0  0  0  0  0  0  0  0  0
    3.5517   -7.7407   25.9711 C   0  0  0  0  0  0  0  0  0  0  0  0
  1  4  4  0
  1 22  4  0
  2 20  4  0
  2 27  4  0
  3 12  4  0
  3 23  4  0
  4 25  4  0
  4 28  1  0
  5  8  4  0
  5 17  4  0
  6  7  4  0
  6 16  4  0
  7 18  4  0
  8 27  4  0
  9 13  4  0
  9 23  4  0
 10 11  1  0
 11 14  2  0
 11 27  1  0
 12 19  1  0
 12 24  4  0
 13 24  4  0
 15 18  1  0
 16 25  4  0
 16 26  4  0
 17 20  4  0
 17 28  1  0
 18 21  4  0
 21 26  4  0
 22 26  4  0
M  END
$$$$

 Created by Python create_sdf_string function

 28 30  0  0  0  0  0  0  0  0999 V2000
    5.7174   -8.4529   26.7190 C   0  0  0  0  0  0  0  0  0  0  0  0
    0.3974   -7.0711   27.5149 C   0  0  0  0  0  0  0  0  0  0  0  0
    2.5338   -7.6891   16.0102 C   0  0  0  0  0  0  0  0  0  0  0  0
    4.8690   -7.4380   26.4151 C   0  0  0  0  0  0  0  0  0  0  0  0
    2.3021   -5.6726   26.0378 C   0  0  0  0  0  0  0  0  0  0  0  0
    7.0880   -4.6163   27.0010 C   0  0  0  0  0  0  0  0  0  0  0  0
    8.3117   -4.3698   27.4436 C   0  0  0  0  0  0  0  0  0  0  0  0
    1.1339   -5.0515   26.3541 C   0  0  0  0  0  0  0  0  0  0  0  0
    4.8080   -8.0362   16.7101 C   0  0  0  0  0  0  0  0  0  0  0  0
   -1.2173   -3.9294   26.9717 O   0  0  0  0  0  0  0  0  0  0  0  0
   -1.0025   -5.0942   27.4586 C   0  0  0  0  0  0  0  0  0  0  0  0
    2.2474   -8.9123   16.6273 C   0  0  0  0  0  0  0  0  0  0  0  0
    4.4957   -9.2636   17.3041 C   0  0  0  0  0  0  0  0  0  0  0  0
   -1.8070   -5.6086   28.1920 O   0  0  0  0  0  0  0  0  0  0  0  0
   10.4296   -5.1799   28.3140 C   0  0  0  0  0  0  0  0  0  0  0  0
    6.6017   -5.9004   26.9187 C   0  0  0  0  0  0  0  0  0  0  0  0
    2.4761   -6.9940   26.4111 N   0  0  0  0  0  0  0  0  0  0  0  0
    9.1353   -5.4053   27.8239 C   0  0  0  0  0  0  0  0  0  0  0  0
    0.9922   -9.3232   16.5995 O   0  0  0  0  0  0  0  0  0  0  0  0
    1.5232   -7.6869   27.1182 C   0  0  0  0  0  0  0  0  0  0  0  0
    8.6878   -6.6715   27.7262 N   0  0  0  0  0  0  0  0  0  0  0  0
    6.9911   -8.2423   27.1808 C   0  0  0  0  0  0  0  0  0  0  0  0
    3.8436   -7.2758   16.0578 C   0  0  0  0  0  0  0  0  0  0  0  0
    3.1882   -9.7190   17.2566 C   0  0  0  0  0  0  0  0  0  0  0  0
    5.3488   -6.1737   26.5092 C   0  0  0  0  0  0  0  0  0  0  0  0
    7.4567   -6.9464   27.2858 C   0  0  0  0  0  0  0  0  0  0  0  0
    0.1921   -5.7592   27.1123 C   0  0  0  0  0  0  0  0  0  0  0  0
    3.5517   -7.7407   25.9711 C   0  0  0  0  0  0  0  0  0  0  0  0
  1  4  4  0
  1 22  4  0
  2 20  4  0
  2 27  4  0
  3 12  4  0
  3 23  4  0
  4 25  4  0
  4 28  1  0
  5  8  4  0
  5 17  4  0
  6  7  4  0
  6 16  4  0
  7 18  4  0
  8 27  4  0
  9 13  4  0
  9 23  4  0
 10 11  1  0
 11 14  2  0
 11 27  1  0
 12 19  1  0
 12 24  4  0
 13 24  4  0
 15 18  1  0
 16 25  4  0
 16 26  4  0
 17 20  4  0
 17 28  1  0
 18 21  4  0
 21 26  4  0
 22 26  4  0
M  END
$$$$

 Created by Python create_sdf_string function

 28 30  0  0  0  0  0  0  0  0999 V2000
    5.7174   -8.4529   26.7190 C   0  0  0  0  0  0  0  0  0  0  0  0
    0.3974   -7.0711   27.5149 C   0  0  0  0  0  0  0  0  0  0  0  0
    2.5338   -7.6891   16.0102 C   0  0  0  0  0  0  0  0  0  0  0  0
    4.8690   -7.4380   26.4151 C   0  0  0  0  0  0  0  0  0  0  0  0
    2.3021   -5.6726   26.0378 C   0  0  0  0  0  0  0  0  0  0  0  0
    7.0880   -4.6163   27.0010 C   0  0  0  0  0  0  0  0  0  0  0  0
    8.3117   -4.3698   27.4436 C   0  0  0  0  0  0  0  0  0  0  0  0
    1.1339   -5.0515   26.3541 C   0  0  0  0  0  0  0  0  0  0  0  0
    4.8080   -8.0362   16.7101 C   0  0  0  0  0  0  0  0  0  0  0  0
   -1.2173   -3.9294   26.9717 O   0  0  0  0  0  0  0  0  0  0  0  0
   -1.0025   -5.0942   27.4586 C   0  0  0  0  0  0  0  0  0  0  0  0
    2.2474   -8.9123   16.6273 C   0  0  0  0  0  0  0  0  0  0  0  0
    4.4957   -9.2636   17.3041 C   0  0  0  0  0  0  0  0  0  0  0  0
   -1.8070   -5.6086   28.1920 O   0  0  0  0  0  0  0  0  0  0  0  0
   10.4296   -5.1799   28.3140 C   0  0  0  0  0  0  0  0  0  0  0  0
    6.6017   -5.9004   26.9187 C   0  0  0  0  0  0  0  0  0  0  0  0
    2.4761   -6.9940   26.4111 N   0  0  0  0  0  0  0  0  0  0  0  0
    9.1353   -5.4053   27.8239 C   0  0  0  0  0  0  0  0  0  0  0  0
    0.9922   -9.3232   16.5995 O   0  0  0  0  0  0  0  0  0  0  0  0
    1.5232   -7.6869   27.1182 C   0  0  0  0  0  0  0  0  0  0  0  0
    8.6878   -6.6715   27.7262 N   0  0  0  0  0  0  0  0  0  0  0  0
    6.9911   -8.2423   27.1808 C   0  0  0  0  0  0  0  0  0  0  0  0
    3.8436   -7.2758   16.0578 C   0  0  0  0  0  0  0  0  0  0  0  0
    3.1882   -9.7190   17.2566 C   0  0  0  0  0  0  0  0  0  0  0  0
    5.3488   -6.1737   26.5092 C   0  0  0  0  0  0  0  0  0  0  0  0
    7.4567   -6.9464   27.2858 C   0  0  0  0  0  0  0  0  0  0  0  0
    0.1921   -5.7592   27.1123 C   0  0  0  0  0  0  0  0  0  0  0  0
    3.5517   -7.7407   25.9711 C   0  0  0  0  0  0  0  0  0  0  0  0
  1  4  4  0
  1 22  4  0
  2 20  4  0
  2 27  4  0
  3 12  4  0
  3 23  4  0
  4 25  4  0
  4 28  1  0
  5  8  4  0
  5 17  4  0
  6  7  4  0
  6 16  4  0
  7 18  4  0
  8 27  4  0
  9 13  4  0
  9 23  4  0
 10 11  1  0
 11 14  2  0
 11 27  1  0
 12 19  1  0
 12 24  4  0
 13 24  4  0
 15 18  1  0
 16 25  4  0
 16 26  4  0
 17 20  4  0
 17 28  1  0
 18 21  4  0
 21 26  4  0
 22 26  4  0
M  END
$$$$

 Created by Python create_sdf_string function

 28 30  0  0  0  0  0  0  0  0999 V2000
    5.7174   -8.4529   26.7190 C   0  0  0  0  0  0  0  0  0  0  0  0
    0.3974   -7.0711   27.5149 C   0  0  0  0  0  0  0  0  0  0  0  0
    2.5338   -7.6891   16.0102 C   0  0  0  0  0  0  0  0  0  0  0  0
    4.8690   -7.4380   26.4151 C   0  0  0  0  0  0  0  0  0  0  0  0
    2.3021   -5.6726   26.0378 C   0  0  0  0  0  0  0  0  0  0  0  0
    7.0880   -4.6163   27.0010 C   0  0  0  0  0  0  0  0  0  0  0  0
    8.3117   -4.3698   27.4436 C   0  0  0  0  0  0  0  0  0  0  0  0
    1.1339   -5.0515   26.3541 C   0  0  0  0  0  0  0  0  0  0  0  0
    4.8080   -8.0362   16.7101 C   0  0  0  0  0  0  0  0  0  0  0  0
   -1.2173   -3.9294   26.9717 O   0  0  0  0  0  0  0  0  0  0  0  0
   -1.0025   -5.0942   27.4586 C   0  0  0  0  0  0  0  0  0  0  0  0
    2.2474   -8.9123   16.6273 C   0  0  0  0  0  0  0  0  0  0  0  0
    4.4957   -9.2636   17.3041 C   0  0  0  0  0  0  0  0  0  0  0  0
   -1.8070   -5.6086   28.1920 O   0  0  0  0  0  0  0  0  0  0  0  0
   10.4296   -5.1799   28.3140 C   0  0  0  0  0  0  0  0  0  0  0  0
    6.6017   -5.9004   26.9187 C   0  0  0  0  0  0  0  0  0  0  0  0
    2.4761   -6.9940   26.4111 N   0  0  0  0  0  0  0  0  0  0  0  0
    9.1353   -5.4053   27.8239 C   0  0  0  0  0  0  0  0  0  0  0  0
    0.9922   -9.3232   16.5995 O   0  0  0  0  0  0  0  0  0  0  0  0
    1.5232   -7.6869   27.1182 C   0  0  0  0  0  0  0  0  0  0  0  0
    8.6878   -6.6715   27.7262 N   0  0  0  0  0  0  0  0  0  0  0  0
    6.9911   -8.2423   27.1808 C   0  0  0  0  0  0  0  0  0  0  0  0
    3.8436   -7.2758   16.0578 C   0  0  0  0  0  0  0  0  0  0  0  0
    3.1882   -9.7190   17.2566 C   0  0  0  0  0  0  0  0  0  0  0  0
    5.3488   -6.1737   26.5092 C   0  0  0  0  0  0  0  0  0  0  0  0
    7.4567   -6.9464   27.2858 C   0  0  0  0  0  0  0  0  0  0  0  0
    0.1921   -5.7592   27.1123 C   0  0  0  0  0  0  0  0  0  0  0  0
    3.5517   -7.7407   25.9711 C   0  0  0  0  0  0  0  0  0  0  0  0
  1  4  4  0
  1 22  4  0
  2 20  4  0
  2 27  4  0
  3 12  4  0
  3 23  4  0
  4 25  4  0
  4 28  1  0
  5  8  4  0
  5 17  4  0
  6  7  4  0
  6 16  4  0
  7 18  4  0
  8 27  4  0
  9 13  4  0
  9 23  4  0
 10 11  1  0
 11 14  2  0
 11 27  1  0
 12 19  1  0
 12 24  4  0
 13 24  4  0
 15 18  1  0
 16 25  4  0
 16 26  4  0
 17 20  4  0
 17 28  1  0
 18 21  4  0
 21 26  4  0
 22 26  4  0
M  END
$$$$

 Created by Python create_sdf_string function

 28 30  0  0  0  0  0  0  0  0999 V2000
    5.7174   -8.4529   26.7190 C   0  0  0  0  0  0  0  0  0  0  0  0
    0.3974   -7.0711   27.5149 C   0  0  0  0  0  0  0  0  0  0  0  0
    2.5338   -7.6891   16.0102 C   0  0  0  0  0  0  0  0  0  0  0  0
    4.8690   -7.4380   26.4151 C   0  0  0  0  0  0  0  0  0  0  0  0
    2.3021   -5.6726   26.0378 C   0  0  0  0  0  0  0  0  0  0  0  0
    7.0880   -4.6163   27.0010 C   0  0  0  0  0  0  0  0  0  0  0  0
    8.3117   -4.3698   27.4436 C   0  0  0  0  0  0  0  0  0  0  0  0
    1.1339   -5.0515   26.3541 C   0  0  0  0  0  0  0  0  0  0  0  0
    4.8080   -8.0362   16.7101 C   0  0  0  0  0  0  0  0  0  0  0  0
   -1.2173   -3.9294   26.9717 O   0  0  0  0  0  0  0  0  0  0  0  0
   -1.0025   -5.0942   27.4586 C   0  0  0  0  0  0  0  0  0  0  0  0
    2.2474   -8.9123   16.6273 C   0  0  0  0  0  0  0  0  0  0  0  0
    4.4957   -9.2636   17.3041 C   0  0  0  0  0  0  0  0  0  0  0  0
   -1.8070   -5.6086   28.1920 O   0  0  0  0  0  0  0  0  0  0  0  0
   10.4296   -5.1799   28.3140 C   0  0  0  0  0  0  0  0  0  0  0  0
    6.6017   -5.9004   26.9187 C   0  0  0  0  0  0  0  0  0  0  0  0
    2.4761   -6.9940   26.4111 N   0  0  0  0  0  0  0  0  0  0  0  0
    9.1353   -5.4053   27.8239 C   0  0  0  0  0  0  0  0  0  0  0  0
    0.9922   -9.3232   16.5995 O   0  0  0  0  0  0  0  0  0  0  0  0
    1.5232   -7.6869   27.1182 C   0  0  0  0  0  0  0  0  0  0  0  0
    8.6878   -6.6715   27.7262 N   0  0  0  0  0  0  0  0  0  0  0  0
    6.9911   -8.2423   27.1808 C   0  0  0  0  0  0  0  0  0  0  0  0
    3.8436   -7.2758   16.0578 C   0  0  0  0  0  0  0  0  0  0  0  0
    3.1882   -9.7190   17.2566 C   0  0  0  0  0  0  0  0  0  0  0  0
    5.3488   -6.1737   26.5092 C   0  0  0  0  0  0  0  0  0  0  0  0
    7.4567   -6.9464   27.2858 C   0  0  0  0  0  0  0  0  0  0  0  0
    0.1921   -5.7592   27.1123 C   0  0  0  0  0  0  0  0  0  0  0  0
    3.5517   -7.7407   25.9711 C   0  0  0  0  0  0  0  0  0  0  0  0
  1  4  4  0
  1 22  4  0
  2 20  4  0
  2 27  4  0
  3 12  4  0
  3 23  4  0
  4 25  4  0
  4 28  1  0
  5  8  4  0
  5 17  4  0
  6  7  4  0
  6 16  4  0
  7 18  4  0
  8 27  4  0
  9 13  4  0
  9 23  4  0
 10 11  1  0
 11 14  2  0
 11 27  1  0
 12 19  1  0
 12 24  4  0
 13 24  4  0
 15 18  1  0
 16 25  4  0
 16 26  4  0
 17 20  4  0
 17 28  1  0
 18 21  4  0
 21 26  4  0
 22 26  4  0
M  END
$$$$

 Created by Python create_sdf_string function

 28 30  0  0  0  0  0  0  0  0999 V2000
    5.7174   -8.4529   26.7190 C   0  0  0  0  0  0  0  0  0  0  0  0
    0.3974   -7.0711   27.5149 C   0  0  0  0  0  0  0  0  0  0  0  0
    2.5338   -7.6891   16.0102 C   0  0  0  0  0  0  0  0  0  0  0  0
    4.8690   -7.4380   26.4151 C   0  0  0  0  0  0  0  0  0  0  0  0
    2.3021   -5.6726   26.0378 C   0  0  0  0  0  0  0  0  0  0  0  0
    7.0880   -4.6163   27.0010 C   0  0  0  0  0  0  0  0  0  0  0  0
    8.3117   -4.3698   27.4436 C   0  0  0  0  0  0  0  0  0  0  0  0
    1.1339   -5.0515   26.3541 C   0  0  0  0  0  0  0  0  0  0  0  0
    4.8080   -8.0362   16.7101 C   0  0  0  0  0  0  0  0  0  0  0  0
   -1.2173   -3.9294   26.9717 O   0  0  0  0  0  0  0  0  0  0  0  0
   -1.0025   -5.0942   27.4586 C   0  0  0  0  0  0  0  0  0  0  0  0
    2.2474   -8.9123   16.6273 C   0  0  0  0  0  0  0  0  0  0  0  0
    4.4957   -9.2636   17.3041 C   0  0  0  0  0  0  0  0  0  0  0  0
   -1.8070   -5.6086   28.1920 O   0  0  0  0  0  0  0  0  0  0  0  0
   10.4296   -5.1799   28.3140 C   0  0  0  0  0  0  0  0  0  0  0  0
    6.6017   -5.9004   26.9187 C   0  0  0  0  0  0  0  0  0  0  0  0
    2.4761   -6.9940   26.4111 N   0  0  0  0  0  0  0  0  0  0  0  0
    9.1353   -5.4053   27.8239 C   0  0  0  0  0  0  0  0  0  0  0  0
    0.9922   -9.3232   16.5995 O   0  0  0  0  0  0  0  0  0  0  0  0
    1.5232   -7.6869   27.1182 C   0  0  0  0  0  0  0  0  0  0  0  0
    8.6878   -6.6715   27.7262 N   0  0  0  0  0  0  0  0  0  0  0  0
    6.9911   -8.2423   27.1808 C   0  0  0  0  0  0  0  0  0  0  0  0
    3.8436   -7.2758   16.0578 C   0  0  0  0  0  0  0  0  0  0  0  0
    3.1882   -9.7190   17.2566 C   0  0  0  0  0  0  0  0  0  0  0  0
    5.3488   -6.1737   26.5092 C   0  0  0  0  0  0  0  0  0  0  0  0
    7.4567   -6.9464   27.2858 C   0  0  0  0  0  0  0  0  0  0  0  0
    0.1921   -5.7592   27.1123 C   0  0  0  0  0  0  0  0  0  0  0  0
    3.5517   -7.7407   25.9711 C   0  0  0  0  0  0  0  0  0  0  0  0
  1  4  4  0
  1 22  4  0
  2 20  4  0
  2 27  4  0
  3 12  4  0
  3 23  4  0
  4 25  4  0
  4 28  1  0
  5  8  4  0
  5 17  4  0
  6  7  4  0
  6 16  4  0
  7 18  4  0
  8 27  4  0
  9 13  4  0
  9 23  4  0
 10 11  1  0
 11 14  2  0
 11 27  1  0
 12 19  1  0
 12 24  4  0
 13 24  4  0
 15 18  1  0
 16 25  4  0
 16 26  4  0
 17 20  4  0
 17 28  1  0
 18 21  4  0
 21 26  4  0
 22 26  4  0
M  END
$$$$

 Created by Python create_sdf_string function

 28 30  0  0  0  0  0  0  0  0999 V2000
    5.7174   -8.4529   26.7190 C   0  0  0  0  0  0  0  0  0  0  0  0
    0.3974   -7.0711   27.5149 C   0  0  0  0  0  0  0  0  0  0  0  0
    2.5338   -7.6891   16.0102 C   0  0  0  0  0  0  0  0  0  0  0  0
    4.8690   -7.4380   26.4151 C   0  0  0  0  0  0  0  0  0  0  0  0
    2.3021   -5.6726   26.0378 C   0  0  0  0  0  0  0  0  0  0  0  0
    7.0880   -4.6163   27.0010 C   0  0  0  0  0  0  0  0  0  0  0  0
    8.3117   -4.3698   27.4436 C   0  0  0  0  0  0  0  0  0  0  0  0
    1.1339   -5.0515   26.3541 C   0  0  0  0  0  0  0  0  0  0  0  0
    4.8080   -8.0362   16.7101 C   0  0  0  0  0  0  0  0  0  0  0  0
   -1.2173   -3.9294   26.9717 O   0  0  0  0  0  0  0  0  0  0  0  0
   -1.0025   -5.0942   27.4586 C   0  0  0  0  0  0  0  0  0  0  0  0
    2.2474   -8.9123   16.6273 C   0  0  0  0  0  0  0  0  0  0  0  0
    4.4957   -9.2636   17.3041 C   0  0  0  0  0  0  0  0  0  0  0  0
   -1.8070   -5.6086   28.1920 O   0  0  0  0  0  0  0  0  0  0  0  0
   10.4296   -5.1799   28.3140 C   0  0  0  0  0  0  0  0  0  0  0  0
    6.6017   -5.9004   26.9187 C   0  0  0  0  0  0  0  0  0  0  0  0
    2.4761   -6.9940   26.4111 N   0  0  0  0  0  0  0  0  0  0  0  0
    9.1353   -5.4053   27.8239 C   0  0  0  0  0  0  0  0  0  0  0  0
    0.9922   -9.3232   16.5995 O   0  0  0  0  0  0  0  0  0  0  0  0
    1.5232   -7.6869   27.1182 C   0  0  0  0  0  0  0  0  0  0  0  0
    8.6878   -6.6715   27.7262 N   0  0  0  0  0  0  0  0  0  0  0  0
    6.9911   -8.2423   27.1808 C   0  0  0  0  0  0  0  0  0  0  0  0
    3.8436   -7.2758   16.0578 C   0  0  0  0  0  0  0  0  0  0  0  0
    3.1882   -9.7190   17.2566 C   0  0  0  0  0  0  0  0  0  0  0  0
    5.3488   -6.1737   26.5092 C   0  0  0  0  0  0  0  0  0  0  0  0
    7.4567   -6.9464   27.2858 C   0  0  0  0  0  0  0  0  0  0  0  0
    0.1921   -5.7592   27.1123 C   0  0  0  0  0  0  0  0  0  0  0  0
    3.5517   -7.7407   25.9711 C   0  0  0  0  0  0  0  0  0  0  0  0
  1  4  4  0
  1 22  4  0
  2 20  4  0
  2 27  4  0
  3 12  4  0
  3 23  4  0
  4 25  4  0
  4 28  1  0
  5  8  4  0
  5 17  4  0
  6  7  4  0
  6 16  4  0
  7 18  4  0
  8 27  4  0
  9 13  4  0
  9 23  4  0
 10 11  1  0
 11 14  2  0
 11 27  1  0
 12 19  1  0
 12 24  4  0
 13 24  4  0
 15 18  1  0
 16 25  4  0
 16 26  4  0
 17 20  4  0
 17 28  1  0
 18 21  4  0
 21 26  4  0
 22 26  4  0
M  END
$$$$

 Created by Python create_sdf_string function

 28 30  0  0  0  0  0  0  0  0999 V2000
    5.7174   -8.4529   26.7190 C   0  0  0  0  0  0  0  0  0  0  0  0
    0.3974   -7.0711   27.5149 C   0  0  0  0  0  0  0  0  0  0  0  0
    2.5338   -7.6891   16.0102 C   0  0  0  0  0  0  0  0  0  0  0  0
    4.8690   -7.4380   26.4151 C   0  0  0  0  0  0  0  0  0  0  0  0
    2.3021   -5.6726   26.0378 C   0  0  0  0  0  0  0  0  0  0  0  0
    7.0880   -4.6163   27.0010 C   0  0  0  0  0  0  0  0  0  0  0  0
    8.3117   -4.3698   27.4436 C   0  0  0  0  0  0  0  0  0  0  0  0
    1.1339   -5.0515   26.3541 C   0  0  0  0  0  0  0  0  0  0  0  0
    4.8080   -8.0362   16.7101 C   0  0  0  0  0  0  0  0  0  0  0  0
   -1.2173   -3.9294   26.9717 O   0  0  0  0  0  0  0  0  0  0  0  0
   -1.0025   -5.0942   27.4586 C   0  0  0  0  0  0  0  0  0  0  0  0
    2.2474   -8.9123   16.6273 C   0  0  0  0  0  0  0  0  0  0  0  0
    4.4957   -9.2636   17.3041 C   0  0  0  0  0  0  0  0  0  0  0  0
   -1.8070   -5.6086   28.1920 O   0  0  0  0  0  0  0  0  0  0  0  0
   10.4296   -5.1799   28.3140 C   0  0  0  0  0  0  0  0  0  0  0  0
    6.6017   -5.9004   26.9187 C   0  0  0  0  0  0  0  0  0  0  0  0
    2.4761   -6.9940   26.4111 N   0  0  0  0  0  0  0  0  0  0  0  0
    9.1353   -5.4053   27.8239 C   0  0  0  0  0  0  0  0  0  0  0  0
    0.9922   -9.3232   16.5995 O   0  0  0  0  0  0  0  0  0  0  0  0
    1.5232   -7.6869   27.1182 C   0  0  0  0  0  0  0  0  0  0  0  0
    8.6878   -6.6715   27.7262 N   0  0  0  0  0  0  0  0  0  0  0  0
    6.9911   -8.2423   27.1808 C   0  0  0  0  0  0  0  0  0  0  0  0
    3.8436   -7.2758   16.0578 C   0  0  0  0  0  0  0  0  0  0  0  0
    3.1882   -9.7190   17.2566 C   0  0  0  0  0  0  0  0  0  0  0  0
    5.3488   -6.1737   26.5092 C   0  0  0  0  0  0  0  0  0  0  0  0
    7.4567   -6.9464   27.2858 C   0  0  0  0  0  0  0  0  0  0  0  0
    0.1921   -5.7592   27.1123 C   0  0  0  0  0  0  0  0  0  0  0  0
    3.5517   -7.7407   25.9711 C   0  0  0  0  0  0  0  0  0  0  0  0
  1  4  4  0
  1 22  4  0
  2 20  4  0
  2 27  4  0
  3 12  4  0
  3 23  4  0
  4 25  4  0
  4 28  1  0
  5  8  4  0
  5 17  4  0
  6  7  4  0
  6 16  4  0
  7 18  4  0
  8 27  4  0
  9 13  4  0
  9 23  4  0
 10 11  1  0
 11 14  2  0
 11 27  1  0
 12 19  1  0
 12 24  4  0
 13 24  4  0
 15 18  1  0
 16 25  4  0
 16 26  4  0
 17 20  4  0
 17 28  1  0
 18 21  4  0
 21 26  4  0
 22 26  4  0
M  END
$$$$

 Created by Python create_sdf_string function

 28 30  0  0  0  0  0  0  0  0999 V2000
    5.7174   -8.4529   26.7190 C   0  0  0  0  0  0  0  0  0  0  0  0
    0.3974   -7.0711   27.5149 C   0  0  0  0  0  0  0  0  0  0  0  0
    2.5338   -7.6891   16.0102 C   0  0  0  0  0  0  0  0  0  0  0  0
    4.8690   -7.4380   26.4151 C   0  0  0  0  0  0  0  0  0  0  0  0
    2.3021   -5.6726   26.0378 C   0  0  0  0  0  0  0  0  0  0  0  0
    7.0880   -4.6163   27.0010 C   0  0  0  0  0  0  0  0  0  0  0  0
    8.3117   -4.3698   27.4436 C   0  0  0  0  0  0  0  0  0  0  0  0
    1.1339   -5.0515   26.3541 C   0  0  0  0  0  0  0  0  0  0  0  0
    4.8080   -8.0362   16.7101 C   0  0  0  0  0  0  0  0  0  0  0  0
   -1.2173   -3.9294   26.9717 O   0  0  0  0  0  0  0  0  0  0  0  0
   -1.0025   -5.0942   27.4586 C   0  0  0  0  0  0  0  0  0  0  0  0
    2.2474   -8.9123   16.6273 C   0  0  0  0  0  0  0  0  0  0  0  0
    4.4957   -9.2636   17.3041 C   0  0  0  0  0  0  0  0  0  0  0  0
   -1.8070   -5.6086   28.1920 O   0  0  0  0  0  0  0  0  0  0  0  0
   10.4296   -5.1799   28.3140 C   0  0  0  0  0  0  0  0  0  0  0  0
    6.6017   -5.9004   26.9187 C   0  0  0  0  0  0  0  0  0  0  0  0
    2.4761   -6.9940   26.4111 N   0  0  0  0  0  0  0  0  0  0  0  0
    9.1353   -5.4053   27.8239 C   0  0  0  0  0  0  0  0  0  0  0  0
    0.9922   -9.3232   16.5995 O   0  0  0  0  0  0  0  0  0  0  0  0
    1.5232   -7.6869   27.1182 C   0  0  0  0  0  0  0  0  0  0  0  0
    8.6878   -6.6715   27.7262 N   0  0  0  0  0  0  0  0  0  0  0  0
    6.9911   -8.2423   27.1808 C   0  0  0  0  0  0  0  0  0  0  0  0
    3.8436   -7.2758   16.0578 C   0  0  0  0  0  0  0  0  0  0  0  0
    3.1882   -9.7190   17.2566 C   0  0  0  0  0  0  0  0  0  0  0  0
    5.3488   -6.1737   26.5092 C   0  0  0  0  0  0  0  0  0  0  0  0
    7.4567   -6.9464   27.2858 C   0  0  0  0  0  0  0  0  0  0  0  0
    0.1921   -5.7592   27.1123 C   0  0  0  0  0  0  0  0  0  0  0  0
    3.5517   -7.7407   25.9711 C   0  0  0  0  0  0  0  0  0  0  0  0
  1  4  4  0
  1 22  4  0
  2 20  4  0
  2 27  4  0
  3 12  4  0
  3 23  4  0
  4 25  4  0
  4 28  1  0
  5  8  4  0
  5 17  4  0
  6  7  4  0
  6 16  4  0
  7 18  4  0
  8 27  4  0
  9 13  4  0
  9 23  4  0
 10 11  1  0
 11 14  2  0
 11 27  1  0
 12 19  1  0
 12 24  4  0
 13 24  4  0
 15 18  1  0
 16 25  4  0
 16 26  4  0
 17 20  4  0
 17 28  1  0
 18 21  4  0
 21 26  4  0
 22 26  4  0
M  END
$$$$

 Created by Python create_sdf_string function

 28 30  0  0  0  0  0  0  0  0999 V2000
    5.7174   -8.4529   26.7190 C   0  0  0  0  0  0  0  0  0  0  0  0
    0.3974   -7.0711   27.5149 C   0  0  0  0  0  0  0  0  0  0  0  0
    2.5338   -7.6891   16.0102 C   0  0  0  0  0  0  0  0  0  0  0  0
    4.8690   -7.4380   26.4151 C   0  0  0  0  0  0  0  0  0  0  0  0
    2.3021   -5.6726   26.0378 C   0  0  0  0  0  0  0  0  0  0  0  0
    7.0880   -4.6163   27.0010 C   0  0  0  0  0  0  0  0  0  0  0  0
    8.3117   -4.3698   27.4436 C   0  0  0  0  0  0  0  0  0  0  0  0
    1.1339   -5.0515   26.3541 C   0  0  0  0  0  0  0  0  0  0  0  0
    4.8080   -8.0362   16.7101 C   0  0  0  0  0  0  0  0  0  0  0  0
   -1.2173   -3.9294   26.9717 O   0  0  0  0  0  0  0  0  0  0  0  0
   -1.0025   -5.0942   27.4586 C   0  0  0  0  0  0  0  0  0  0  0  0
    2.2474   -8.9123   16.6273 C   0  0  0  0  0  0  0  0  0  0  0  0
    4.4957   -9.2636   17.3041 C   0  0  0  0  0  0  0  0  0  0  0  0
   -1.8070   -5.6086   28.1920 O   0  0  0  0  0  0  0  0  0  0  0  0
   10.4296   -5.1799   28.3140 C   0  0  0  0  0  0  0  0  0  0  0  0
    6.6017   -5.9004   26.9187 C   0  0  0  0  0  0  0  0  0  0  0  0
    2.4761   -6.9940   26.4111 N   0  0  0  0  0  0  0  0  0  0  0  0
    9.1353   -5.4053   27.8239 C   0  0  0  0  0  0  0  0  0  0  0  0
    0.9922   -9.3232   16.5995 O   0  0  0  0  0  0  0  0  0  0  0  0
    1.5232   -7.6869   27.1182 C   0  0  0  0  0  0  0  0  0  0  0  0
    8.6878   -6.6715   27.7262 N   0  0  0  0  0  0  0  0  0  0  0  0
    6.9911   -8.2423   27.1808 C   0  0  0  0  0  0  0  0  0  0  0  0
    3.8436   -7.2758   16.0578 C   0  0  0  0  0  0  0  0  0  0  0  0
    3.1882   -9.7190   17.2566 C   0  0  0  0  0  0  0  0  0  0  0  0
    5.3488   -6.1737   26.5092 C   0  0  0  0  0  0  0  0  0  0  0  0
    7.4567   -6.9464   27.2858 C   0  0  0  0  0  0  0  0  0  0  0  0
    0.1921   -5.7592   27.1123 C   0  0  0  0  0  0  0  0  0  0  0  0
    3.5517   -7.7407   25.9711 C   0  0  0  0  0  0  0  0  0  0  0  0
  1  4  4  0
  1 22  4  0
  2 20  4  0
  2 27  4  0
  3 12  4  0
  3 23  4  0
  4 25  4  0
  4 28  1  0
  5  8  4  0
  5 17  4  0
  6  7  4  0
  6 16  4  0
  7 18  4  0
  8 27  4  0
  9 13  4  0
  9 23  4  0
 10 11  1  0
 11 14  2  0
 11 27  1  0
 12 19  1  0
 12 24  4  0
 13 24  4  0
 15 18  1  0
 16 25  4  0
 16 26  4  0
 17 20  4  0
 17 28  1  0
 18 21  4  0
 21 26  4  0
 22 26  4  0
M  END
$$$$

 Created by Python create_sdf_string function

 28 30  0  0  0  0  0  0  0  0999 V2000
    5.7174   -8.4529   26.7190 C   0  0  0  0  0  0  0  0  0  0  0  0
    0.3974   -7.0711   27.5149 C   0  0  0  0  0  0  0  0  0  0  0  0
    2.5338   -7.6891   16.0102 C   0  0  0  0  0  0  0  0  0  0  0  0
    4.8690   -7.4380   26.4151 C   0  0  0  0  0  0  0  0  0  0  0  0
    2.3021   -5.6726   26.0378 C   0  0  0  0  0  0  0  0  0  0  0  0
    7.0880   -4.6163   27.0010 C   0  0  0  0  0  0  0  0  0  0  0  0
    8.3117   -4.3698   27.4436 C   0  0  0  0  0  0  0  0  0  0  0  0
    1.1339   -5.0515   26.3541 C   0  0  0  0  0  0  0  0  0  0  0  0
    4.8080   -8.0362   16.7101 C   0  0  0  0  0  0  0  0  0  0  0  0
   -1.2173   -3.9294   26.9717 O   0  0  0  0  0  0  0  0  0  0  0  0
   -1.0025   -5.0942   27.4586 C   0  0  0  0  0  0  0  0  0  0  0  0
    2.2474   -8.9123   16.6273 C   0  0  0  0  0  0  0  0  0  0  0  0
    4.4957   -9.2636   17.3041 C   0  0  0  0  0  0  0  0  0  0  0  0
   -1.8070   -5.6086   28.1920 O   0  0  0  0  0  0  0  0  0  0  0  0
   10.4296   -5.1799   28.3140 C   0  0  0  0  0  0  0  0  0  0  0  0
    6.6017   -5.9004   26.9187 C   0  0  0  0  0  0  0  0  0  0  0  0
    2.4761   -6.9940   26.4111 N   0  0  0  0  0  0  0  0  0  0  0  0
    9.1353   -5.4053   27.8239 C   0  0  0  0  0  0  0  0  0  0  0  0
    0.9922   -9.3232   16.5995 O   0  0  0  0  0  0  0  0  0  0  0  0
    1.5232   -7.6869   27.1182 C   0  0  0  0  0  0  0  0  0  0  0  0
    8.6878   -6.6715   27.7262 N   0  0  0  0  0  0  0  0  0  0  0  0
    6.9911   -8.2423   27.1808 C   0  0  0  0  0  0  0  0  0  0  0  0
    3.8436   -7.2758   16.0578 C   0  0  0  0  0  0  0  0  0  0  0  0
    3.1882   -9.7190   17.2566 C   0  0  0  0  0  0  0  0  0  0  0  0
    5.3488   -6.1737   26.5092 C   0  0  0  0  0  0  0  0  0  0  0  0
    7.4567   -6.9464   27.2858 C   0  0  0  0  0  0  0  0  0  0  0  0
    0.1921   -5.7592   27.1123 C   0  0  0  0  0  0  0  0  0  0  0  0
    3.5517   -7.7407   25.9711 C   0  0  0  0  0  0  0  0  0  0  0  0
  1  4  4  0
  1 22  4  0
  2 20  4  0
  2 27  4  0
  3 12  4  0
  3 23  4  0
  4 25  4  0
  4 28  1  0
  5  8  4  0
  5 17  4  0
  6  7  4  0
  6 16  4  0
  7 18  4  0
  8 27  4  0
  9 13  4  0
  9 23  4  0
 10 11  1  0
 11 14  2  0
 11 27  1  0
 12 19  1  0
 12 24  4  0
 13 24  4  0
 15 18  1  0
 16 25  4  0
 16 26  4  0
 17 20  4  0
 17 28  1  0
 18 21  4  0
 21 26  4  0
 22 26  4  0
M  END
$$$$

 Created by Python create_sdf_string function

 28 30  0  0  0  0  0  0  0  0999 V2000
    5.7174   -8.4529   26.7190 C   0  0  0  0  0  0  0  0  0  0  0  0
    0.3974   -7.0711   27.5149 C   0  0  0  0  0  0  0  0  0  0  0  0
    2.5338   -7.6891   16.0102 C   0  0  0  0  0  0  0  0  0  0  0  0
    4.8690   -7.4380   26.4151 C   0  0  0  0  0  0  0  0  0  0  0  0
    2.3021   -5.6726   26.0378 C   0  0  0  0  0  0  0  0  0  0  0  0
    7.0880   -4.6163   27.0010 C   0  0  0  0  0  0  0  0  0  0  0  0
    8.3117   -4.3698   27.4436 C   0  0  0  0  0  0  0  0  0  0  0  0
    1.1339   -5.0515   26.3541 C   0  0  0  0  0  0  0  0  0  0  0  0
    4.8080   -8.0362   16.7101 C   0  0  0  0  0  0  0  0  0  0  0  0
   -1.2173   -3.9294   26.9717 O   0  0  0  0  0  0  0  0  0  0  0  0
   -1.0025   -5.0942   27.4586 C   0  0  0  0  0  0  0  0  0  0  0  0
    2.2474   -8.9123   16.6273 C   0  0  0  0  0  0  0  0  0  0  0  0
    4.4957   -9.2636   17.3041 C   0  0  0  0  0  0  0  0  0  0  0  0
   -1.8070   -5.6086   28.1920 O   0  0  0  0  0  0  0  0  0  0  0  0
   10.4296   -5.1799   28.3140 C   0  0  0  0  0  0  0  0  0  0  0  0
    6.6017   -5.9004   26.9187 C   0  0  0  0  0  0  0  0  0  0  0  0
    2.4761   -6.9940   26.4111 N   0  0  0  0  0  0  0  0  0  0  0  0
    9.1353   -5.4053   27.8239 C   0  0  0  0  0  0  0  0  0  0  0  0
    0.9922   -9.3232   16.5995 O   0  0  0  0  0  0  0  0  0  0  0  0
    1.5232   -7.6869   27.1182 C   0  0  0  0  0  0  0  0  0  0  0  0
    8.6878   -6.6715   27.7262 N   0  0  0  0  0  0  0  0  0  0  0  0
    6.9911   -8.2423   27.1808 C   0  0  0  0  0  0  0  0  0  0  0  0
    3.8436   -7.2758   16.0578 C   0  0  0  0  0  0  0  0  0  0  0  0
    3.1882   -9.7190   17.2566 C   0  0  0  0  0  0  0  0  0  0  0  0
    5.3488   -6.1737   26.5092 C   0  0  0  0  0  0  0  0  0  0  0  0
    7.4567   -6.9464   27.2858 C   0  0  0  0  0  0  0  0  0  0  0  0
    0.1921   -5.7592   27.1123 C   0  0  0  0  0  0  0  0  0  0  0  0
    3.5517   -7.7407   25.9711 C   0  0  0  0  0  0  0  0  0  0  0  0
  1  4  4  0
  1 22  4  0
  2 20  4  0
  2 27  4  0
  3 12  4  0
  3 23  4  0
  4 25  4  0
  4 28  1  0
  5  8  4  0
  5 17  4  0
  6  7  4  0
  6 16  4  0
  7 18  4  0
  8 27  4  0
  9 13  4  0
  9 23  4  0
 10 11  1  0
 11 14  2  0
 11 27  1  0
 12 19  1  0
 12 24  4  0
 13 24  4  0
 15 18  1  0
 16 25  4  0
 16 26  4  0
 17 20  4  0
 17 28  1  0
 18 21  4  0
 21 26  4  0
 22 26  4  0
M  END
$$$$

 Created by Python create_sdf_string function

 28 30  0  0  0  0  0  0  0  0999 V2000
    5.7174   -8.4529   26.7190 C   0  0  0  0  0  0  0  0  0  0  0  0
    0.3974   -7.0711   27.5149 C   0  0  0  0  0  0  0  0  0  0  0  0
    2.5338   -7.6891   16.0102 C   0  0  0  0  0  0  0  0  0  0  0  0
    4.8690   -7.4380   26.4151 C   0  0  0  0  0  0  0  0  0  0  0  0
    2.3021   -5.6726   26.0378 C   0  0  0  0  0  0  0  0  0  0  0  0
    7.0880   -4.6163   27.0010 C   0  0  0  0  0  0  0  0  0  0  0  0
    8.3117   -4.3698   27.4436 C   0  0  0  0  0  0  0  0  0  0  0  0
    1.1339   -5.0515   26.3541 C   0  0  0  0  0  0  0  0  0  0  0  0
    4.8080   -8.0362   16.7101 C   0  0  0  0  0  0  0  0  0  0  0  0
   -1.2173   -3.9294   26.9717 O   0  0  0  0  0  0  0  0  0  0  0  0
   -1.0025   -5.0942   27.4586 C   0  0  0  0  0  0  0  0  0  0  0  0
    2.2474   -8.9123   16.6273 C   0  0  0  0  0  0  0  0  0  0  0  0
    4.4957   -9.2636   17.3041 C   0  0  0  0  0  0  0  0  0  0  0  0
   -1.8070   -5.6086   28.1920 O   0  0  0  0  0  0  0  0  0  0  0  0
   10.4296   -5.1799   28.3140 C   0  0  0  0  0  0  0  0  0  0  0  0
    6.6017   -5.9004   26.9187 C   0  0  0  0  0  0  0  0  0  0  0  0
    2.4761   -6.9940   26.4111 N   0  0  0  0  0  0  0  0  0  0  0  0
    9.1353   -5.4053   27.8239 C   0  0  0  0  0  0  0  0  0  0  0  0
    0.9922   -9.3232   16.5995 O   0  0  0  0  0  0  0  0  0  0  0  0
    1.5232   -7.6869   27.1182 C   0  0  0  0  0  0  0  0  0  0  0  0
    8.6878   -6.6715   27.7262 N   0  0  0  0  0  0  0  0  0  0  0  0
    6.9911   -8.2423   27.1808 C   0  0  0  0  0  0  0  0  0  0  0  0
    3.8436   -7.2758   16.0578 C   0  0  0  0  0  0  0  0  0  0  0  0
    3.1882   -9.7190   17.2566 C   0  0  0  0  0  0  0  0  0  0  0  0
    5.3488   -6.1737   26.5092 C   0  0  0  0  0  0  0  0  0  0  0  0
    7.4567   -6.9464   27.2858 C   0  0  0  0  0  0  0  0  0  0  0  0
    0.1921   -5.7592   27.1123 C   0  0  0  0  0  0  0  0  0  0  0  0
    3.5517   -7.7407   25.9711 C   0  0  0  0  0  0  0  0  0  0  0  0
  1  4  4  0
  1 22  4  0
  2 20  4  0
  2 27  4  0
  3 12  4  0
  3 23  4  0
  4 25  4  0
  4 28  1  0
  5  8  4  0
  5 17  4  0
  6  7  4  0
  6 16  4  0
  7 18  4  0
  8 27  4  0
  9 13  4  0
  9 23  4  0
 10 11  1  0
 11 14  2  0
 11 27  1  0
 12 19  1  0
 12 24  4  0
 13 24  4  0
 15 18  1  0
 16 25  4  0
 16 26  4  0
 17 20  4  0
 17 28  1  0
 18 21  4  0
 21 26  4  0
 22 26  4  0
M  END
$$$$

 Created by Python create_sdf_string function

 28 30  0  0  0  0  0  0  0  0999 V2000
    5.7174   -8.4529   26.7190 C   0  0  0  0  0  0  0  0  0  0  0  0
    0.3974   -7.0711   27.5149 C   0  0  0  0  0  0  0  0  0  0  0  0
    2.5338   -7.6891   16.0102 C   0  0  0  0  0  0  0  0  0  0  0  0
    4.8690   -7.4380   26.4151 C   0  0  0  0  0  0  0  0  0  0  0  0
    2.3021   -5.6726   26.0378 C   0  0  0  0  0  0  0  0  0  0  0  0
    7.0880   -4.6163   27.0010 C   0  0  0  0  0  0  0  0  0  0  0  0
    8.3117   -4.3698   27.4436 C   0  0  0  0  0  0  0  0  0  0  0  0
    1.1339   -5.0515   26.3541 C   0  0  0  0  0  0  0  0  0  0  0  0
    4.8080   -8.0362   16.7101 C   0  0  0  0  0  0  0  0  0  0  0  0
   -1.2173   -3.9294   26.9717 O   0  0  0  0  0  0  0  0  0  0  0  0
   -1.0025   -5.0942   27.4586 C   0  0  0  0  0  0  0  0  0  0  0  0
    2.2474   -8.9123   16.6273 C   0  0  0  0  0  0  0  0  0  0  0  0
    4.4957   -9.2636   17.3041 C   0  0  0  0  0  0  0  0  0  0  0  0
   -1.8070   -5.6086   28.1920 O   0  0  0  0  0  0  0  0  0  0  0  0
   10.4296   -5.1799   28.3140 C   0  0  0  0  0  0  0  0  0  0  0  0
    6.6017   -5.9004   26.9187 C   0  0  0  0  0  0  0  0  0  0  0  0
    2.4761   -6.9940   26.4111 N   0  0  0  0  0  0  0  0  0  0  0  0
    9.1353   -5.4053   27.8239 C   0  0  0  0  0  0  0  0  0  0  0  0
    0.9922   -9.3232   16.5995 O   0  0  0  0  0  0  0  0  0  0  0  0
    1.5232   -7.6869   27.1182 C   0  0  0  0  0  0  0  0  0  0  0  0
    8.6878   -6.6715   27.7262 N   0  0  0  0  0  0  0  0  0  0  0  0
    6.9911   -8.2423   27.1808 C   0  0  0  0  0  0  0  0  0  0  0  0
    3.8436   -7.2758   16.0578 C   0  0  0  0  0  0  0  0  0  0  0  0
    3.1882   -9.7190   17.2566 C   0  0  0  0  0  0  0  0  0  0  0  0
    5.3488   -6.1737   26.5092 C   0  0  0  0  0  0  0  0  0  0  0  0
    7.4567   -6.9464   27.2858 C   0  0  0  0  0  0  0  0  0  0  0  0
    0.1921   -5.7592   27.1123 C   0  0  0  0  0  0  0  0  0  0  0  0
    3.5517   -7.7407   25.9711 C   0  0  0  0  0  0  0  0  0  0  0  0
  1  4  4  0
  1 22  4  0
  2 20  4  0
  2 27  4  0
  3 12  4  0
  3 23  4  0
  4 25  4  0
  4 28  1  0
  5  8  4  0
  5 17  4  0
  6  7  4  0
  6 16  4  0
  7 18  4  0
  8 27  4  0
  9 13  4  0
  9 23  4  0
 10 11  1  0
 11 14  2  0
 11 27  1  0
 12 19  1  0
 12 24  4  0
 13 24  4  0
 15 18  1  0
 16 25  4  0
 16 26  4  0
 17 20  4  0
 17 28  1  0
 18 21  4  0
 21 26  4  0
 22 26  4  0
M  END
$$$$

 Created by Python create_sdf_string function

 28 30  0  0  0  0  0  0  0  0999 V2000
    5.7174   -8.4529   26.7190 C   0  0  0  0  0  0  0  0  0  0  0  0
    0.3974   -7.0711   27.5149 C   0  0  0  0  0  0  0  0  0  0  0  0
    2.5338   -7.6891   16.0102 C   0  0  0  0  0  0  0  0  0  0  0  0
    4.8690   -7.4380   26.4151 C   0  0  0  0  0  0  0  0  0  0  0  0
    2.3021   -5.6726   26.0378 C   0  0  0  0  0  0  0  0  0  0  0  0
    7.0880   -4.6163   27.0010 C   0  0  0  0  0  0  0  0  0  0  0  0
    8.3117   -4.3698   27.4436 C   0  0  0  0  0  0  0  0  0  0  0  0
    1.1339   -5.0515   26.3541 C   0  0  0  0  0  0  0  0  0  0  0  0
    4.8080   -8.0362   16.7101 C   0  0  0  0  0  0  0  0  0  0  0  0
   -1.2173   -3.9294   26.9717 O   0  0  0  0  0  0  0  0  0  0  0  0
   -1.0025   -5.0942   27.4586 C   0  0  0  0  0  0  0  0  0  0  0  0
    2.2474   -8.9123   16.6273 C   0  0  0  0  0  0  0  0  0  0  0  0
    4.4957   -9.2636   17.3041 C   0  0  0  0  0  0  0  0  0  0  0  0
   -1.8070   -5.6086   28.1920 O   0  0  0  0  0  0  0  0  0  0  0  0
   10.4296   -5.1799   28.3140 C   0  0  0  0  0  0  0  0  0  0  0  0
    6.6017   -5.9004   26.9187 C   0  0  0  0  0  0  0  0  0  0  0  0
    2.4761   -6.9940   26.4111 N   0  0  0  0  0  0  0  0  0  0  0  0
    9.1353   -5.4053   27.8239 C   0  0  0  0  0  0  0  0  0  0  0  0
    0.9922   -9.3232   16.5995 O   0  0  0  0  0  0  0  0  0  0  0  0
    1.5232   -7.6869   27.1182 C   0  0  0  0  0  0  0  0  0  0  0  0
    8.6878   -6.6715   27.7262 N   0  0  0  0  0  0  0  0  0  0  0  0
    6.9911   -8.2423   27.1808 C   0  0  0  0  0  0  0  0  0  0  0  0
    3.8436   -7.2758   16.0578 C   0  0  0  0  0  0  0  0  0  0  0  0
    3.1882   -9.7190   17.2566 C   0  0  0  0  0  0  0  0  0  0  0  0
    5.3488   -6.1737   26.5092 C   0  0  0  0  0  0  0  0  0  0  0  0
    7.4567   -6.9464   27.2858 C   0  0  0  0  0  0  0  0  0  0  0  0
    0.1921   -5.7592   27.1123 C   0  0  0  0  0  0  0  0  0  0  0  0
    3.5517   -7.7407   25.9711 C   0  0  0  0  0  0  0  0  0  0  0  0
  1  4  4  0
  1 22  4  0
  2 20  4  0
  2 27  4  0
  3 12  4  0
  3 23  4  0
  4 25  4  0
  4 28  1  0
  5  8  4  0
  5 17  4  0
  6  7  4  0
  6 16  4  0
  7 18  4  0
  8 27  4  0
  9 13  4  0
  9 23  4  0
 10 11  1  0
 11 14  2  0
 11 27  1  0
 12 19  1  0
 12 24  4  0
 13 24  4  0
 15 18  1  0
 16 25  4  0
 16 26  4  0
 17 20  4  0
 17 28  1  0
 18 21  4  0
 21 26  4  0
 22 26  4  0
M  END
$$$$

 Created by Python create_sdf_string function

 28 30  0  0  0  0  0  0  0  0999 V2000
    5.7174   -8.4529   26.7190 C   0  0  0  0  0  0  0  0  0  0  0  0
    0.3974   -7.0711   27.5149 C   0  0  0  0  0  0  0  0  0  0  0  0
    2.5338   -7.6891   16.0102 C   0  0  0  0  0  0  0  0  0  0  0  0
    4.8690   -7.4380   26.4151 C   0  0  0  0  0  0  0  0  0  0  0  0
    2.3021   -5.6726   26.0378 C   0  0  0  0  0  0  0  0  0  0  0  0
    7.0880   -4.6163   27.0010 C   0  0  0  0  0  0  0  0  0  0  0  0
    8.3117   -4.3698   27.4436 C   0  0  0  0  0  0  0  0  0  0  0  0
    1.1339   -5.0515   26.3541 C   0  0  0  0  0  0  0  0  0  0  0  0
    4.8080   -8.0362   16.7101 C   0  0  0  0  0  0  0  0  0  0  0  0
   -1.2173   -3.9294   26.9717 O   0  0  0  0  0  0  0  0  0  0  0  0
   -1.0025   -5.0942   27.4586 C   0  0  0  0  0  0  0  0  0  0  0  0
    2.2474   -8.9123   16.6273 C   0  0  0  0  0  0  0  0  0  0  0  0
    4.4957   -9.2636   17.3041 C   0  0  0  0  0  0  0  0  0  0  0  0
   -1.8070   -5.6086   28.1920 O   0  0  0  0  0  0  0  0  0  0  0  0
   10.4296   -5.1799   28.3140 C   0  0  0  0  0  0  0  0  0  0  0  0
    6.6017   -5.9004   26.9187 C   0  0  0  0  0  0  0  0  0  0  0  0
    2.4761   -6.9940   26.4111 N   0  0  0  0  0  0  0  0  0  0  0  0
    9.1353   -5.4053   27.8239 C   0  0  0  0  0  0  0  0  0  0  0  0
    0.9922   -9.3232   16.5995 O   0  0  0  0  0  0  0  0  0  0  0  0
    1.5232   -7.6869   27.1182 C   0  0  0  0  0  0  0  0  0  0  0  0
    8.6878   -6.6715   27.7262 N   0  0  0  0  0  0  0  0  0  0  0  0
    6.9911   -8.2423   27.1808 C   0  0  0  0  0  0  0  0  0  0  0  0
    3.8436   -7.2758   16.0578 C   0  0  0  0  0  0  0  0  0  0  0  0
    3.1882   -9.7190   17.2566 C   0  0  0  0  0  0  0  0  0  0  0  0
    5.3488   -6.1737   26.5092 C   0  0  0  0  0  0  0  0  0  0  0  0
    7.4567   -6.9464   27.2858 C   0  0  0  0  0  0  0  0  0  0  0  0
    0.1921   -5.7592   27.1123 C   0  0  0  0  0  0  0  0  0  0  0  0
    3.5517   -7.7407   25.9711 C   0  0  0  0  0  0  0  0  0  0  0  0
  1  4  4  0
  1 22  4  0
  2 20  4  0
  2 27  4  0
  3 12  4  0
  3 23  4  0
  4 25  4  0
  4 28  1  0
  5  8  4  0
  5 17  4  0
  6  7  4  0
  6 16  4  0
  7 18  4  0
  8 27  4  0
  9 13  4  0
  9 23  4  0
 10 11  1  0
 11 14  2  0
 11 27  1  0
 12 19  1  0
 12 24  4  0
 13 24  4  0
 15 18  1  0
 16 25  4  0
 16 26  4  0
 17 20  4  0
 17 28  1  0
 18 21  4  0
 21 26  4  0
 22 26  4  0
M  END
$$$$

 Created by Python create_sdf_string function

 28 30  0  0  0  0  0  0  0  0999 V2000
    5.7174   -8.4529   26.7190 C   0  0  0  0  0  0  0  0  0  0  0  0
    0.3974   -7.0711   27.5149 C   0  0  0  0  0  0  0  0  0  0  0  0
    2.5338   -7.6891   16.0102 C   0  0  0  0  0  0  0  0  0  0  0  0
    4.8690   -7.4380   26.4151 C   0  0  0  0  0  0  0  0  0  0  0  0
    2.3021   -5.6726   26.0378 C   0  0  0  0  0  0  0  0  0  0  0  0
    7.0880   -4.6163   27.0010 C   0  0  0  0  0  0  0  0  0  0  0  0
    8.3117   -4.3698   27.4436 C   0  0  0  0  0  0  0  0  0  0  0  0
    1.1339   -5.0515   26.3541 C   0  0  0  0  0  0  0  0  0  0  0  0
    4.8080   -8.0362   16.7101 C   0  0  0  0  0  0  0  0  0  0  0  0
   -1.2173   -3.9294   26.9717 O   0  0  0  0  0  0  0  0  0  0  0  0
   -1.0025   -5.0942   27.4586 C   0  0  0  0  0  0  0  0  0  0  0  0
    2.2474   -8.9123   16.6273 C   0  0  0  0  0  0  0  0  0  0  0  0
    4.4957   -9.2636   17.3041 C   0  0  0  0  0  0  0  0  0  0  0  0
   -1.8070   -5.6086   28.1920 O   0  0  0  0  0  0  0  0  0  0  0  0
   10.4296   -5.1799   28.3140 C   0  0  0  0  0  0  0  0  0  0  0  0
    6.6017   -5.9004   26.9187 C   0  0  0  0  0  0  0  0  0  0  0  0
    2.4761   -6.9940   26.4111 N   0  0  0  0  0  0  0  0  0  0  0  0
    9.1353   -5.4053   27.8239 C   0  0  0  0  0  0  0  0  0  0  0  0
    0.9922   -9.3232   16.5995 O   0  0  0  0  0  0  0  0  0  0  0  0
    1.5232   -7.6869   27.1182 C   0  0  0  0  0  0  0  0  0  0  0  0
    8.6878   -6.6715   27.7262 N   0  0  0  0  0  0  0  0  0  0  0  0
    6.9911   -8.2423   27.1808 C   0  0  0  0  0  0  0  0  0  0  0  0
    3.8436   -7.2758   16.0578 C   0  0  0  0  0  0  0  0  0  0  0  0
    3.1882   -9.7190   17.2566 C   0  0  0  0  0  0  0  0  0  0  0  0
    5.3488   -6.1737   26.5092 C   0  0  0  0  0  0  0  0  0  0  0  0
    7.4567   -6.9464   27.2858 C   0  0  0  0  0  0  0  0  0  0  0  0
    0.1921   -5.7592   27.1123 C   0  0  0  0  0  0  0  0  0  0  0  0
    3.5517   -7.7407   25.9711 C   0  0  0  0  0  0  0  0  0  0  0  0
  1  4  4  0
  1 22  4  0
  2 20  4  0
  2 27  4  0
  3 12  4  0
  3 23  4  0
  4 25  4  0
  4 28  1  0
  5  8  4  0
  5 17  4  0
  6  7  4  0
  6 16  4  0
  7 18  4  0
  8 27  4  0
  9 13  4  0
  9 23  4  0
 10 11  1  0
 11 14  2  0
 11 27  1  0
 12 19  1  0
 12 24  4  0
 13 24  4  0
 15 18  1  0
 16 25  4  0
 16 26  4  0
 17 20  4  0
 17 28  1  0
 18 21  4  0
 21 26  4  0
 22 26  4  0
M  END
$$$$

 Created by Python create_sdf_string function

 28 30  0  0  0  0  0  0  0  0999 V2000
    5.7174   -8.4529   26.7190 C   0  0  0  0  0  0  0  0  0  0  0  0
    0.3974   -7.0711   27.5149 C   0  0  0  0  0  0  0  0  0  0  0  0
    2.5338   -7.6891   16.0102 C   0  0  0  0  0  0  0  0  0  0  0  0
    4.8690   -7.4380   26.4151 C   0  0  0  0  0  0  0  0  0  0  0  0
    2.3021   -5.6726   26.0378 C   0  0  0  0  0  0  0  0  0  0  0  0
    7.0880   -4.6163   27.0010 C   0  0  0  0  0  0  0  0  0  0  0  0
    8.3117   -4.3698   27.4436 C   0  0  0  0  0  0  0  0  0  0  0  0
    1.1339   -5.0515   26.3541 C   0  0  0  0  0  0  0  0  0  0  0  0
    4.8080   -8.0362   16.7101 C   0  0  0  0  0  0  0  0  0  0  0  0
   -1.2173   -3.9294   26.9717 O   0  0  0  0  0  0  0  0  0  0  0  0
   -1.0025   -5.0942   27.4586 C   0  0  0  0  0  0  0  0  0  0  0  0
    2.2474   -8.9123   16.6273 C   0  0  0  0  0  0  0  0  0  0  0  0
    4.4957   -9.2636   17.3041 C   0  0  0  0  0  0  0  0  0  0  0  0
   -1.8070   -5.6086   28.1920 O   0  0  0  0  0  0  0  0  0  0  0  0
   10.4296   -5.1799   28.3140 C   0  0  0  0  0  0  0  0  0  0  0  0
    6.6017   -5.9004   26.9187 C   0  0  0  0  0  0  0  0  0  0  0  0
    2.4761   -6.9940   26.4111 N   0  0  0  0  0  0  0  0  0  0  0  0
    9.1353   -5.4053   27.8239 C   0  0  0  0  0  0  0  0  0  0  0  0
    0.9922   -9.3232   16.5995 O   0  0  0  0  0  0  0  0  0  0  0  0
    1.5232   -7.6869   27.1182 C   0  0  0  0  0  0  0  0  0  0  0  0
    8.6878   -6.6715   27.7262 N   0  0  0  0  0  0  0  0  0  0  0  0
    6.9911   -8.2423   27.1808 C   0  0  0  0  0  0  0  0  0  0  0  0
    3.8436   -7.2758   16.0578 C   0  0  0  0  0  0  0  0  0  0  0  0
    3.1882   -9.7190   17.2566 C   0  0  0  0  0  0  0  0  0  0  0  0
    5.3488   -6.1737   26.5092 C   0  0  0  0  0  0  0  0  0  0  0  0
    7.4567   -6.9464   27.2858 C   0  0  0  0  0  0  0  0  0  0  0  0
    0.1921   -5.7592   27.1123 C   0  0  0  0  0  0  0  0  0  0  0  0
    3.5517   -7.7407   25.9711 C   0  0  0  0  0  0  0  0  0  0  0  0
  1  4  4  0
  1 22  4  0
  2 20  4  0
  2 27  4  0
  3 12  4  0
  3 23  4  0
  4 25  4  0
  4 28  1  0
  5  8  4  0
  5 17  4  0
  6  7  4  0
  6 16  4  0
  7 18  4  0
  8 27  4  0
  9 13  4  0
  9 23  4  0
 10 11  1  0
 11 14  2  0
 11 27  1  0
 12 19  1  0
 12 24  4  0
 13 24  4  0
 15 18  1  0
 16 25  4  0
 16 26  4  0
 17 20  4  0
 17 28  1  0
 18 21  4  0
 21 26  4  0
 22 26  4  0
M  END
$$$$

 Created by Python create_sdf_string function

 28 30  0  0  0  0  0  0  0  0999 V2000
    5.7174   -8.4529   26.7190 C   0  0  0  0  0  0  0  0  0  0  0  0
    0.3974   -7.0711   27.5149 C   0  0  0  0  0  0  0  0  0  0  0  0
    2.5338   -7.6891   16.0102 C   0  0  0  0  0  0  0  0  0  0  0  0
    4.8690   -7.4380   26.4151 C   0  0  0  0  0  0  0  0  0  0  0  0
    2.3021   -5.6726   26.0378 C   0  0  0  0  0  0  0  0  0  0  0  0
    7.0880   -4.6163   27.0010 C   0  0  0  0  0  0  0  0  0  0  0  0
    8.3117   -4.3698   27.4436 C   0  0  0  0  0  0  0  0  0  0  0  0
    1.1339   -5.0515   26.3541 C   0  0  0  0  0  0  0  0  0  0  0  0
    4.8080   -8.0362   16.7101 C   0  0  0  0  0  0  0  0  0  0  0  0
   -1.2173   -3.9294   26.9717 O   0  0  0  0  0  0  0  0  0  0  0  0
   -1.0025   -5.0942   27.4586 C   0  0  0  0  0  0  0  0  0  0  0  0
    2.2474   -8.9123   16.6273 C   0  0  0  0  0  0  0  0  0  0  0  0
    4.4957   -9.2636   17.3041 C   0  0  0  0  0  0  0  0  0  0  0  0
   -1.8070   -5.6086   28.1920 O   0  0  0  0  0  0  0  0  0  0  0  0
   10.4296   -5.1799   28.3140 C   0  0  0  0  0  0  0  0  0  0  0  0
    6.6017   -5.9004   26.9187 C   0  0  0  0  0  0  0  0  0  0  0  0
    2.4761   -6.9940   26.4111 N   0  0  0  0  0  0  0  0  0  0  0  0
    9.1353   -5.4053   27.8239 C   0  0  0  0  0  0  0  0  0  0  0  0
    0.9922   -9.3232   16.5995 O   0  0  0  0  0  0  0  0  0  0  0  0
    1.5232   -7.6869   27.1182 C   0  0  0  0  0  0  0  0  0  0  0  0
    8.6878   -6.6715   27.7262 N   0  0  0  0  0  0  0  0  0  0  0  0
    6.9911   -8.2423   27.1808 C   0  0  0  0  0  0  0  0  0  0  0  0
    3.8436   -7.2758   16.0578 C   0  0  0  0  0  0  0  0  0  0  0  0
    3.1882   -9.7190   17.2566 C   0  0  0  0  0  0  0  0  0  0  0  0
    5.3488   -6.1737   26.5092 C   0  0  0  0  0  0  0  0  0  0  0  0
    7.4567   -6.9464   27.2858 C   0  0  0  0  0  0  0  0  0  0  0  0
    0.1921   -5.7592   27.1123 C   0  0  0  0  0  0  0  0  0  0  0  0
    3.5517   -7.7407   25.9711 C   0  0  0  0  0  0  0  0  0  0  0  0
  1  4  4  0
  1 22  4  0
  2 20  4  0
  2 27  4  0
  3 12  4  0
  3 23  4  0
  4 25  4  0
  4 28  1  0
  5  8  4  0
  5 17  4  0
  6  7  4  0
  6 16  4  0
  7 18  4  0
  8 27  4  0
  9 13  4  0
  9 23  4  0
 10 11  1  0
 11 14  2  0
 11 27  1  0
 12 19  1  0
 12 24  4  0
 13 24  4  0
 15 18  1  0
 16 25  4  0
 16 26  4  0
 17 20  4  0
 17 28  1  0
 18 21  4  0
 21 26  4  0
 22 26  4  0
M  END
$$$$

 Created by Python create_sdf_string function

 28 30  0  0  0  0  0  0  0  0999 V2000
    5.7174   -8.4529   26.7190 C   0  0  0  0  0  0  0  0  0  0  0  0
    0.3974   -7.0711   27.5149 C   0  0  0  0  0  0  0  0  0  0  0  0
    2.5338   -7.6891   16.0102 C   0  0  0  0  0  0  0  0  0  0  0  0
    4.8690   -7.4380   26.4151 C   0  0  0  0  0  0  0  0  0  0  0  0
    2.3021   -5.6726   26.0378 C   0  0  0  0  0  0  0  0  0  0  0  0
    7.0880   -4.6163   27.0010 C   0  0  0  0  0  0  0  0  0  0  0  0
    8.3117   -4.3698   27.4436 C   0  0  0  0  0  0  0  0  0  0  0  0
    1.1339   -5.0515   26.3541 C   0  0  0  0  0  0  0  0  0  0  0  0
    4.8080   -8.0362   16.7101 C   0  0  0  0  0  0  0  0  0  0  0  0
   -1.2173   -3.9294   26.9717 O   0  0  0  0  0  0  0  0  0  0  0  0
   -1.0025   -5.0942   27.4586 C   0  0  0  0  0  0  0  0  0  0  0  0
    2.2474   -8.9123   16.6273 C   0  0  0  0  0  0  0  0  0  0  0  0
    4.4957   -9.2636   17.3041 C   0  0  0  0  0  0  0  0  0  0  0  0
   -1.8070   -5.6086   28.1920 O   0  0  0  0  0  0  0  0  0  0  0  0
   10.4296   -5.1799   28.3140 C   0  0  0  0  0  0  0  0  0  0  0  0
    6.6017   -5.9004   26.9187 C   0  0  0  0  0  0  0  0  0  0  0  0
    2.4761   -6.9940   26.4111 N   0  0  0  0  0  0  0  0  0  0  0  0
    9.1353   -5.4053   27.8239 C   0  0  0  0  0  0  0  0  0  0  0  0
    0.9922   -9.3232   16.5995 O   0  0  0  0  0  0  0  0  0  0  0  0
    1.5232   -7.6869   27.1182 C   0  0  0  0  0  0  0  0  0  0  0  0
    8.6878   -6.6715   27.7262 N   0  0  0  0  0  0  0  0  0  0  0  0
    6.9911   -8.2423   27.1808 C   0  0  0  0  0  0  0  0  0  0  0  0
    3.8436   -7.2758   16.0578 C   0  0  0  0  0  0  0  0  0  0  0  0
    3.1882   -9.7190   17.2566 C   0  0  0  0  0  0  0  0  0  0  0  0
    5.3488   -6.1737   26.5092 C   0  0  0  0  0  0  0  0  0  0  0  0
    7.4567   -6.9464   27.2858 C   0  0  0  0  0  0  0  0  0  0  0  0
    0.1921   -5.7592   27.1123 C   0  0  0  0  0  0  0  0  0  0  0  0
    3.5517   -7.7407   25.9711 C   0  0  0  0  0  0  0  0  0  0  0  0
  1  4  4  0
  1 22  4  0
  2 20  4  0
  2 27  4  0
  3 12  4  0
  3 23  4  0
  4 25  4  0
  4 28  1  0
  5  8  4  0
  5 17  4  0
  6  7  4  0
  6 16  4  0
  7 18  4  0
  8 27  4  0
  9 13  4  0
  9 23  4  0
 10 11  1  0
 11 14  2  0
 11 27  1  0
 12 19  1  0
 12 24  4  0
 13 24  4  0
 15 18  1  0
 16 25  4  0
 16 26  4  0
 17 20  4  0
 17 28  1  0
 18 21  4  0
 21 26  4  0
 22 26  4  0
M  END
$$$$

 Created by Python create_sdf_string function

 28 30  0  0  0  0  0  0  0  0999 V2000
    5.7174   -8.4529   26.7190 C   0  0  0  0  0  0  0  0  0  0  0  0
    0.3974   -7.0711   27.5149 C   0  0  0  0  0  0  0  0  0  0  0  0
    2.5338   -7.6891   16.0102 C   0  0  0  0  0  0  0  0  0  0  0  0
    4.8690   -7.4380   26.4151 C   0  0  0  0  0  0  0  0  0  0  0  0
    2.3021   -5.6726   26.0378 C   0  0  0  0  0  0  0  0  0  0  0  0
    7.0880   -4.6163   27.0010 C   0  0  0  0  0  0  0  0  0  0  0  0
    8.3117   -4.3698   27.4436 C   0  0  0  0  0  0  0  0  0  0  0  0
    1.1339   -5.0515   26.3541 C   0  0  0  0  0  0  0  0  0  0  0  0
    4.8080   -8.0362   16.7101 C   0  0  0  0  0  0  0  0  0  0  0  0
   -1.2173   -3.9294   26.9717 O   0  0  0  0  0  0  0  0  0  0  0  0
   -1.0025   -5.0942   27.4586 C   0  0  0  0  0  0  0  0  0  0  0  0
    2.2474   -8.9123   16.6273 C   0  0  0  0  0  0  0  0  0  0  0  0
    4.4957   -9.2636   17.3041 C   0  0  0  0  0  0  0  0  0  0  0  0
   -1.8070   -5.6086   28.1920 O   0  0  0  0  0  0  0  0  0  0  0  0
   10.4296   -5.1799   28.3140 C   0  0  0  0  0  0  0  0  0  0  0  0
    6.6017   -5.9004   26.9187 C   0  0  0  0  0  0  0  0  0  0  0  0
    2.4761   -6.9940   26.4111 N   0  0  0  0  0  0  0  0  0  0  0  0
    9.1353   -5.4053   27.8239 C   0  0  0  0  0  0  0  0  0  0  0  0
    0.9922   -9.3232   16.5995 O   0  0  0  0  0  0  0  0  0  0  0  0
    1.5232   -7.6869   27.1182 C   0  0  0  0  0  0  0  0  0  0  0  0
    8.6878   -6.6715   27.7262 N   0  0  0  0  0  0  0  0  0  0  0  0
    6.9911   -8.2423   27.1808 C   0  0  0  0  0  0  0  0  0  0  0  0
    3.8436   -7.2758   16.0578 C   0  0  0  0  0  0  0  0  0  0  0  0
    3.1882   -9.7190   17.2566 C   0  0  0  0  0  0  0  0  0  0  0  0
    5.3488   -6.1737   26.5092 C   0  0  0  0  0  0  0  0  0  0  0  0
    7.4567   -6.9464   27.2858 C   0  0  0  0  0  0  0  0  0  0  0  0
    0.1921   -5.7592   27.1123 C   0  0  0  0  0  0  0  0  0  0  0  0
    3.5517   -7.7407   25.9711 C   0  0  0  0  0  0  0  0  0  0  0  0
  1  4  4  0
  1 22  4  0
  2 20  4  0
  2 27  4  0
  3 12  4  0
  3 23  4  0
  4 25  4  0
  4 28  1  0
  5  8  4  0
  5 17  4  0
  6  7  4  0
  6 16  4  0
  7 18  4  0
  8 27  4  0
  9 13  4  0
  9 23  4  0
 10 11  1  0
 11 14  2  0
 11 27  1  0
 12 19  1  0
 12 24  4  0
 13 24  4  0
 15 18  1  0
 16 25  4  0
 16 26  4  0
 17 20  4  0
 17 28  1  0
 18 21  4  0
 21 26  4  0
 22 26  4  0
M  END
$$$$

 Created by Python create_sdf_string function

 28 30  0  0  0  0  0  0  0  0999 V2000
    5.7174   -8.4529   26.7190 C   0  0  0  0  0  0  0  0  0  0  0  0
    0.3974   -7.0711   27.5149 C   0  0  0  0  0  0  0  0  0  0  0  0
    2.5338   -7.6891   16.0102 C   0  0  0  0  0  0  0  0  0  0  0  0
    4.8690   -7.4380   26.4151 C   0  0  0  0  0  0  0  0  0  0  0  0
    2.3021   -5.6726   26.0378 C   0  0  0  0  0  0  0  0  0  0  0  0
    7.0880   -4.6163   27.0010 C   0  0  0  0  0  0  0  0  0  0  0  0
    8.3117   -4.3698   27.4436 C   0  0  0  0  0  0  0  0  0  0  0  0
    1.1339   -5.0515   26.3541 C   0  0  0  0  0  0  0  0  0  0  0  0
    4.8080   -8.0362   16.7101 C   0  0  0  0  0  0  0  0  0  0  0  0
   -1.2173   -3.9294   26.9717 O   0  0  0  0  0  0  0  0  0  0  0  0
   -1.0025   -5.0942   27.4586 C   0  0  0  0  0  0  0  0  0  0  0  0
    2.2474   -8.9123   16.6273 C   0  0  0  0  0  0  0  0  0  0  0  0
    4.4957   -9.2636   17.3041 C   0  0  0  0  0  0  0  0  0  0  0  0
   -1.8070   -5.6086   28.1920 O   0  0  0  0  0  0  0  0  0  0  0  0
   10.4296   -5.1799   28.3140 C   0  0  0  0  0  0  0  0  0  0  0  0
    6.6017   -5.9004   26.9187 C   0  0  0  0  0  0  0  0  0  0  0  0
    2.4761   -6.9940   26.4111 N   0  0  0  0  0  0  0  0  0  0  0  0
    9.1353   -5.4053   27.8239 C   0  0  0  0  0  0  0  0  0  0  0  0
    0.9922   -9.3232   16.5995 O   0  0  0  0  0  0  0  0  0  0  0  0
    1.5232   -7.6869   27.1182 C   0  0  0  0  0  0  0  0  0  0  0  0
    8.6878   -6.6715   27.7262 N   0  0  0  0  0  0  0  0  0  0  0  0
    6.9911   -8.2423   27.1808 C   0  0  0  0  0  0  0  0  0  0  0  0
    3.8436   -7.2758   16.0578 C   0  0  0  0  0  0  0  0  0  0  0  0
    3.1882   -9.7190   17.2566 C   0  0  0  0  0  0  0  0  0  0  0  0
    5.3488   -6.1737   26.5092 C   0  0  0  0  0  0  0  0  0  0  0  0
    7.4567   -6.9464   27.2858 C   0  0  0  0  0  0  0  0  0  0  0  0
    0.1921   -5.7592   27.1123 C   0  0  0  0  0  0  0  0  0  0  0  0
    3.5517   -7.7407   25.9711 C   0  0  0  0  0  0  0  0  0  0  0  0
  1  4  4  0
  1 22  4  0
  2 20  4  0
  2 27  4  0
  3 12  4  0
  3 23  4  0
  4 25  4  0
  4 28  1  0
  5  8  4  0
  5 17  4  0
  6  7  4  0
  6 16  4  0
  7 18  4  0
  8 27  4  0
  9 13  4  0
  9 23  4  0
 10 11  1  0
 11 14  2  0
 11 27  1  0
 12 19  1  0
 12 24  4  0
 13 24  4  0
 15 18  1  0
 16 25  4  0
 16 26  4  0
 17 20  4  0
 17 28  1  0
 18 21  4  0
 21 26  4  0
 22 26  4  0
M  END
$$$$

 Created by Python create_sdf_string function

 28 30  0  0  0  0  0  0  0  0999 V2000
    5.7174   -8.4529   26.7190 C   0  0  0  0  0  0  0  0  0  0  0  0
    0.3974   -7.0711   27.5149 C   0  0  0  0  0  0  0  0  0  0  0  0
    2.5338   -7.6891   16.0102 C   0  0  0  0  0  0  0  0  0  0  0  0
    4.8690   -7.4380   26.4151 C   0  0  0  0  0  0  0  0  0  0  0  0
    2.3021   -5.6726   26.0378 C   0  0  0  0  0  0  0  0  0  0  0  0
    7.0880   -4.6163   27.0010 C   0  0  0  0  0  0  0  0  0  0  0  0
    8.3117   -4.3698   27.4436 C   0  0  0  0  0  0  0  0  0  0  0  0
    1.1339   -5.0515   26.3541 C   0  0  0  0  0  0  0  0  0  0  0  0
    4.8080   -8.0362   16.7101 C   0  0  0  0  0  0  0  0  0  0  0  0
   -1.2173   -3.9294   26.9717 O   0  0  0  0  0  0  0  0  0  0  0  0
   -1.0025   -5.0942   27.4586 C   0  0  0  0  0  0  0  0  0  0  0  0
    2.2474   -8.9123   16.6273 C   0  0  0  0  0  0  0  0  0  0  0  0
    4.4957   -9.2636   17.3041 C   0  0  0  0  0  0  0  0  0  0  0  0
   -1.8070   -5.6086   28.1920 O   0  0  0  0  0  0  0  0  0  0  0  0
   10.4296   -5.1799   28.3140 C   0  0  0  0  0  0  0  0  0  0  0  0
    6.6017   -5.9004   26.9187 C   0  0  0  0  0  0  0  0  0  0  0  0
    2.4761   -6.9940   26.4111 N   0  0  0  0  0  0  0  0  0  0  0  0
    9.1353   -5.4053   27.8239 C   0  0  0  0  0  0  0  0  0  0  0  0
    0.9922   -9.3232   16.5995 O   0  0  0  0  0  0  0  0  0  0  0  0
    1.5232   -7.6869   27.1182 C   0  0  0  0  0  0  0  0  0  0  0  0
    8.6878   -6.6715   27.7262 N   0  0  0  0  0  0  0  0  0  0  0  0
    6.9911   -8.2423   27.1808 C   0  0  0  0  0  0  0  0  0  0  0  0
    3.8436   -7.2758   16.0578 C   0  0  0  0  0  0  0  0  0  0  0  0
    3.1882   -9.7190   17.2566 C   0  0  0  0  0  0  0  0  0  0  0  0
    5.3488   -6.1737   26.5092 C   0  0  0  0  0  0  0  0  0  0  0  0
    7.4567   -6.9464   27.2858 C   0  0  0  0  0  0  0  0  0  0  0  0
    0.1921   -5.7592   27.1123 C   0  0  0  0  0  0  0  0  0  0  0  0
    3.5517   -7.7407   25.9711 C   0  0  0  0  0  0  0  0  0  0  0  0
  1  4  4  0
  1 22  4  0
  2 20  4  0
  2 27  4  0
  3 12  4  0
  3 23  4  0
  4 25  4  0
  4 28  1  0
  5  8  4  0
  5 17  4  0
  6  7  4  0
  6 16  4  0
  7 18  4  0
  8 27  4  0
  9 13  4  0
  9 23  4  0
 10 11  1  0
 11 14  2  0
 11 27  1  0
 12 19  1  0
 12 24  4  0
 13 24  4  0
 15 18  1  0
 16 25  4  0
 16 26  4  0
 17 20  4  0
 17 28  1  0
 18 21  4  0
 21 26  4  0
 22 26  4  0
M  END
$$$$

 Created by Python create_sdf_string function

 28 30  0  0  0  0  0  0  0  0999 V2000
    5.7174   -8.4529   26.7190 C   0  0  0  0  0  0  0  0  0  0  0  0
    0.3974   -7.0711   27.5149 C   0  0  0  0  0  0  0  0  0  0  0  0
    2.5338   -7.6891   16.0102 C   0  0  0  0  0  0  0  0  0  0  0  0
    4.8690   -7.4380   26.4151 C   0  0  0  0  0  0  0  0  0  0  0  0
    2.3021   -5.6726   26.0378 C   0  0  0  0  0  0  0  0  0  0  0  0
    7.0880   -4.6163   27.0010 C   0  0  0  0  0  0  0  0  0  0  0  0
    8.3117   -4.3698   27.4436 C   0  0  0  0  0  0  0  0  0  0  0  0
    1.1339   -5.0515   26.3541 C   0  0  0  0  0  0  0  0  0  0  0  0
    4.8080   -8.0362   16.7101 C   0  0  0  0  0  0  0  0  0  0  0  0
   -1.2173   -3.9294   26.9717 O   0  0  0  0  0  0  0  0  0  0  0  0
   -1.0025   -5.0942   27.4586 C   0  0  0  0  0  0  0  0  0  0  0  0
    2.2474   -8.9123   16.6273 C   0  0  0  0  0  0  0  0  0  0  0  0
    4.4957   -9.2636   17.3041 C   0  0  0  0  0  0  0  0  0  0  0  0
   -1.8070   -5.6086   28.1920 O   0  0  0  0  0  0  0  0  0  0  0  0
   10.4296   -5.1799   28.3140 C   0  0  0  0  0  0  0  0  0  0  0  0
    6.6017   -5.9004   26.9187 C   0  0  0  0  0  0  0  0  0  0  0  0
    2.4761   -6.9940   26.4111 N   0  0  0  0  0  0  0  0  0  0  0  0
    9.1353   -5.4053   27.8239 C   0  0  0  0  0  0  0  0  0  0  0  0
    0.9922   -9.3232   16.5995 O   0  0  0  0  0  0  0  0  0  0  0  0
    1.5232   -7.6869   27.1182 C   0  0  0  0  0  0  0  0  0  0  0  0
    8.6878   -6.6715   27.7262 N   0  0  0  0  0  0  0  0  0  0  0  0
    6.9911   -8.2423   27.1808 C   0  0  0  0  0  0  0  0  0  0  0  0
    3.8436   -7.2758   16.0578 C   0  0  0  0  0  0  0  0  0  0  0  0
    3.1882   -9.7190   17.2566 C   0  0  0  0  0  0  0  0  0  0  0  0
    5.3488   -6.1737   26.5092 C   0  0  0  0  0  0  0  0  0  0  0  0
    7.4567   -6.9464   27.2858 C   0  0  0  0  0  0  0  0  0  0  0  0
    0.1921   -5.7592   27.1123 C   0  0  0  0  0  0  0  0  0  0  0  0
    3.5517   -7.7407   25.9711 C   0  0  0  0  0  0  0  0  0  0  0  0
  1  4  4  0
  1 22  4  0
  2 20  4  0
  2 27  4  0
  3 12  4  0
  3 23  4  0
  4 25  4  0
  4 28  1  0
  5  8  4  0
  5 17  4  0
  6  7  4  0
  6 16  4  0
  7 18  4  0
  8 27  4  0
  9 13  4  0
  9 23  4  0
 10 11  1  0
 11 14  2  0
 11 27  1  0
 12 19  1  0
 12 24  4  0
 13 24  4  0
 15 18  1  0
 16 25  4  0
 16 26  4  0
 17 20  4  0
 17 28  1  0
 18 21  4  0
 21 26  4  0
 22 26  4  0
M  END
$$$$

 Created by Python create_sdf_string function

 28 30  0  0  0  0  0  0  0  0999 V2000
    5.7174   -8.4529   26.7190 C   0  0  0  0  0  0  0  0  0  0  0  0
    0.3974   -7.0711   27.5149 C   0  0  0  0  0  0  0  0  0  0  0  0
    2.5338   -7.6891   16.0102 C   0  0  0  0  0  0  0  0  0  0  0  0
    4.8690   -7.4380   26.4151 C   0  0  0  0  0  0  0  0  0  0  0  0
    2.3021   -5.6726   26.0378 C   0  0  0  0  0  0  0  0  0  0  0  0
    7.0880   -4.6163   27.0010 C   0  0  0  0  0  0  0  0  0  0  0  0
    8.3117   -4.3698   27.4436 C   0  0  0  0  0  0  0  0  0  0  0  0
    1.1339   -5.0515   26.3541 C   0  0  0  0  0  0  0  0  0  0  0  0
    4.8080   -8.0362   16.7101 C   0  0  0  0  0  0  0  0  0  0  0  0
   -1.2173   -3.9294   26.9717 O   0  0  0  0  0  0  0  0  0  0  0  0
   -1.0025   -5.0942   27.4586 C   0  0  0  0  0  0  0  0  0  0  0  0
    2.2474   -8.9123   16.6273 C   0  0  0  0  0  0  0  0  0  0  0  0
    4.4957   -9.2636   17.3041 C   0  0  0  0  0  0  0  0  0  0  0  0
   -1.8070   -5.6086   28.1920 O   0  0  0  0  0  0  0  0  0  0  0  0
   10.4296   -5.1799   28.3140 C   0  0  0  0  0  0  0  0  0  0  0  0
    6.6017   -5.9004   26.9187 C   0  0  0  0  0  0  0  0  0  0  0  0
    2.4761   -6.9940   26.4111 N   0  0  0  0  0  0  0  0  0  0  0  0
    9.1353   -5.4053   27.8239 C   0  0  0  0  0  0  0  0  0  0  0  0
    0.9922   -9.3232   16.5995 O   0  0  0  0  0  0  0  0  0  0  0  0
    1.5232   -7.6869   27.1182 C   0  0  0  0  0  0  0  0  0  0  0  0
    8.6878   -6.6715   27.7262 N   0  0  0  0  0  0  0  0  0  0  0  0
    6.9911   -8.2423   27.1808 C   0  0  0  0  0  0  0  0  0  0  0  0
    3.8436   -7.2758   16.0578 C   0  0  0  0  0  0  0  0  0  0  0  0
    3.1882   -9.7190   17.2566 C   0  0  0  0  0  0  0  0  0  0  0  0
    5.3488   -6.1737   26.5092 C   0  0  0  0  0  0  0  0  0  0  0  0
    7.4567   -6.9464   27.2858 C   0  0  0  0  0  0  0  0  0  0  0  0
    0.1921   -5.7592   27.1123 C   0  0  0  0  0  0  0  0  0  0  0  0
    3.5517   -7.7407   25.9711 C   0  0  0  0  0  0  0  0  0  0  0  0
  1  4  4  0
  1 22  4  0
  2 20  4  0
  2 27  4  0
  3 12  4  0
  3 23  4  0
  4 25  4  0
  4 28  1  0
  5  8  4  0
  5 17  4  0
  6  7  4  0
  6 16  4  0
  7 18  4  0
  8 27  4  0
  9 13  4  0
  9 23  4  0
 10 11  1  0
 11 14  2  0
 11 27  1  0
 12 19  1  0
 12 24  4  0
 13 24  4  0
 15 18  1  0
 16 25  4  0
 16 26  4  0
 17 20  4  0
 17 28  1  0
 18 21  4  0
 21 26  4  0
 22 26  4  0
M  END
$$$$

 Created by Python create_sdf_string function

 28 30  0  0  0  0  0  0  0  0999 V2000
    5.7174   -8.4529   26.7190 C   0  0  0  0  0  0  0  0  0  0  0  0
    0.3974   -7.0711   27.5149 C   0  0  0  0  0  0  0  0  0  0  0  0
    2.5338   -7.6891   16.0102 C   0  0  0  0  0  0  0  0  0  0  0  0
    4.8690   -7.4380   26.4151 C   0  0  0  0  0  0  0  0  0  0  0  0
    2.3021   -5.6726   26.0378 C   0  0  0  0  0  0  0  0  0  0  0  0
    7.0880   -4.6163   27.0010 C   0  0  0  0  0  0  0  0  0  0  0  0
    8.3117   -4.3698   27.4436 C   0  0  0  0  0  0  0  0  0  0  0  0
    1.1339   -5.0515   26.3541 C   0  0  0  0  0  0  0  0  0  0  0  0
    4.8080   -8.0362   16.7101 C   0  0  0  0  0  0  0  0  0  0  0  0
   -1.2173   -3.9294   26.9717 O   0  0  0  0  0  0  0  0  0  0  0  0
   -1.0025   -5.0942   27.4586 C   0  0  0  0  0  0  0  0  0  0  0  0
    2.2474   -8.9123   16.6273 C   0  0  0  0  0  0  0  0  0  0  0  0
    4.4957   -9.2636   17.3041 C   0  0  0  0  0  0  0  0  0  0  0  0
   -1.8070   -5.6086   28.1920 O   0  0  0  0  0  0  0  0  0  0  0  0
   10.4296   -5.1799   28.3140 C   0  0  0  0  0  0  0  0  0  0  0  0
    6.6017   -5.9004   26.9187 C   0  0  0  0  0  0  0  0  0  0  0  0
    2.4761   -6.9940   26.4111 N   0  0  0  0  0  0  0  0  0  0  0  0
    9.1353   -5.4053   27.8239 C   0  0  0  0  0  0  0  0  0  0  0  0
    0.9922   -9.3232   16.5995 O   0  0  0  0  0  0  0  0  0  0  0  0
    1.5232   -7.6869   27.1182 C   0  0  0  0  0  0  0  0  0  0  0  0
    8.6878   -6.6715   27.7262 N   0  0  0  0  0  0  0  0  0  0  0  0
    6.9911   -8.2423   27.1808 C   0  0  0  0  0  0  0  0  0  0  0  0
    3.8436   -7.2758   16.0578 C   0  0  0  0  0  0  0  0  0  0  0  0
    3.1882   -9.7190   17.2566 C   0  0  0  0  0  0  0  0  0  0  0  0
    5.3488   -6.1737   26.5092 C   0  0  0  0  0  0  0  0  0  0  0  0
    7.4567   -6.9464   27.2858 C   0  0  0  0  0  0  0  0  0  0  0  0
    0.1921   -5.7592   27.1123 C   0  0  0  0  0  0  0  0  0  0  0  0
    3.5517   -7.7407   25.9711 C   0  0  0  0  0  0  0  0  0  0  0  0
  1  4  4  0
  1 22  4  0
  2 20  4  0
  2 27  4  0
  3 12  4  0
  3 23  4  0
  4 25  4  0
  4 28  1  0
  5  8  4  0
  5 17  4  0
  6  7  4  0
  6 16  4  0
  7 18  4  0
  8 27  4  0
  9 13  4  0
  9 23  4  0
 10 11  1  0
 11 14  2  0
 11 27  1  0
 12 19  1  0
 12 24  4  0
 13 24  4  0
 15 18  1  0
 16 25  4  0
 16 26  4  0
 17 20  4  0
 17 28  1  0
 18 21  4  0
 21 26  4  0
 22 26  4  0
M  END
$$$$

 Created by Python create_sdf_string function

 28 30  0  0  0  0  0  0  0  0999 V2000
    5.7174   -8.4529   26.7190 C   0  0  0  0  0  0  0  0  0  0  0  0
    0.3974   -7.0711   27.5149 C   0  0  0  0  0  0  0  0  0  0  0  0
    2.5338   -7.6891   16.0102 C   0  0  0  0  0  0  0  0  0  0  0  0
    4.8690   -7.4380   26.4151 C   0  0  0  0  0  0  0  0  0  0  0  0
    2.3021   -5.6726   26.0378 C   0  0  0  0  0  0  0  0  0  0  0  0
    7.0880   -4.6163   27.0010 C   0  0  0  0  0  0  0  0  0  0  0  0
    8.3117   -4.3698   27.4436 C   0  0  0  0  0  0  0  0  0  0  0  0
    1.1339   -5.0515   26.3541 C   0  0  0  0  0  0  0  0  0  0  0  0
    4.8080   -8.0362   16.7101 C   0  0  0  0  0  0  0  0  0  0  0  0
   -1.2173   -3.9294   26.9717 O   0  0  0  0  0  0  0  0  0  0  0  0
   -1.0025   -5.0942   27.4586 C   0  0  0  0  0  0  0  0  0  0  0  0
    2.2474   -8.9123   16.6273 C   0  0  0  0  0  0  0  0  0  0  0  0
    4.4957   -9.2636   17.3041 C   0  0  0  0  0  0  0  0  0  0  0  0
   -1.8070   -5.6086   28.1920 O   0  0  0  0  0  0  0  0  0  0  0  0
   10.4296   -5.1799   28.3140 C   0  0  0  0  0  0  0  0  0  0  0  0
    6.6017   -5.9004   26.9187 C   0  0  0  0  0  0  0  0  0  0  0  0
    2.4761   -6.9940   26.4111 N   0  0  0  0  0  0  0  0  0  0  0  0
    9.1353   -5.4053   27.8239 C   0  0  0  0  0  0  0  0  0  0  0  0
    0.9922   -9.3232   16.5995 O   0  0  0  0  0  0  0  0  0  0  0  0
    1.5232   -7.6869   27.1182 C   0  0  0  0  0  0  0  0  0  0  0  0
    8.6878   -6.6715   27.7262 N   0  0  0  0  0  0  0  0  0  0  0  0
    6.9911   -8.2423   27.1808 C   0  0  0  0  0  0  0  0  0  0  0  0
    3.8436   -7.2758   16.0578 C   0  0  0  0  0  0  0  0  0  0  0  0
    3.1882   -9.7190   17.2566 C   0  0  0  0  0  0  0  0  0  0  0  0
    5.3488   -6.1737   26.5092 C   0  0  0  0  0  0  0  0  0  0  0  0
    7.4567   -6.9464   27.2858 C   0  0  0  0  0  0  0  0  0  0  0  0
    0.1921   -5.7592   27.1123 C   0  0  0  0  0  0  0  0  0  0  0  0
    3.5517   -7.7407   25.9711 C   0  0  0  0  0  0  0  0  0  0  0  0
  1  4  4  0
  1 22  4  0
  2 20  4  0
  2 27  4  0
  3 12  4  0
  3 23  4  0
  4 25  4  0
  4 28  1  0
  5  8  4  0
  5 17  4  0
  6  7  4  0
  6 16  4  0
  7 18  4  0
  8 27  4  0
  9 13  4  0
  9 23  4  0
 10 11  1  0
 11 14  2  0
 11 27  1  0
 12 19  1  0
 12 24  4  0
 13 24  4  0
 15 18  1  0
 16 25  4  0
 16 26  4  0
 17 20  4  0
 17 28  1  0
 18 21  4  0
 21 26  4  0
 22 26  4  0
M  END
$$$$

 Created by Python create_sdf_string function

 28 30  0  0  0  0  0  0  0  0999 V2000
    5.7174   -8.4529   26.7190 C   0  0  0  0  0  0  0  0  0  0  0  0
    0.3974   -7.0711   27.5149 C   0  0  0  0  0  0  0  0  0  0  0  0
    2.5338   -7.6891   16.0102 C   0  0  0  0  0  0  0  0  0  0  0  0
    4.8690   -7.4380   26.4151 C   0  0  0  0  0  0  0  0  0  0  0  0
    2.3021   -5.6726   26.0378 C   0  0  0  0  0  0  0  0  0  0  0  0
    7.0880   -4.6163   27.0010 C   0  0  0  0  0  0  0  0  0  0  0  0
    8.3117   -4.3698   27.4436 C   0  0  0  0  0  0  0  0  0  0  0  0
    1.1339   -5.0515   26.3541 C   0  0  0  0  0  0  0  0  0  0  0  0
    4.8080   -8.0362   16.7101 C   0  0  0  0  0  0  0  0  0  0  0  0
   -1.2173   -3.9294   26.9717 O   0  0  0  0  0  0  0  0  0  0  0  0
   -1.0025   -5.0942   27.4586 C   0  0  0  0  0  0  0  0  0  0  0  0
    2.2474   -8.9123   16.6273 C   0  0  0  0  0  0  0  0  0  0  0  0
    4.4957   -9.2636   17.3041 C   0  0  0  0  0  0  0  0  0  0  0  0
   -1.8070   -5.6086   28.1920 O   0  0  0  0  0  0  0  0  0  0  0  0
   10.4296   -5.1799   28.3140 C   0  0  0  0  0  0  0  0  0  0  0  0
    6.6017   -5.9004   26.9187 C   0  0  0  0  0  0  0  0  0  0  0  0
    2.4761   -6.9940   26.4111 N   0  0  0  0  0  0  0  0  0  0  0  0
    9.1353   -5.4053   27.8239 C   0  0  0  0  0  0  0  0  0  0  0  0
    0.9922   -9.3232   16.5995 O   0  0  0  0  0  0  0  0  0  0  0  0
    1.5232   -7.6869   27.1182 C   0  0  0  0  0  0  0  0  0  0  0  0
    8.6878   -6.6715   27.7262 N   0  0  0  0  0  0  0  0  0  0  0  0
    6.9911   -8.2423   27.1808 C   0  0  0  0  0  0  0  0  0  0  0  0
    3.8436   -7.2758   16.0578 C   0  0  0  0  0  0  0  0  0  0  0  0
    3.1882   -9.7190   17.2566 C   0  0  0  0  0  0  0  0  0  0  0  0
    5.3488   -6.1737   26.5092 C   0  0  0  0  0  0  0  0  0  0  0  0
    7.4567   -6.9464   27.2858 C   0  0  0  0  0  0  0  0  0  0  0  0
    0.1921   -5.7592   27.1123 C   0  0  0  0  0  0  0  0  0  0  0  0
    3.5517   -7.7407   25.9711 C   0  0  0  0  0  0  0  0  0  0  0  0
  1  4  4  0
  1 22  4  0
  2 20  4  0
  2 27  4  0
  3 12  4  0
  3 23  4  0
  4 25  4  0
  4 28  1  0
  5  8  4  0
  5 17  4  0
  6  7  4  0
  6 16  4  0
  7 18  4  0
  8 27  4  0
  9 13  4  0
  9 23  4  0
 10 11  1  0
 11 14  2  0
 11 27  1  0
 12 19  1  0
 12 24  4  0
 13 24  4  0
 15 18  1  0
 16 25  4  0
 16 26  4  0
 17 20  4  0
 17 28  1  0
 18 21  4  0
 21 26  4  0
 22 26  4  0
M  END
$$$$

 Created by Python create_sdf_string function

 28 30  0  0  0  0  0  0  0  0999 V2000
    5.7174   -8.4529   26.7190 C   0  0  0  0  0  0  0  0  0  0  0  0
    0.3974   -7.0711   27.5149 C   0  0  0  0  0  0  0  0  0  0  0  0
    2.5338   -7.6891   16.0102 C   0  0  0  0  0  0  0  0  0  0  0  0
    4.8690   -7.4380   26.4151 C   0  0  0  0  0  0  0  0  0  0  0  0
    2.3021   -5.6726   26.0378 C   0  0  0  0  0  0  0  0  0  0  0  0
    7.0880   -4.6163   27.0010 C   0  0  0  0  0  0  0  0  0  0  0  0
    8.3117   -4.3698   27.4436 C   0  0  0  0  0  0  0  0  0  0  0  0
    1.1339   -5.0515   26.3541 C   0  0  0  0  0  0  0  0  0  0  0  0
    4.8080   -8.0362   16.7101 C   0  0  0  0  0  0  0  0  0  0  0  0
   -1.2173   -3.9294   26.9717 O   0  0  0  0  0  0  0  0  0  0  0  0
   -1.0025   -5.0942   27.4586 C   0  0  0  0  0  0  0  0  0  0  0  0
    2.2474   -8.9123   16.6273 C   0  0  0  0  0  0  0  0  0  0  0  0
    4.4957   -9.2636   17.3041 C   0  0  0  0  0  0  0  0  0  0  0  0
   -1.8070   -5.6086   28.1920 O   0  0  0  0  0  0  0  0  0  0  0  0
   10.4296   -5.1799   28.3140 C   0  0  0  0  0  0  0  0  0  0  0  0
    6.6017   -5.9004   26.9187 C   0  0  0  0  0  0  0  0  0  0  0  0
    2.4761   -6.9940   26.4111 N   0  0  0  0  0  0  0  0  0  0  0  0
    9.1353   -5.4053   27.8239 C   0  0  0  0  0  0  0  0  0  0  0  0
    0.9922   -9.3232   16.5995 O   0  0  0  0  0  0  0  0  0  0  0  0
    1.5232   -7.6869   27.1182 C   0  0  0  0  0  0  0  0  0  0  0  0
    8.6878   -6.6715   27.7262 N   0  0  0  0  0  0  0  0  0  0  0  0
    6.9911   -8.2423   27.1808 C   0  0  0  0  0  0  0  0  0  0  0  0
    3.8436   -7.2758   16.0578 C   0  0  0  0  0  0  0  0  0  0  0  0
    3.1882   -9.7190   17.2566 C   0  0  0  0  0  0  0  0  0  0  0  0
    5.3488   -6.1737   26.5092 C   0  0  0  0  0  0  0  0  0  0  0  0
    7.4567   -6.9464   27.2858 C   0  0  0  0  0  0  0  0  0  0  0  0
    0.1921   -5.7592   27.1123 C   0  0  0  0  0  0  0  0  0  0  0  0
    3.5517   -7.7407   25.9711 C   0  0  0  0  0  0  0  0  0  0  0  0
  1  4  4  0
  1 22  4  0
  2 20  4  0
  2 27  4  0
  3 12  4  0
  3 23  4  0
  4 25  4  0
  4 28  1  0
  5  8  4  0
  5 17  4  0
  6  7  4  0
  6 16  4  0
  7 18  4  0
  8 27  4  0
  9 13  4  0
  9 23  4  0
 10 11  1  0
 11 14  2  0
 11 27  1  0
 12 19  1  0
 12 24  4  0
 13 24  4  0
 15 18  1  0
 16 25  4  0
 16 26  4  0
 17 20  4  0
 17 28  1  0
 18 21  4  0
 21 26  4  0
 22 26  4  0
M  END
$$$$

 Created by Python create_sdf_string function

 28 30  0  0  0  0  0  0  0  0999 V2000
    5.7174   -8.4529   26.7190 C   0  0  0  0  0  0  0  0  0  0  0  0
    0.3974   -7.0711   27.5149 C   0  0  0  0  0  0  0  0  0  0  0  0
    2.5338   -7.6891   16.0102 C   0  0  0  0  0  0  0  0  0  0  0  0
    4.8690   -7.4380   26.4151 C   0  0  0  0  0  0  0  0  0  0  0  0
    2.3021   -5.6726   26.0378 C   0  0  0  0  0  0  0  0  0  0  0  0
    7.0880   -4.6163   27.0010 C   0  0  0  0  0  0  0  0  0  0  0  0
    8.3117   -4.3698   27.4436 C   0  0  0  0  0  0  0  0  0  0  0  0
    1.1339   -5.0515   26.3541 C   0  0  0  0  0  0  0  0  0  0  0  0
    4.8080   -8.0362   16.7101 C   0  0  0  0  0  0  0  0  0  0  0  0
   -1.2173   -3.9294   26.9717 O   0  0  0  0  0  0  0  0  0  0  0  0
   -1.0025   -5.0942   27.4586 C   0  0  0  0  0  0  0  0  0  0  0  0
    2.2474   -8.9123   16.6273 C   0  0  0  0  0  0  0  0  0  0  0  0
    4.4957   -9.2636   17.3041 C   0  0  0  0  0  0  0  0  0  0  0  0
   -1.8070   -5.6086   28.1920 O   0  0  0  0  0  0  0  0  0  0  0  0
   10.4296   -5.1799   28.3140 C   0  0  0  0  0  0  0  0  0  0  0  0
    6.6017   -5.9004   26.9187 C   0  0  0  0  0  0  0  0  0  0  0  0
    2.4761   -6.9940   26.4111 N   0  0  0  0  0  0  0  0  0  0  0  0
    9.1353   -5.4053   27.8239 C   0  0  0  0  0  0  0  0  0  0  0  0
    0.9922   -9.3232   16.5995 O   0  0  0  0  0  0  0  0  0  0  0  0
    1.5232   -7.6869   27.1182 C   0  0  0  0  0  0  0  0  0  0  0  0
    8.6878   -6.6715   27.7262 N   0  0  0  0  0  0  0  0  0  0  0  0
    6.9911   -8.2423   27.1808 C   0  0  0  0  0  0  0  0  0  0  0  0
    3.8436   -7.2758   16.0578 C   0  0  0  0  0  0  0  0  0  0  0  0
    3.1882   -9.7190   17.2566 C   0  0  0  0  0  0  0  0  0  0  0  0
    5.3488   -6.1737   26.5092 C   0  0  0  0  0  0  0  0  0  0  0  0
    7.4567   -6.9464   27.2858 C   0  0  0  0  0  0  0  0  0  0  0  0
    0.1921   -5.7592   27.1123 C   0  0  0  0  0  0  0  0  0  0  0  0
    3.5517   -7.7407   25.9711 C   0  0  0  0  0  0  0  0  0  0  0  0
  1  4  4  0
  1 22  4  0
  2 20  4  0
  2 27  4  0
  3 12  4  0
  3 23  4  0
  4 25  4  0
  4 28  1  0
  5  8  4  0
  5 17  4  0
  6  7  4  0
  6 16  4  0
  7 18  4  0
  8 27  4  0
  9 13  4  0
  9 23  4  0
 10 11  1  0
 11 14  2  0
 11 27  1  0
 12 19  1  0
 12 24  4  0
 13 24  4  0
 15 18  1  0
 16 25  4  0
 16 26  4  0
 17 20  4  0
 17 28  1  0
 18 21  4  0
 21 26  4  0
 22 26  4  0
M  END
$$$$

 Created by Python create_sdf_string function

 28 30  0  0  0  0  0  0  0  0999 V2000
    5.7174   -8.4529   26.7190 C   0  0  0  0  0  0  0  0  0  0  0  0
    0.3974   -7.0711   27.5149 C   0  0  0  0  0  0  0  0  0  0  0  0
    2.5338   -7.6891   16.0102 C   0  0  0  0  0  0  0  0  0  0  0  0
    4.8690   -7.4380   26.4151 C   0  0  0  0  0  0  0  0  0  0  0  0
    2.3021   -5.6726   26.0378 C   0  0  0  0  0  0  0  0  0  0  0  0
    7.0880   -4.6163   27.0010 C   0  0  0  0  0  0  0  0  0  0  0  0
    8.3117   -4.3698   27.4436 C   0  0  0  0  0  0  0  0  0  0  0  0
    1.1339   -5.0515   26.3541 C   0  0  0  0  0  0  0  0  0  0  0  0
    4.8080   -8.0362   16.7101 C   0  0  0  0  0  0  0  0  0  0  0  0
   -1.2173   -3.9294   26.9717 O   0  0  0  0  0  0  0  0  0  0  0  0
   -1.0025   -5.0942   27.4586 C   0  0  0  0  0  0  0  0  0  0  0  0
    2.2474   -8.9123   16.6273 C   0  0  0  0  0  0  0  0  0  0  0  0
    4.4957   -9.2636   17.3041 C   0  0  0  0  0  0  0  0  0  0  0  0
   -1.8070   -5.6086   28.1920 O   0  0  0  0  0  0  0  0  0  0  0  0
   10.4296   -5.1799   28.3140 C   0  0  0  0  0  0  0  0  0  0  0  0
    6.6017   -5.9004   26.9187 C   0  0  0  0  0  0  0  0  0  0  0  0
    2.4761   -6.9940   26.4111 N   0  0  0  0  0  0  0  0  0  0  0  0
    9.1353   -5.4053   27.8239 C   0  0  0  0  0  0  0  0  0  0  0  0
    0.9922   -9.3232   16.5995 O   0  0  0  0  0  0  0  0  0  0  0  0
    1.5232   -7.6869   27.1182 C   0  0  0  0  0  0  0  0  0  0  0  0
    8.6878   -6.6715   27.7262 N   0  0  0  0  0  0  0  0  0  0  0  0
    6.9911   -8.2423   27.1808 C   0  0  0  0  0  0  0  0  0  0  0  0
    3.8436   -7.2758   16.0578 C   0  0  0  0  0  0  0  0  0  0  0  0
    3.1882   -9.7190   17.2566 C   0  0  0  0  0  0  0  0  0  0  0  0
    5.3488   -6.1737   26.5092 C   0  0  0  0  0  0  0  0  0  0  0  0
    7.4567   -6.9464   27.2858 C   0  0  0  0  0  0  0  0  0  0  0  0
    0.1921   -5.7592   27.1123 C   0  0  0  0  0  0  0  0  0  0  0  0
    3.5517   -7.7407   25.9711 C   0  0  0  0  0  0  0  0  0  0  0  0
  1  4  4  0
  1 22  4  0
  2 20  4  0
  2 27  4  0
  3 12  4  0
  3 23  4  0
  4 25  4  0
  4 28  1  0
  5  8  4  0
  5 17  4  0
  6  7  4  0
  6 16  4  0
  7 18  4  0
  8 27  4  0
  9 13  4  0
  9 23  4  0
 10 11  1  0
 11 14  2  0
 11 27  1  0
 12 19  1  0
 12 24  4  0
 13 24  4  0
 15 18  1  0
 16 25  4  0
 16 26  4  0
 17 20  4  0
 17 28  1  0
 18 21  4  0
 21 26  4  0
 22 26  4  0
M  END
$$$$

 Created by Python create_sdf_string function

 28 30  0  0  0  0  0  0  0  0999 V2000
    5.7174   -8.4529   26.7190 C   0  0  0  0  0  0  0  0  0  0  0  0
    0.3974   -7.0711   27.5149 C   0  0  0  0  0  0  0  0  0  0  0  0
    2.5338   -7.6891   16.0102 C   0  0  0  0  0  0  0  0  0  0  0  0
    4.8690   -7.4380   26.4151 C   0  0  0  0  0  0  0  0  0  0  0  0
    2.3021   -5.6726   26.0378 C   0  0  0  0  0  0  0  0  0  0  0  0
    7.0880   -4.6163   27.0010 C   0  0  0  0  0  0  0  0  0  0  0  0
    8.3117   -4.3698   27.4436 C   0  0  0  0  0  0  0  0  0  0  0  0
    1.1339   -5.0515   26.3541 C   0  0  0  0  0  0  0  0  0  0  0  0
    4.8080   -8.0362   16.7101 C   0  0  0  0  0  0  0  0  0  0  0  0
   -1.2173   -3.9294   26.9717 O   0  0  0  0  0  0  0  0  0  0  0  0
   -1.0025   -5.0942   27.4586 C   0  0  0  0  0  0  0  0  0  0  0  0
    2.2474   -8.9123   16.6273 C   0  0  0  0  0  0  0  0  0  0  0  0
    4.4957   -9.2636   17.3041 C   0  0  0  0  0  0  0  0  0  0  0  0
   -1.8070   -5.6086   28.1920 O   0  0  0  0  0  0  0  0  0  0  0  0
   10.4296   -5.1799   28.3140 C   0  0  0  0  0  0  0  0  0  0  0  0
    6.6017   -5.9004   26.9187 C   0  0  0  0  0  0  0  0  0  0  0  0
    2.4761   -6.9940   26.4111 N   0  0  0  0  0  0  0  0  0  0  0  0
    9.1353   -5.4053   27.8239 C   0  0  0  0  0  0  0  0  0  0  0  0
    0.9922   -9.3232   16.5995 O   0  0  0  0  0  0  0  0  0  0  0  0
    1.5232   -7.6869   27.1182 C   0  0  0  0  0  0  0  0  0  0  0  0
    8.6878   -6.6715   27.7262 N   0  0  0  0  0  0  0  0  0  0  0  0
    6.9911   -8.2423   27.1808 C   0  0  0  0  0  0  0  0  0  0  0  0
    3.8436   -7.2758   16.0578 C   0  0  0  0  0  0  0  0  0  0  0  0
    3.1882   -9.7190   17.2566 C   0  0  0  0  0  0  0  0  0  0  0  0
    5.3488   -6.1737   26.5092 C   0  0  0  0  0  0  0  0  0  0  0  0
    7.4567   -6.9464   27.2858 C   0  0  0  0  0  0  0  0  0  0  0  0
    0.1921   -5.7592   27.1123 C   0  0  0  0  0  0  0  0  0  0  0  0
    3.5517   -7.7407   25.9711 C   0  0  0  0  0  0  0  0  0  0  0  0
  1  4  4  0
  1 22  4  0
  2 20  4  0
  2 27  4  0
  3 12  4  0
  3 23  4  0
  4 25  4  0
  4 28  1  0
  5  8  4  0
  5 17  4  0
  6  7  4  0
  6 16  4  0
  7 18  4  0
  8 27  4  0
  9 13  4  0
  9 23  4  0
 10 11  1  0
 11 14  2  0
 11 27  1  0
 12 19  1  0
 12 24  4  0
 13 24  4  0
 15 18  1  0
 16 25  4  0
 16 26  4  0
 17 20  4  0
 17 28  1  0
 18 21  4  0
 21 26  4  0
 22 26  4  0
M  END
$$$$

 Created by Python create_sdf_string function

 28 30  0  0  0  0  0  0  0  0999 V2000
    5.7174   -8.4529   26.7190 C   0  0  0  0  0  0  0  0  0  0  0  0
    0.3974   -7.0711   27.5149 C   0  0  0  0  0  0  0  0  0  0  0  0
    2.5338   -7.6891   16.0102 C   0  0  0  0  0  0  0  0  0  0  0  0
    4.8690   -7.4380   26.4151 C   0  0  0  0  0  0  0  0  0  0  0  0
    2.3021   -5.6726   26.0378 C   0  0  0  0  0  0  0  0  0  0  0  0
    7.0880   -4.6163   27.0010 C   0  0  0  0  0  0  0  0  0  0  0  0
    8.3117   -4.3698   27.4436 C   0  0  0  0  0  0  0  0  0  0  0  0
    1.1339   -5.0515   26.3541 C   0  0  0  0  0  0  0  0  0  0  0  0
    4.8080   -8.0362   16.7101 C   0  0  0  0  0  0  0  0  0  0  0  0
   -1.2173   -3.9294   26.9717 O   0  0  0  0  0  0  0  0  0  0  0  0
   -1.0025   -5.0942   27.4586 C   0  0  0  0  0  0  0  0  0  0  0  0
    2.2474   -8.9123   16.6273 C   0  0  0  0  0  0  0  0  0  0  0  0
    4.4957   -9.2636   17.3041 C   0  0  0  0  0  0  0  0  0  0  0  0
   -1.8070   -5.6086   28.1920 O   0  0  0  0  0  0  0  0  0  0  0  0
   10.4296   -5.1799   28.3140 C   0  0  0  0  0  0  0  0  0  0  0  0
    6.6017   -5.9004   26.9187 C   0  0  0  0  0  0  0  0  0  0  0  0
    2.4761   -6.9940   26.4111 N   0  0  0  0  0  0  0  0  0  0  0  0
    9.1353   -5.4053   27.8239 C   0  0  0  0  0  0  0  0  0  0  0  0
    0.9922   -9.3232   16.5995 O   0  0  0  0  0  0  0  0  0  0  0  0
    1.5232   -7.6869   27.1182 C   0  0  0  0  0  0  0  0  0  0  0  0
    8.6878   -6.6715   27.7262 N   0  0  0  0  0  0  0  0  0  0  0  0
    6.9911   -8.2423   27.1808 C   0  0  0  0  0  0  0  0  0  0  0  0
    3.8436   -7.2758   16.0578 C   0  0  0  0  0  0  0  0  0  0  0  0
    3.1882   -9.7190   17.2566 C   0  0  0  0  0  0  0  0  0  0  0  0
    5.3488   -6.1737   26.5092 C   0  0  0  0  0  0  0  0  0  0  0  0
    7.4567   -6.9464   27.2858 C   0  0  0  0  0  0  0  0  0  0  0  0
    0.1921   -5.7592   27.1123 C   0  0  0  0  0  0  0  0  0  0  0  0
    3.5517   -7.7407   25.9711 C   0  0  0  0  0  0  0  0  0  0  0  0
  1  4  4  0
  1 22  4  0
  2 20  4  0
  2 27  4  0
  3 12  4  0
  3 23  4  0
  4 25  4  0
  4 28  1  0
  5  8  4  0
  5 17  4  0
  6  7  4  0
  6 16  4  0
  7 18  4  0
  8 27  4  0
  9 13  4  0
  9 23  4  0
 10 11  1  0
 11 14  2  0
 11 27  1  0
 12 19  1  0
 12 24  4  0
 13 24  4  0
 15 18  1  0
 16 25  4  0
 16 26  4  0
 17 20  4  0
 17 28  1  0
 18 21  4  0
 21 26  4  0
 22 26  4  0
M  END
$$$$

 Created by Python create_sdf_string function

 28 30  0  0  0  0  0  0  0  0999 V2000
    5.7174   -8.4529   26.7190 C   0  0  0  0  0  0  0  0  0  0  0  0
    0.3974   -7.0711   27.5149 C   0  0  0  0  0  0  0  0  0  0  0  0
    2.5338   -7.6891   16.0102 C   0  0  0  0  0  0  0  0  0  0  0  0
    4.8690   -7.4380   26.4151 C   0  0  0  0  0  0  0  0  0  0  0  0
    2.3021   -5.6726   26.0378 C   0  0  0  0  0  0  0  0  0  0  0  0
    7.0880   -4.6163   27.0010 C   0  0  0  0  0  0  0  0  0  0  0  0
    8.3117   -4.3698   27.4436 C   0  0  0  0  0  0  0  0  0  0  0  0
    1.1339   -5.0515   26.3541 C   0  0  0  0  0  0  0  0  0  0  0  0
    4.8080   -8.0362   16.7101 C   0  0  0  0  0  0  0  0  0  0  0  0
   -1.2173   -3.9294   26.9717 O   0  0  0  0  0  0  0  0  0  0  0  0
   -1.0025   -5.0942   27.4586 C   0  0  0  0  0  0  0  0  0  0  0  0
    2.2474   -8.9123   16.6273 C   0  0  0  0  0  0  0  0  0  0  0  0
    4.4957   -9.2636   17.3041 C   0  0  0  0  0  0  0  0  0  0  0  0
   -1.8070   -5.6086   28.1920 O   0  0  0  0  0  0  0  0  0  0  0  0
   10.4296   -5.1799   28.3140 C   0  0  0  0  0  0  0  0  0  0  0  0
    6.6017   -5.9004   26.9187 C   0  0  0  0  0  0  0  0  0  0  0  0
    2.4761   -6.9940   26.4111 N   0  0  0  0  0  0  0  0  0  0  0  0
    9.1353   -5.4053   27.8239 C   0  0  0  0  0  0  0  0  0  0  0  0
    0.9922   -9.3232   16.5995 O   0  0  0  0  0  0  0  0  0  0  0  0
    1.5232   -7.6869   27.1182 C   0  0  0  0  0  0  0  0  0  0  0  0
    8.6878   -6.6715   27.7262 N   0  0  0  0  0  0  0  0  0  0  0  0
    6.9911   -8.2423   27.1808 C   0  0  0  0  0  0  0  0  0  0  0  0
    3.8436   -7.2758   16.0578 C   0  0  0  0  0  0  0  0  0  0  0  0
    3.1882   -9.7190   17.2566 C   0  0  0  0  0  0  0  0  0  0  0  0
    5.3488   -6.1737   26.5092 C   0  0  0  0  0  0  0  0  0  0  0  0
    7.4567   -6.9464   27.2858 C   0  0  0  0  0  0  0  0  0  0  0  0
    0.1921   -5.7592   27.1123 C   0  0  0  0  0  0  0  0  0  0  0  0
    3.5517   -7.7407   25.9711 C   0  0  0  0  0  0  0  0  0  0  0  0
  1  4  4  0
  1 22  4  0
  2 20  4  0
  2 27  4  0
  3 12  4  0
  3 23  4  0
  4 25  4  0
  4 28  1  0
  5  8  4  0
  5 17  4  0
  6  7  4  0
  6 16  4  0
  7 18  4  0
  8 27  4  0
  9 13  4  0
  9 23  4  0
 10 11  1  0
 11 14  2  0
 11 27  1  0
 12 19  1  0
 12 24  4  0
 13 24  4  0
 15 18  1  0
 16 25  4  0
 16 26  4  0
 17 20  4  0
 17 28  1  0
 18 21  4  0
 21 26  4  0
 22 26  4  0
M  END
$$$$

 Created by Python create_sdf_string function

 28 30  0  0  0  0  0  0  0  0999 V2000
    5.7174   -8.4529   26.7190 C   0  0  0  0  0  0  0  0  0  0  0  0
    0.3974   -7.0711   27.5149 C   0  0  0  0  0  0  0  0  0  0  0  0
    2.5338   -7.6891   16.0102 C   0  0  0  0  0  0  0  0  0  0  0  0
    4.8690   -7.4380   26.4151 C   0  0  0  0  0  0  0  0  0  0  0  0
    2.3021   -5.6726   26.0378 C   0  0  0  0  0  0  0  0  0  0  0  0
    7.0880   -4.6163   27.0010 C   0  0  0  0  0  0  0  0  0  0  0  0
    8.3117   -4.3698   27.4436 C   0  0  0  0  0  0  0  0  0  0  0  0
    1.1339   -5.0515   26.3541 C   0  0  0  0  0  0  0  0  0  0  0  0
    4.8080   -8.0362   16.7101 C   0  0  0  0  0  0  0  0  0  0  0  0
   -1.2173   -3.9294   26.9717 O   0  0  0  0  0  0  0  0  0  0  0  0
   -1.0025   -5.0942   27.4586 C   0  0  0  0  0  0  0  0  0  0  0  0
    2.2474   -8.9123   16.6273 C   0  0  0  0  0  0  0  0  0  0  0  0
    4.4957   -9.2636   17.3041 C   0  0  0  0  0  0  0  0  0  0  0  0
   -1.8070   -5.6086   28.1920 O   0  0  0  0  0  0  0  0  0  0  0  0
   10.4296   -5.1799   28.3140 C   0  0  0  0  0  0  0  0  0  0  0  0
    6.6017   -5.9004   26.9187 C   0  0  0  0  0  0  0  0  0  0  0  0
    2.4761   -6.9940   26.4111 N   0  0  0  0  0  0  0  0  0  0  0  0
    9.1353   -5.4053   27.8239 C   0  0  0  0  0  0  0  0  0  0  0  0
    0.9922   -9.3232   16.5995 O   0  0  0  0  0  0  0  0  0  0  0  0
    1.5232   -7.6869   27.1182 C   0  0  0  0  0  0  0  0  0  0  0  0
    8.6878   -6.6715   27.7262 N   0  0  0  0  0  0  0  0  0  0  0  0
    6.9911   -8.2423   27.1808 C   0  0  0  0  0  0  0  0  0  0  0  0
    3.8436   -7.2758   16.0578 C   0  0  0  0  0  0  0  0  0  0  0  0
    3.1882   -9.7190   17.2566 C   0  0  0  0  0  0  0  0  0  0  0  0
    5.3488   -6.1737   26.5092 C   0  0  0  0  0  0  0  0  0  0  0  0
    7.4567   -6.9464   27.2858 C   0  0  0  0  0  0  0  0  0  0  0  0
    0.1921   -5.7592   27.1123 C   0  0  0  0  0  0  0  0  0  0  0  0
    3.5517   -7.7407   25.9711 C   0  0  0  0  0  0  0  0  0  0  0  0
  1  4  4  0
  1 22  4  0
  2 20  4  0
  2 27  4  0
  3 12  4  0
  3 23  4  0
  4 25  4  0
  4 28  1  0
  5  8  4  0
  5 17  4  0
  6  7  4  0
  6 16  4  0
  7 18  4  0
  8 27  4  0
  9 13  4  0
  9 23  4  0
 10 11  1  0
 11 14  2  0
 11 27  1  0
 12 19  1  0
 12 24  4  0
 13 24  4  0
 15 18  1  0
 16 25  4  0
 16 26  4  0
 17 20  4  0
 17 28  1  0
 18 21  4  0
 21 26  4  0
 22 26  4  0
M  END
$$$$

 Created by Python create_sdf_string function

 28 30  0  0  0  0  0  0  0  0999 V2000
    5.7174   -8.4529   26.7190 C   0  0  0  0  0  0  0  0  0  0  0  0
    0.3974   -7.0711   27.5149 C   0  0  0  0  0  0  0  0  0  0  0  0
    2.5338   -7.6891   16.0102 C   0  0  0  0  0  0  0  0  0  0  0  0
    4.8690   -7.4380   26.4151 C   0  0  0  0  0  0  0  0  0  0  0  0
    2.3021   -5.6726   26.0378 C   0  0  0  0  0  0  0  0  0  0  0  0
    7.0880   -4.6163   27.0010 C   0  0  0  0  0  0  0  0  0  0  0  0
    8.3117   -4.3698   27.4436 C   0  0  0  0  0  0  0  0  0  0  0  0
    1.1339   -5.0515   26.3541 C   0  0  0  0  0  0  0  0  0  0  0  0
    4.8080   -8.0362   16.7101 C   0  0  0  0  0  0  0  0  0  0  0  0
   -1.2173   -3.9294   26.9717 O   0  0  0  0  0  0  0  0  0  0  0  0
   -1.0025   -5.0942   27.4586 C   0  0  0  0  0  0  0  0  0  0  0  0
    2.2474   -8.9123   16.6273 C   0  0  0  0  0  0  0  0  0  0  0  0
    4.4957   -9.2636   17.3041 C   0  0  0  0  0  0  0  0  0  0  0  0
   -1.8070   -5.6086   28.1920 O   0  0  0  0  0  0  0  0  0  0  0  0
   10.4296   -5.1799   28.3140 C   0  0  0  0  0  0  0  0  0  0  0  0
    6.6017   -5.9004   26.9187 C   0  0  0  0  0  0  0  0  0  0  0  0
    2.4761   -6.9940   26.4111 N   0  0  0  0  0  0  0  0  0  0  0  0
    9.1353   -5.4053   27.8239 C   0  0  0  0  0  0  0  0  0  0  0  0
    0.9922   -9.3232   16.5995 O   0  0  0  0  0  0  0  0  0  0  0  0
    1.5232   -7.6869   27.1182 C   0  0  0  0  0  0  0  0  0  0  0  0
    8.6878   -6.6715   27.7262 N   0  0  0  0  0  0  0  0  0  0  0  0
    6.9911   -8.2423   27.1808 C   0  0  0  0  0  0  0  0  0  0  0  0
    3.8436   -7.2758   16.0578 C   0  0  0  0  0  0  0  0  0  0  0  0
    3.1882   -9.7190   17.2566 C   0  0  0  0  0  0  0  0  0  0  0  0
    5.3488   -6.1737   26.5092 C   0  0  0  0  0  0  0  0  0  0  0  0
    7.4567   -6.9464   27.2858 C   0  0  0  0  0  0  0  0  0  0  0  0
    0.1921   -5.7592   27.1123 C   0  0  0  0  0  0  0  0  0  0  0  0
    3.5517   -7.7407   25.9711 C   0  0  0  0  0  0  0  0  0  0  0  0
  1  4  4  0
  1 22  4  0
  2 20  4  0
  2 27  4  0
  3 12  4  0
  3 23  4  0
  4 25  4  0
  4 28  1  0
  5  8  4  0
  5 17  4  0
  6  7  4  0
  6 16  4  0
  7 18  4  0
  8 27  4  0
  9 13  4  0
  9 23  4  0
 10 11  1  0
 11 14  2  0
 11 27  1  0
 12 19  1  0
 12 24  4  0
 13 24  4  0
 15 18  1  0
 16 25  4  0
 16 26  4  0
 17 20  4  0
 17 28  1  0
 18 21  4  0
 21 26  4  0
 22 26  4  0
M  END
$$$$

 Created by Python create_sdf_string function

 28 30  0  0  0  0  0  0  0  0999 V2000
    5.7174   -8.4529   26.7190 C   0  0  0  0  0  0  0  0  0  0  0  0
    0.3974   -7.0711   27.5149 C   0  0  0  0  0  0  0  0  0  0  0  0
    2.5338   -7.6891   16.0102 C   0  0  0  0  0  0  0  0  0  0  0  0
    4.8690   -7.4380   26.4151 C   0  0  0  0  0  0  0  0  0  0  0  0
    2.3021   -5.6726   26.0378 C   0  0  0  0  0  0  0  0  0  0  0  0
    7.0880   -4.6163   27.0010 C   0  0  0  0  0  0  0  0  0  0  0  0
    8.3117   -4.3698   27.4436 C   0  0  0  0  0  0  0  0  0  0  0  0
    1.1339   -5.0515   26.3541 C   0  0  0  0  0  0  0  0  0  0  0  0
    4.8080   -8.0362   16.7101 C   0  0  0  0  0  0  0  0  0  0  0  0
   -1.2173   -3.9294   26.9717 O   0  0  0  0  0  0  0  0  0  0  0  0
   -1.0025   -5.0942   27.4586 C   0  0  0  0  0  0  0  0  0  0  0  0
    2.2474   -8.9123   16.6273 C   0  0  0  0  0  0  0  0  0  0  0  0
    4.4957   -9.2636   17.3041 C   0  0  0  0  0  0  0  0  0  0  0  0
   -1.8070   -5.6086   28.1920 O   0  0  0  0  0  0  0  0  0  0  0  0
   10.4296   -5.1799   28.3140 C   0  0  0  0  0  0  0  0  0  0  0  0
    6.6017   -5.9004   26.9187 C   0  0  0  0  0  0  0  0  0  0  0  0
    2.4761   -6.9940   26.4111 N   0  0  0  0  0  0  0  0  0  0  0  0
    9.1353   -5.4053   27.8239 C   0  0  0  0  0  0  0  0  0  0  0  0
    0.9922   -9.3232   16.5995 O   0  0  0  0  0  0  0  0  0  0  0  0
    1.5232   -7.6869   27.1182 C   0  0  0  0  0  0  0  0  0  0  0  0
    8.6878   -6.6715   27.7262 N   0  0  0  0  0  0  0  0  0  0  0  0
    6.9911   -8.2423   27.1808 C   0  0  0  0  0  0  0  0  0  0  0  0
    3.8436   -7.2758   16.0578 C   0  0  0  0  0  0  0  0  0  0  0  0
    3.1882   -9.7190   17.2566 C   0  0  0  0  0  0  0  0  0  0  0  0
    5.3488   -6.1737   26.5092 C   0  0  0  0  0  0  0  0  0  0  0  0
    7.4567   -6.9464   27.2858 C   0  0  0  0  0  0  0  0  0  0  0  0
    0.1921   -5.7592   27.1123 C   0  0  0  0  0  0  0  0  0  0  0  0
    3.5517   -7.7407   25.9711 C   0  0  0  0  0  0  0  0  0  0  0  0
  1  4  4  0
  1 22  4  0
  2 20  4  0
  2 27  4  0
  3 12  4  0
  3 23  4  0
  4 25  4  0
  4 28  1  0
  5  8  4  0
  5 17  4  0
  6  7  4  0
  6 16  4  0
  7 18  4  0
  8 27  4  0
  9 13  4  0
  9 23  4  0
 10 11  1  0
 11 14  2  0
 11 27  1  0
 12 19  1  0
 12 24  4  0
 13 24  4  0
 15 18  1  0
 16 25  4  0
 16 26  4  0
 17 20  4  0
 17 28  1  0
 18 21  4  0
 21 26  4  0
 22 26  4  0
M  END
$$$$

 Created by Python create_sdf_string function

 28 30  0  0  0  0  0  0  0  0999 V2000
    5.7174   -8.4529   26.7190 C   0  0  0  0  0  0  0  0  0  0  0  0
    0.3974   -7.0711   27.5149 C   0  0  0  0  0  0  0  0  0  0  0  0
    2.5338   -7.6891   16.0102 C   0  0  0  0  0  0  0  0  0  0  0  0
    4.8690   -7.4380   26.4151 C   0  0  0  0  0  0  0  0  0  0  0  0
    2.3021   -5.6726   26.0378 C   0  0  0  0  0  0  0  0  0  0  0  0
    7.0880   -4.6163   27.0010 C   0  0  0  0  0  0  0  0  0  0  0  0
    8.3117   -4.3698   27.4436 C   0  0  0  0  0  0  0  0  0  0  0  0
    1.1339   -5.0515   26.3541 C   0  0  0  0  0  0  0  0  0  0  0  0
    4.8080   -8.0362   16.7101 C   0  0  0  0  0  0  0  0  0  0  0  0
   -1.2173   -3.9294   26.9717 O   0  0  0  0  0  0  0  0  0  0  0  0
   -1.0025   -5.0942   27.4586 C   0  0  0  0  0  0  0  0  0  0  0  0
    2.2474   -8.9123   16.6273 C   0  0  0  0  0  0  0  0  0  0  0  0
    4.4957   -9.2636   17.3041 C   0  0  0  0  0  0  0  0  0  0  0  0
   -1.8070   -5.6086   28.1920 O   0  0  0  0  0  0  0  0  0  0  0  0
   10.4296   -5.1799   28.3140 C   0  0  0  0  0  0  0  0  0  0  0  0
    6.6017   -5.9004   26.9187 C   0  0  0  0  0  0  0  0  0  0  0  0
    2.4761   -6.9940   26.4111 N   0  0  0  0  0  0  0  0  0  0  0  0
    9.1353   -5.4053   27.8239 C   0  0  0  0  0  0  0  0  0  0  0  0
    0.9922   -9.3232   16.5995 O   0  0  0  0  0  0  0  0  0  0  0  0
    1.5232   -7.6869   27.1182 C   0  0  0  0  0  0  0  0  0  0  0  0
    8.6878   -6.6715   27.7262 N   0  0  0  0  0  0  0  0  0  0  0  0
    6.9911   -8.2423   27.1808 C   0  0  0  0  0  0  0  0  0  0  0  0
    3.8436   -7.2758   16.0578 C   0  0  0  0  0  0  0  0  0  0  0  0
    3.1882   -9.7190   17.2566 C   0  0  0  0  0  0  0  0  0  0  0  0
    5.3488   -6.1737   26.5092 C   0  0  0  0  0  0  0  0  0  0  0  0
    7.4567   -6.9464   27.2858 C   0  0  0  0  0  0  0  0  0  0  0  0
    0.1921   -5.7592   27.1123 C   0  0  0  0  0  0  0  0  0  0  0  0
    3.5517   -7.7407   25.9711 C   0  0  0  0  0  0  0  0  0  0  0  0
  1  4  4  0
  1 22  4  0
  2 20  4  0
  2 27  4  0
  3 12  4  0
  3 23  4  0
  4 25  4  0
  4 28  1  0
  5  8  4  0
  5 17  4  0
  6  7  4  0
  6 16  4  0
  7 18  4  0
  8 27  4  0
  9 13  4  0
  9 23  4  0
 10 11  1  0
 11 14  2  0
 11 27  1  0
 12 19  1  0
 12 24  4  0
 13 24  4  0
 15 18  1  0
 16 25  4  0
 16 26  4  0
 17 20  4  0
 17 28  1  0
 18 21  4  0
 21 26  4  0
 22 26  4  0
M  END
$$$$

 Created by Python create_sdf_string function

 28 30  0  0  0  0  0  0  0  0999 V2000
    5.7174   -8.4529   26.7190 C   0  0  0  0  0  0  0  0  0  0  0  0
    0.3974   -7.0711   27.5149 C   0  0  0  0  0  0  0  0  0  0  0  0
    2.5338   -7.6891   16.0102 C   0  0  0  0  0  0  0  0  0  0  0  0
    4.8690   -7.4380   26.4151 C   0  0  0  0  0  0  0  0  0  0  0  0
    2.3021   -5.6726   26.0378 C   0  0  0  0  0  0  0  0  0  0  0  0
    7.0880   -4.6163   27.0010 C   0  0  0  0  0  0  0  0  0  0  0  0
    8.3117   -4.3698   27.4436 C   0  0  0  0  0  0  0  0  0  0  0  0
    1.1339   -5.0515   26.3541 C   0  0  0  0  0  0  0  0  0  0  0  0
    4.8080   -8.0362   16.7101 C   0  0  0  0  0  0  0  0  0  0  0  0
   -1.2173   -3.9294   26.9717 O   0  0  0  0  0  0  0  0  0  0  0  0
   -1.0025   -5.0942   27.4586 C   0  0  0  0  0  0  0  0  0  0  0  0
    2.2474   -8.9123   16.6273 C   0  0  0  0  0  0  0  0  0  0  0  0
    4.4957   -9.2636   17.3041 C   0  0  0  0  0  0  0  0  0  0  0  0
   -1.8070   -5.6086   28.1920 O   0  0  0  0  0  0  0  0  0  0  0  0
   10.4296   -5.1799   28.3140 C   0  0  0  0  0  0  0  0  0  0  0  0
    6.6017   -5.9004   26.9187 C   0  0  0  0  0  0  0  0  0  0  0  0
    2.4761   -6.9940   26.4111 N   0  0  0  0  0  0  0  0  0  0  0  0
    9.1353   -5.4053   27.8239 C   0  0  0  0  0  0  0  0  0  0  0  0
    0.9922   -9.3232   16.5995 O   0  0  0  0  0  0  0  0  0  0  0  0
    1.5232   -7.6869   27.1182 C   0  0  0  0  0  0  0  0  0  0  0  0
    8.6878   -6.6715   27.7262 N   0  0  0  0  0  0  0  0  0  0  0  0
    6.9911   -8.2423   27.1808 C   0  0  0  0  0  0  0  0  0  0  0  0
    3.8436   -7.2758   16.0578 C   0  0  0  0  0  0  0  0  0  0  0  0
    3.1882   -9.7190   17.2566 C   0  0  0  0  0  0  0  0  0  0  0  0
    5.3488   -6.1737   26.5092 C   0  0  0  0  0  0  0  0  0  0  0  0
    7.4567   -6.9464   27.2858 C   0  0  0  0  0  0  0  0  0  0  0  0
    0.1921   -5.7592   27.1123 C   0  0  0  0  0  0  0  0  0  0  0  0
    3.5517   -7.7407   25.9711 C   0  0  0  0  0  0  0  0  0  0  0  0
  1  4  4  0
  1 22  4  0
  2 20  4  0
  2 27  4  0
  3 12  4  0
  3 23  4  0
  4 25  4  0
  4 28  1  0
  5  8  4  0
  5 17  4  0
  6  7  4  0
  6 16  4  0
  7 18  4  0
  8 27  4  0
  9 13  4  0
  9 23  4  0
 10 11  1  0
 11 14  2  0
 11 27  1  0
 12 19  1  0
 12 24  4  0
 13 24  4  0
 15 18  1  0
 16 25  4  0
 16 26  4  0
 17 20  4  0
 17 28  1  0
 18 21  4  0
 21 26  4  0
 22 26  4  0
M  END
$$$$

 Created by Python create_sdf_string function

 28 30  0  0  0  0  0  0  0  0999 V2000
    5.7174   -8.4529   26.7190 C   0  0  0  0  0  0  0  0  0  0  0  0
    0.3974   -7.0711   27.5149 C   0  0  0  0  0  0  0  0  0  0  0  0
    2.5338   -7.6891   16.0102 C   0  0  0  0  0  0  0  0  0  0  0  0
    4.8690   -7.4380   26.4151 C   0  0  0  0  0  0  0  0  0  0  0  0
    2.3021   -5.6726   26.0378 C   0  0  0  0  0  0  0  0  0  0  0  0
    7.0880   -4.6163   27.0010 C   0  0  0  0  0  0  0  0  0  0  0  0
    8.3117   -4.3698   27.4436 C   0  0  0  0  0  0  0  0  0  0  0  0
    1.1339   -5.0515   26.3541 C   0  0  0  0  0  0  0  0  0  0  0  0
    4.8080   -8.0362   16.7101 C   0  0  0  0  0  0  0  0  0  0  0  0
   -1.2173   -3.9294   26.9717 O   0  0  0  0  0  0  0  0  0  0  0  0
   -1.0025   -5.0942   27.4586 C   0  0  0  0  0  0  0  0  0  0  0  0
    2.2474   -8.9123   16.6273 C   0  0  0  0  0  0  0  0  0  0  0  0
    4.4957   -9.2636   17.3041 C   0  0  0  0  0  0  0  0  0  0  0  0
   -1.8070   -5.6086   28.1920 O   0  0  0  0  0  0  0  0  0  0  0  0
   10.4296   -5.1799   28.3140 C   0  0  0  0  0  0  0  0  0  0  0  0
    6.6017   -5.9004   26.9187 C   0  0  0  0  0  0  0  0  0  0  0  0
    2.4761   -6.9940   26.4111 N   0  0  0  0  0  0  0  0  0  0  0  0
    9.1353   -5.4053   27.8239 C   0  0  0  0  0  0  0  0  0  0  0  0
    0.9922   -9.3232   16.5995 O   0  0  0  0  0  0  0  0  0  0  0  0
    1.5232   -7.6869   27.1182 C   0  0  0  0  0  0  0  0  0  0  0  0
    8.6878   -6.6715   27.7262 N   0  0  0  0  0  0  0  0  0  0  0  0
    6.9911   -8.2423   27.1808 C   0  0  0  0  0  0  0  0  0  0  0  0
    3.8436   -7.2758   16.0578 C   0  0  0  0  0  0  0  0  0  0  0  0
    3.1882   -9.7190   17.2566 C   0  0  0  0  0  0  0  0  0  0  0  0
    5.3488   -6.1737   26.5092 C   0  0  0  0  0  0  0  0  0  0  0  0
    7.4567   -6.9464   27.2858 C   0  0  0  0  0  0  0  0  0  0  0  0
    0.1921   -5.7592   27.1123 C   0  0  0  0  0  0  0  0  0  0  0  0
    3.5517   -7.7407   25.9711 C   0  0  0  0  0  0  0  0  0  0  0  0
  1  4  4  0
  1 22  4  0
  2 20  4  0
  2 27  4  0
  3 12  4  0
  3 23  4  0
  4 25  4  0
  4 28  1  0
  5  8  4  0
  5 17  4  0
  6  7  4  0
  6 16  4  0
  7 18  4  0
  8 27  4  0
  9 13  4  0
  9 23  4  0
 10 11  1  0
 11 14  2  0
 11 27  1  0
 12 19  1  0
 12 24  4  0
 13 24  4  0
 15 18  1  0
 16 25  4  0
 16 26  4  0
 17 20  4  0
 17 28  1  0
 18 21  4  0
 21 26  4  0
 22 26  4  0
M  END
$$$$

 Created by Python create_sdf_string function

 28 30  0  0  0  0  0  0  0  0999 V2000
    5.7174   -8.4529   26.7190 C   0  0  0  0  0  0  0  0  0  0  0  0
    0.3974   -7.0711   27.5149 C   0  0  0  0  0  0  0  0  0  0  0  0
    2.5338   -7.6891   16.0102 C   0  0  0  0  0  0  0  0  0  0  0  0
    4.8690   -7.4380   26.4151 C   0  0  0  0  0  0  0  0  0  0  0  0
    2.3021   -5.6726   26.0378 C   0  0  0  0  0  0  0  0  0  0  0  0
    7.0880   -4.6163   27.0010 C   0  0  0  0  0  0  0  0  0  0  0  0
    8.3117   -4.3698   27.4436 C   0  0  0  0  0  0  0  0  0  0  0  0
    1.1339   -5.0515   26.3541 C   0  0  0  0  0  0  0  0  0  0  0  0
    4.8080   -8.0362   16.7101 C   0  0  0  0  0  0  0  0  0  0  0  0
   -1.2173   -3.9294   26.9717 O   0  0  0  0  0  0  0  0  0  0  0  0
   -1.0025   -5.0942   27.4586 C   0  0  0  0  0  0  0  0  0  0  0  0
    2.2474   -8.9123   16.6273 C   0  0  0  0  0  0  0  0  0  0  0  0
    4.4957   -9.2636   17.3041 C   0  0  0  0  0  0  0  0  0  0  0  0
   -1.8070   -5.6086   28.1920 O   0  0  0  0  0  0  0  0  0  0  0  0
   10.4296   -5.1799   28.3140 C   0  0  0  0  0  0  0  0  0  0  0  0
    6.6017   -5.9004   26.9187 C   0  0  0  0  0  0  0  0  0  0  0  0
    2.4761   -6.9940   26.4111 N   0  0  0  0  0  0  0  0  0  0  0  0
    9.1353   -5.4053   27.8239 C   0  0  0  0  0  0  0  0  0  0  0  0
    0.9922   -9.3232   16.5995 O   0  0  0  0  0  0  0  0  0  0  0  0
    1.5232   -7.6869   27.1182 C   0  0  0  0  0  0  0  0  0  0  0  0
    8.6878   -6.6715   27.7262 N   0  0  0  0  0  0  0  0  0  0  0  0
    6.9911   -8.2423   27.1808 C   0  0  0  0  0  0  0  0  0  0  0  0
    3.8436   -7.2758   16.0578 C   0  0  0  0  0  0  0  0  0  0  0  0
    3.1882   -9.7190   17.2566 C   0  0  0  0  0  0  0  0  0  0  0  0
    5.3488   -6.1737   26.5092 C   0  0  0  0  0  0  0  0  0  0  0  0
    7.4567   -6.9464   27.2858 C   0  0  0  0  0  0  0  0  0  0  0  0
    0.1921   -5.7592   27.1123 C   0  0  0  0  0  0  0  0  0  0  0  0
    3.5517   -7.7407   25.9711 C   0  0  0  0  0  0  0  0  0  0  0  0
  1  4  4  0
  1 22  4  0
  2 20  4  0
  2 27  4  0
  3 12  4  0
  3 23  4  0
  4 25  4  0
  4 28  1  0
  5  8  4  0
  5 17  4  0
  6  7  4  0
  6 16  4  0
  7 18  4  0
  8 27  4  0
  9 13  4  0
  9 23  4  0
 10 11  1  0
 11 14  2  0
 11 27  1  0
 12 19  1  0
 12 24  4  0
 13 24  4  0
 15 18  1  0
 16 25  4  0
 16 26  4  0
 17 20  4  0
 17 28  1  0
 18 21  4  0
 21 26  4  0
 22 26  4  0
M  END
$$$$

 Created by Python create_sdf_string function

 28 30  0  0  0  0  0  0  0  0999 V2000
    5.7174   -8.4529   26.7190 C   0  0  0  0  0  0  0  0  0  0  0  0
    0.3974   -7.0711   27.5149 C   0  0  0  0  0  0  0  0  0  0  0  0
    2.5338   -7.6891   16.0102 C   0  0  0  0  0  0  0  0  0  0  0  0
    4.8690   -7.4380   26.4151 C   0  0  0  0  0  0  0  0  0  0  0  0
    2.3021   -5.6726   26.0378 C   0  0  0  0  0  0  0  0  0  0  0  0
    7.0880   -4.6163   27.0010 C   0  0  0  0  0  0  0  0  0  0  0  0
    8.3117   -4.3698   27.4436 C   0  0  0  0  0  0  0  0  0  0  0  0
    1.1339   -5.0515   26.3541 C   0  0  0  0  0  0  0  0  0  0  0  0
    4.8080   -8.0362   16.7101 C   0  0  0  0  0  0  0  0  0  0  0  0
   -1.2173   -3.9294   26.9717 O   0  0  0  0  0  0  0  0  0  0  0  0
   -1.0025   -5.0942   27.4586 C   0  0  0  0  0  0  0  0  0  0  0  0
    2.2474   -8.9123   16.6273 C   0  0  0  0  0  0  0  0  0  0  0  0
    4.4957   -9.2636   17.3041 C   0  0  0  0  0  0  0  0  0  0  0  0
   -1.8070   -5.6086   28.1920 O   0  0  0  0  0  0  0  0  0  0  0  0
   10.4296   -5.1799   28.3140 C   0  0  0  0  0  0  0  0  0  0  0  0
    6.6017   -5.9004   26.9187 C   0  0  0  0  0  0  0  0  0  0  0  0
    2.4761   -6.9940   26.4111 N   0  0  0  0  0  0  0  0  0  0  0  0
    9.1353   -5.4053   27.8239 C   0  0  0  0  0  0  0  0  0  0  0  0
    0.9922   -9.3232   16.5995 O   0  0  0  0  0  0  0  0  0  0  0  0
    1.5232   -7.6869   27.1182 C   0  0  0  0  0  0  0  0  0  0  0  0
    8.6878   -6.6715   27.7262 N   0  0  0  0  0  0  0  0  0  0  0  0
    6.9911   -8.2423   27.1808 C   0  0  0  0  0  0  0  0  0  0  0  0
    3.8436   -7.2758   16.0578 C   0  0  0  0  0  0  0  0  0  0  0  0
    3.1882   -9.7190   17.2566 C   0  0  0  0  0  0  0  0  0  0  0  0
    5.3488   -6.1737   26.5092 C   0  0  0  0  0  0  0  0  0  0  0  0
    7.4567   -6.9464   27.2858 C   0  0  0  0  0  0  0  0  0  0  0  0
    0.1921   -5.7592   27.1123 C   0  0  0  0  0  0  0  0  0  0  0  0
    3.5517   -7.7407   25.9711 C   0  0  0  0  0  0  0  0  0  0  0  0
  1  4  4  0
  1 22  4  0
  2 20  4  0
  2 27  4  0
  3 12  4  0
  3 23  4  0
  4 25  4  0
  4 28  1  0
  5  8  4  0
  5 17  4  0
  6  7  4  0
  6 16  4  0
  7 18  4  0
  8 27  4  0
  9 13  4  0
  9 23  4  0
 10 11  1  0
 11 14  2  0
 11 27  1  0
 12 19  1  0
 12 24  4  0
 13 24  4  0
 15 18  1  0
 16 25  4  0
 16 26  4  0
 17 20  4  0
 17 28  1  0
 18 21  4  0
 21 26  4  0
 22 26  4  0
M  END
$$$$

 Created by Python create_sdf_string function

 28 30  0  0  0  0  0  0  0  0999 V2000
    5.7174   -8.4529   26.7190 C   0  0  0  0  0  0  0  0  0  0  0  0
    0.3974   -7.0711   27.5149 C   0  0  0  0  0  0  0  0  0  0  0  0
    2.5338   -7.6891   16.0102 C   0  0  0  0  0  0  0  0  0  0  0  0
    4.8690   -7.4380   26.4151 C   0  0  0  0  0  0  0  0  0  0  0  0
    2.3021   -5.6726   26.0378 C   0  0  0  0  0  0  0  0  0  0  0  0
    7.0880   -4.6163   27.0010 C   0  0  0  0  0  0  0  0  0  0  0  0
    8.3117   -4.3698   27.4436 C   0  0  0  0  0  0  0  0  0  0  0  0
    1.1339   -5.0515   26.3541 C   0  0  0  0  0  0  0  0  0  0  0  0
    4.8080   -8.0362   16.7101 C   0  0  0  0  0  0  0  0  0  0  0  0
   -1.2173   -3.9294   26.9717 O   0  0  0  0  0  0  0  0  0  0  0  0
   -1.0025   -5.0942   27.4586 C   0  0  0  0  0  0  0  0  0  0  0  0
    2.2474   -8.9123   16.6273 C   0  0  0  0  0  0  0  0  0  0  0  0
    4.4957   -9.2636   17.3041 C   0  0  0  0  0  0  0  0  0  0  0  0
   -1.8070   -5.6086   28.1920 O   0  0  0  0  0  0  0  0  0  0  0  0
   10.4296   -5.1799   28.3140 C   0  0  0  0  0  0  0  0  0  0  0  0
    6.6017   -5.9004   26.9187 C   0  0  0  0  0  0  0  0  0  0  0  0
    2.4761   -6.9940   26.4111 N   0  0  0  0  0  0  0  0  0  0  0  0
    9.1353   -5.4053   27.8239 C   0  0  0  0  0  0  0  0  0  0  0  0
    0.9922   -9.3232   16.5995 O   0  0  0  0  0  0  0  0  0  0  0  0
    1.5232   -7.6869   27.1182 C   0  0  0  0  0  0  0  0  0  0  0  0
    8.6878   -6.6715   27.7262 N   0  0  0  0  0  0  0  0  0  0  0  0
    6.9911   -8.2423   27.1808 C   0  0  0  0  0  0  0  0  0  0  0  0
    3.8436   -7.2758   16.0578 C   0  0  0  0  0  0  0  0  0  0  0  0
    3.1882   -9.7190   17.2566 C   0  0  0  0  0  0  0  0  0  0  0  0
    5.3488   -6.1737   26.5092 C   0  0  0  0  0  0  0  0  0  0  0  0
    7.4567   -6.9464   27.2858 C   0  0  0  0  0  0  0  0  0  0  0  0
    0.1921   -5.7592   27.1123 C   0  0  0  0  0  0  0  0  0  0  0  0
    3.5517   -7.7407   25.9711 C   0  0  0  0  0  0  0  0  0  0  0  0
  1  4  4  0
  1 22  4  0
  2 20  4  0
  2 27  4  0
  3 12  4  0
  3 23  4  0
  4 25  4  0
  4 28  1  0
  5  8  4  0
  5 17  4  0
  6  7  4  0
  6 16  4  0
  7 18  4  0
  8 27  4  0
  9 13  4  0
  9 23  4  0
 10 11  1  0
 11 14  2  0
 11 27  1  0
 12 19  1  0
 12 24  4  0
 13 24  4  0
 15 18  1  0
 16 25  4  0
 16 26  4  0
 17 20  4  0
 17 28  1  0
 18 21  4  0
 21 26  4  0
 22 26  4  0
M  END
$$$$

 Created by Python create_sdf_string function

 28 30  0  0  0  0  0  0  0  0999 V2000
    5.7174   -8.4529   26.7190 C   0  0  0  0  0  0  0  0  0  0  0  0
    0.3974   -7.0711   27.5149 C   0  0  0  0  0  0  0  0  0  0  0  0
    2.5338   -7.6891   16.0102 C   0  0  0  0  0  0  0  0  0  0  0  0
    4.8690   -7.4380   26.4151 C   0  0  0  0  0  0  0  0  0  0  0  0
    2.3021   -5.6726   26.0378 C   0  0  0  0  0  0  0  0  0  0  0  0
    7.0880   -4.6163   27.0010 C   0  0  0  0  0  0  0  0  0  0  0  0
    8.3117   -4.3698   27.4436 C   0  0  0  0  0  0  0  0  0  0  0  0
    1.1339   -5.0515   26.3541 C   0  0  0  0  0  0  0  0  0  0  0  0
    4.8080   -8.0362   16.7101 C   0  0  0  0  0  0  0  0  0  0  0  0
   -1.2173   -3.9294   26.9717 O   0  0  0  0  0  0  0  0  0  0  0  0
   -1.0025   -5.0942   27.4586 C   0  0  0  0  0  0  0  0  0  0  0  0
    2.2474   -8.9123   16.6273 C   0  0  0  0  0  0  0  0  0  0  0  0
    4.4957   -9.2636   17.3041 C   0  0  0  0  0  0  0  0  0  0  0  0
   -1.8070   -5.6086   28.1920 O   0  0  0  0  0  0  0  0  0  0  0  0
   10.4296   -5.1799   28.3140 C   0  0  0  0  0  0  0  0  0  0  0  0
    6.6017   -5.9004   26.9187 C   0  0  0  0  0  0  0  0  0  0  0  0
    2.4761   -6.9940   26.4111 N   0  0  0  0  0  0  0  0  0  0  0  0
    9.1353   -5.4053   27.8239 C   0  0  0  0  0  0  0  0  0  0  0  0
    0.9922   -9.3232   16.5995 O   0  0  0  0  0  0  0  0  0  0  0  0
    1.5232   -7.6869   27.1182 C   0  0  0  0  0  0  0  0  0  0  0  0
    8.6878   -6.6715   27.7262 N   0  0  0  0  0  0  0  0  0  0  0  0
    6.9911   -8.2423   27.1808 C   0  0  0  0  0  0  0  0  0  0  0  0
    3.8436   -7.2758   16.0578 C   0  0  0  0  0  0  0  0  0  0  0  0
    3.1882   -9.7190   17.2566 C   0  0  0  0  0  0  0  0  0  0  0  0
    5.3488   -6.1737   26.5092 C   0  0  0  0  0  0  0  0  0  0  0  0
    7.4567   -6.9464   27.2858 C   0  0  0  0  0  0  0  0  0  0  0  0
    0.1921   -5.7592   27.1123 C   0  0  0  0  0  0  0  0  0  0  0  0
    3.5517   -7.7407   25.9711 C   0  0  0  0  0  0  0  0  0  0  0  0
  1  4  4  0
  1 22  4  0
  2 20  4  0
  2 27  4  0
  3 12  4  0
  3 23  4  0
  4 25  4  0
  4 28  1  0
  5  8  4  0
  5 17  4  0
  6  7  4  0
  6 16  4  0
  7 18  4  0
  8 27  4  0
  9 13  4  0
  9 23  4  0
 10 11  1  0
 11 14  2  0
 11 27  1  0
 12 19  1  0
 12 24  4  0
 13 24  4  0
 15 18  1  0
 16 25  4  0
 16 26  4  0
 17 20  4  0
 17 28  1  0
 18 21  4  0
 21 26  4  0
 22 26  4  0
M  END
$$$$

 Created by Python create_sdf_string function

 28 30  0  0  0  0  0  0  0  0999 V2000
    5.7174   -8.4529   26.7190 C   0  0  0  0  0  0  0  0  0  0  0  0
    0.3974   -7.0711   27.5149 C   0  0  0  0  0  0  0  0  0  0  0  0
    2.5338   -7.6891   16.0102 C   0  0  0  0  0  0  0  0  0  0  0  0
    4.8690   -7.4380   26.4151 C   0  0  0  0  0  0  0  0  0  0  0  0
    2.3021   -5.6726   26.0378 C   0  0  0  0  0  0  0  0  0  0  0  0
    7.0880   -4.6163   27.0010 C   0  0  0  0  0  0  0  0  0  0  0  0
    8.3117   -4.3698   27.4436 C   0  0  0  0  0  0  0  0  0  0  0  0
    1.1339   -5.0515   26.3541 C   0  0  0  0  0  0  0  0  0  0  0  0
    4.8080   -8.0362   16.7101 C   0  0  0  0  0  0  0  0  0  0  0  0
   -1.2173   -3.9294   26.9717 O   0  0  0  0  0  0  0  0  0  0  0  0
   -1.0025   -5.0942   27.4586 C   0  0  0  0  0  0  0  0  0  0  0  0
    2.2474   -8.9123   16.6273 C   0  0  0  0  0  0  0  0  0  0  0  0
    4.4957   -9.2636   17.3041 C   0  0  0  0  0  0  0  0  0  0  0  0
   -1.8070   -5.6086   28.1920 O   0  0  0  0  0  0  0  0  0  0  0  0
   10.4296   -5.1799   28.3140 C   0  0  0  0  0  0  0  0  0  0  0  0
    6.6017   -5.9004   26.9187 C   0  0  0  0  0  0  0  0  0  0  0  0
    2.4761   -6.9940   26.4111 N   0  0  0  0  0  0  0  0  0  0  0  0
    9.1353   -5.4053   27.8239 C   0  0  0  0  0  0  0  0  0  0  0  0
    0.9922   -9.3232   16.5995 O   0  0  0  0  0  0  0  0  0  0  0  0
    1.5232   -7.6869   27.1182 C   0  0  0  0  0  0  0  0  0  0  0  0
    8.6878   -6.6715   27.7262 N   0  0  0  0  0  0  0  0  0  0  0  0
    6.9911   -8.2423   27.1808 C   0  0  0  0  0  0  0  0  0  0  0  0
    3.8436   -7.2758   16.0578 C   0  0  0  0  0  0  0  0  0  0  0  0
    3.1882   -9.7190   17.2566 C   0  0  0  0  0  0  0  0  0  0  0  0
    5.3488   -6.1737   26.5092 C   0  0  0  0  0  0  0  0  0  0  0  0
    7.4567   -6.9464   27.2858 C   0  0  0  0  0  0  0  0  0  0  0  0
    0.1921   -5.7592   27.1123 C   0  0  0  0  0  0  0  0  0  0  0  0
    3.5517   -7.7407   25.9711 C   0  0  0  0  0  0  0  0  0  0  0  0
  1  4  4  0
  1 22  4  0
  2 20  4  0
  2 27  4  0
  3 12  4  0
  3 23  4  0
  4 25  4  0
  4 28  1  0
  5  8  4  0
  5 17  4  0
  6  7  4  0
  6 16  4  0
  7 18  4  0
  8 27  4  0
  9 13  4  0
  9 23  4  0
 10 11  1  0
 11 14  2  0
 11 27  1  0
 12 19  1  0
 12 24  4  0
 13 24  4  0
 15 18  1  0
 16 25  4  0
 16 26  4  0
 17 20  4  0
 17 28  1  0
 18 21  4  0
 21 26  4  0
 22 26  4  0
M  END
$$$$

 Created by Python create_sdf_string function

 28 30  0  0  0  0  0  0  0  0999 V2000
    5.7174   -8.4529   26.7190 C   0  0  0  0  0  0  0  0  0  0  0  0
    0.3974   -7.0711   27.5149 C   0  0  0  0  0  0  0  0  0  0  0  0
    2.5338   -7.6891   16.0102 C   0  0  0  0  0  0  0  0  0  0  0  0
    4.8690   -7.4380   26.4151 C   0  0  0  0  0  0  0  0  0  0  0  0
    2.3021   -5.6726   26.0378 C   0  0  0  0  0  0  0  0  0  0  0  0
    7.0880   -4.6163   27.0010 C   0  0  0  0  0  0  0  0  0  0  0  0
    8.3117   -4.3698   27.4436 C   0  0  0  0  0  0  0  0  0  0  0  0
    1.1339   -5.0515   26.3541 C   0  0  0  0  0  0  0  0  0  0  0  0
    4.8080   -8.0362   16.7101 C   0  0  0  0  0  0  0  0  0  0  0  0
   -1.2173   -3.9294   26.9717 O   0  0  0  0  0  0  0  0  0  0  0  0
   -1.0025   -5.0942   27.4586 C   0  0  0  0  0  0  0  0  0  0  0  0
    2.2474   -8.9123   16.6273 C   0  0  0  0  0  0  0  0  0  0  0  0
    4.4957   -9.2636   17.3041 C   0  0  0  0  0  0  0  0  0  0  0  0
   -1.8070   -5.6086   28.1920 O   0  0  0  0  0  0  0  0  0  0  0  0
   10.4296   -5.1799   28.3140 C   0  0  0  0  0  0  0  0  0  0  0  0
    6.6017   -5.9004   26.9187 C   0  0  0  0  0  0  0  0  0  0  0  0
    2.4761   -6.9940   26.4111 N   0  0  0  0  0  0  0  0  0  0  0  0
    9.1353   -5.4053   27.8239 C   0  0  0  0  0  0  0  0  0  0  0  0
    0.9922   -9.3232   16.5995 O   0  0  0  0  0  0  0  0  0  0  0  0
    1.5232   -7.6869   27.1182 C   0  0  0  0  0  0  0  0  0  0  0  0
    8.6878   -6.6715   27.7262 N   0  0  0  0  0  0  0  0  0  0  0  0
    6.9911   -8.2423   27.1808 C   0  0  0  0  0  0  0  0  0  0  0  0
    3.8436   -7.2758   16.0578 C   0  0  0  0  0  0  0  0  0  0  0  0
    3.1882   -9.7190   17.2566 C   0  0  0  0  0  0  0  0  0  0  0  0
    5.3488   -6.1737   26.5092 C   0  0  0  0  0  0  0  0  0  0  0  0
    7.4567   -6.9464   27.2858 C   0  0  0  0  0  0  0  0  0  0  0  0
    0.1921   -5.7592   27.1123 C   0  0  0  0  0  0  0  0  0  0  0  0
    3.5517   -7.7407   25.9711 C   0  0  0  0  0  0  0  0  0  0  0  0
  1  4  4  0
  1 22  4  0
  2 20  4  0
  2 27  4  0
  3 12  4  0
  3 23  4  0
  4 25  4  0
  4 28  1  0
  5  8  4  0
  5 17  4  0
  6  7  4  0
  6 16  4  0
  7 18  4  0
  8 27  4  0
  9 13  4  0
  9 23  4  0
 10 11  1  0
 11 14  2  0
 11 27  1  0
 12 19  1  0
 12 24  4  0
 13 24  4  0
 15 18  1  0
 16 25  4  0
 16 26  4  0
 17 20  4  0
 17 28  1  0
 18 21  4  0
 21 26  4  0
 22 26  4  0
M  END
$$$$

 Created by Python create_sdf_string function

 28 30  0  0  0  0  0  0  0  0999 V2000
    5.7174   -8.4529   26.7190 C   0  0  0  0  0  0  0  0  0  0  0  0
    0.3974   -7.0711   27.5149 C   0  0  0  0  0  0  0  0  0  0  0  0
    2.5338   -7.6891   16.0102 C   0  0  0  0  0  0  0  0  0  0  0  0
    4.8690   -7.4380   26.4151 C   0  0  0  0  0  0  0  0  0  0  0  0
    2.3021   -5.6726   26.0378 C   0  0  0  0  0  0  0  0  0  0  0  0
    7.0880   -4.6163   27.0010 C   0  0  0  0  0  0  0  0  0  0  0  0
    8.3117   -4.3698   27.4436 C   0  0  0  0  0  0  0  0  0  0  0  0
    1.1339   -5.0515   26.3541 C   0  0  0  0  0  0  0  0  0  0  0  0
    4.8080   -8.0362   16.7101 C   0  0  0  0  0  0  0  0  0  0  0  0
   -1.2173   -3.9294   26.9717 O   0  0  0  0  0  0  0  0  0  0  0  0
   -1.0025   -5.0942   27.4586 C   0  0  0  0  0  0  0  0  0  0  0  0
    2.2474   -8.9123   16.6273 C   0  0  0  0  0  0  0  0  0  0  0  0
    4.4957   -9.2636   17.3041 C   0  0  0  0  0  0  0  0  0  0  0  0
   -1.8070   -5.6086   28.1920 O   0  0  0  0  0  0  0  0  0  0  0  0
   10.4296   -5.1799   28.3140 C   0  0  0  0  0  0  0  0  0  0  0  0
    6.6017   -5.9004   26.9187 C   0  0  0  0  0  0  0  0  0  0  0  0
    2.4761   -6.9940   26.4111 N   0  0  0  0  0  0  0  0  0  0  0  0
    9.1353   -5.4053   27.8239 C   0  0  0  0  0  0  0  0  0  0  0  0
    0.9922   -9.3232   16.5995 O   0  0  0  0  0  0  0  0  0  0  0  0
    1.5232   -7.6869   27.1182 C   0  0  0  0  0  0  0  0  0  0  0  0
    8.6878   -6.6715   27.7262 N   0  0  0  0  0  0  0  0  0  0  0  0
    6.9911   -8.2423   27.1808 C   0  0  0  0  0  0  0  0  0  0  0  0
    3.8436   -7.2758   16.0578 C   0  0  0  0  0  0  0  0  0  0  0  0
    3.1882   -9.7190   17.2566 C   0  0  0  0  0  0  0  0  0  0  0  0
    5.3488   -6.1737   26.5092 C   0  0  0  0  0  0  0  0  0  0  0  0
    7.4567   -6.9464   27.2858 C   0  0  0  0  0  0  0  0  0  0  0  0
    0.1921   -5.7592   27.1123 C   0  0  0  0  0  0  0  0  0  0  0  0
    3.5517   -7.7407   25.9711 C   0  0  0  0  0  0  0  0  0  0  0  0
  1  4  4  0
  1 22  4  0
  2 20  4  0
  2 27  4  0
  3 12  4  0
  3 23  4  0
  4 25  4  0
  4 28  1  0
  5  8  4  0
  5 17  4  0
  6  7  4  0
  6 16  4  0
  7 18  4  0
  8 27  4  0
  9 13  4  0
  9 23  4  0
 10 11  1  0
 11 14  2  0
 11 27  1  0
 12 19  1  0
 12 24  4  0
 13 24  4  0
 15 18  1  0
 16 25  4  0
 16 26  4  0
 17 20  4  0
 17 28  1  0
 18 21  4  0
 21 26  4  0
 22 26  4  0
M  END
$$$$

 Created by Python create_sdf_string function

 28 30  0  0  0  0  0  0  0  0999 V2000
    5.7174   -8.4529   26.7190 C   0  0  0  0  0  0  0  0  0  0  0  0
    0.3974   -7.0711   27.5149 C   0  0  0  0  0  0  0  0  0  0  0  0
    2.5338   -7.6891   16.0102 C   0  0  0  0  0  0  0  0  0  0  0  0
    4.8690   -7.4380   26.4151 C   0  0  0  0  0  0  0  0  0  0  0  0
    2.3021   -5.6726   26.0378 C   0  0  0  0  0  0  0  0  0  0  0  0
    7.0880   -4.6163   27.0010 C   0  0  0  0  0  0  0  0  0  0  0  0
    8.3117   -4.3698   27.4436 C   0  0  0  0  0  0  0  0  0  0  0  0
    1.1339   -5.0515   26.3541 C   0  0  0  0  0  0  0  0  0  0  0  0
    4.8080   -8.0362   16.7101 C   0  0  0  0  0  0  0  0  0  0  0  0
   -1.2173   -3.9294   26.9717 O   0  0  0  0  0  0  0  0  0  0  0  0
   -1.0025   -5.0942   27.4586 C   0  0  0  0  0  0  0  0  0  0  0  0
    2.2474   -8.9123   16.6273 C   0  0  0  0  0  0  0  0  0  0  0  0
    4.4957   -9.2636   17.3041 C   0  0  0  0  0  0  0  0  0  0  0  0
   -1.8070   -5.6086   28.1920 O   0  0  0  0  0  0  0  0  0  0  0  0
   10.4296   -5.1799   28.3140 C   0  0  0  0  0  0  0  0  0  0  0  0
    6.6017   -5.9004   26.9187 C   0  0  0  0  0  0  0  0  0  0  0  0
    2.4761   -6.9940   26.4111 N   0  0  0  0  0  0  0  0  0  0  0  0
    9.1353   -5.4053   27.8239 C   0  0  0  0  0  0  0  0  0  0  0  0
    0.9922   -9.3232   16.5995 O   0  0  0  0  0  0  0  0  0  0  0  0
    1.5232   -7.6869   27.1182 C   0  0  0  0  0  0  0  0  0  0  0  0
    8.6878   -6.6715   27.7262 N   0  0  0  0  0  0  0  0  0  0  0  0
    6.9911   -8.2423   27.1808 C   0  0  0  0  0  0  0  0  0  0  0  0
    3.8436   -7.2758   16.0578 C   0  0  0  0  0  0  0  0  0  0  0  0
    3.1882   -9.7190   17.2566 C   0  0  0  0  0  0  0  0  0  0  0  0
    5.3488   -6.1737   26.5092 C   0  0  0  0  0  0  0  0  0  0  0  0
    7.4567   -6.9464   27.2858 C   0  0  0  0  0  0  0  0  0  0  0  0
    0.1921   -5.7592   27.1123 C   0  0  0  0  0  0  0  0  0  0  0  0
    3.5517   -7.7407   25.9711 C   0  0  0  0  0  0  0  0  0  0  0  0
  1  4  4  0
  1 22  4  0
  2 20  4  0
  2 27  4  0
  3 12  4  0
  3 23  4  0
  4 25  4  0
  4 28  1  0
  5  8  4  0
  5 17  4  0
  6  7  4  0
  6 16  4  0
  7 18  4  0
  8 27  4  0
  9 13  4  0
  9 23  4  0
 10 11  1  0
 11 14  2  0
 11 27  1  0
 12 19  1  0
 12 24  4  0
 13 24  4  0
 15 18  1  0
 16 25  4  0
 16 26  4  0
 17 20  4  0
 17 28  1  0
 18 21  4  0
 21 26  4  0
 22 26  4  0
M  END
$$$$

 Created by Python create_sdf_string function

 28 30  0  0  0  0  0  0  0  0999 V2000
    5.7174   -8.4529   26.7190 C   0  0  0  0  0  0  0  0  0  0  0  0
    0.3974   -7.0711   27.5149 C   0  0  0  0  0  0  0  0  0  0  0  0
    2.5338   -7.6891   16.0102 C   0  0  0  0  0  0  0  0  0  0  0  0
    4.8690   -7.4380   26.4151 C   0  0  0  0  0  0  0  0  0  0  0  0
    2.3021   -5.6726   26.0378 C   0  0  0  0  0  0  0  0  0  0  0  0
    7.0880   -4.6163   27.0010 C   0  0  0  0  0  0  0  0  0  0  0  0
    8.3117   -4.3698   27.4436 C   0  0  0  0  0  0  0  0  0  0  0  0
    1.1339   -5.0515   26.3541 C   0  0  0  0  0  0  0  0  0  0  0  0
    4.8080   -8.0362   16.7101 C   0  0  0  0  0  0  0  0  0  0  0  0
   -1.2173   -3.9294   26.9717 O   0  0  0  0  0  0  0  0  0  0  0  0
   -1.0025   -5.0942   27.4586 C   0  0  0  0  0  0  0  0  0  0  0  0
    2.2474   -8.9123   16.6273 C   0  0  0  0  0  0  0  0  0  0  0  0
    4.4957   -9.2636   17.3041 C   0  0  0  0  0  0  0  0  0  0  0  0
   -1.8070   -5.6086   28.1920 O   0  0  0  0  0  0  0  0  0  0  0  0
   10.4296   -5.1799   28.3140 C   0  0  0  0  0  0  0  0  0  0  0  0
    6.6017   -5.9004   26.9187 C   0  0  0  0  0  0  0  0  0  0  0  0
    2.4761   -6.9940   26.4111 N   0  0  0  0  0  0  0  0  0  0  0  0
    9.1353   -5.4053   27.8239 C   0  0  0  0  0  0  0  0  0  0  0  0
    0.9922   -9.3232   16.5995 O   0  0  0  0  0  0  0  0  0  0  0  0
    1.5232   -7.6869   27.1182 C   0  0  0  0  0  0  0  0  0  0  0  0
    8.6878   -6.6715   27.7262 N   0  0  0  0  0  0  0  0  0  0  0  0
    6.9911   -8.2423   27.1808 C   0  0  0  0  0  0  0  0  0  0  0  0
    3.8436   -7.2758   16.0578 C   0  0  0  0  0  0  0  0  0  0  0  0
    3.1882   -9.7190   17.2566 C   0  0  0  0  0  0  0  0  0  0  0  0
    5.3488   -6.1737   26.5092 C   0  0  0  0  0  0  0  0  0  0  0  0
    7.4567   -6.9464   27.2858 C   0  0  0  0  0  0  0  0  0  0  0  0
    0.1921   -5.7592   27.1123 C   0  0  0  0  0  0  0  0  0  0  0  0
    3.5517   -7.7407   25.9711 C   0  0  0  0  0  0  0  0  0  0  0  0
  1  4  4  0
  1 22  4  0
  2 20  4  0
  2 27  4  0
  3 12  4  0
  3 23  4  0
  4 25  4  0
  4 28  1  0
  5  8  4  0
  5 17  4  0
  6  7  4  0
  6 16  4  0
  7 18  4  0
  8 27  4  0
  9 13  4  0
  9 23  4  0
 10 11  1  0
 11 14  2  0
 11 27  1  0
 12 19  1  0
 12 24  4  0
 13 24  4  0
 15 18  1  0
 16 25  4  0
 16 26  4  0
 17 20  4  0
 17 28  1  0
 18 21  4  0
 21 26  4  0
 22 26  4  0
M  END
$$$$

 Created by Python create_sdf_string function

 28 30  0  0  0  0  0  0  0  0999 V2000
    5.7174   -8.4529   26.7190 C   0  0  0  0  0  0  0  0  0  0  0  0
    0.3974   -7.0711   27.5149 C   0  0  0  0  0  0  0  0  0  0  0  0
    2.5338   -7.6891   16.0102 C   0  0  0  0  0  0  0  0  0  0  0  0
    4.8690   -7.4380   26.4151 C   0  0  0  0  0  0  0  0  0  0  0  0
    2.3021   -5.6726   26.0378 C   0  0  0  0  0  0  0  0  0  0  0  0
    7.0880   -4.6163   27.0010 C   0  0  0  0  0  0  0  0  0  0  0  0
    8.3117   -4.3698   27.4436 C   0  0  0  0  0  0  0  0  0  0  0  0
    1.1339   -5.0515   26.3541 C   0  0  0  0  0  0  0  0  0  0  0  0
    4.8080   -8.0362   16.7101 C   0  0  0  0  0  0  0  0  0  0  0  0
   -1.2173   -3.9294   26.9717 O   0  0  0  0  0  0  0  0  0  0  0  0
   -1.0025   -5.0942   27.4586 C   0  0  0  0  0  0  0  0  0  0  0  0
    2.2474   -8.9123   16.6273 C   0  0  0  0  0  0  0  0  0  0  0  0
    4.4957   -9.2636   17.3041 C   0  0  0  0  0  0  0  0  0  0  0  0
   -1.8070   -5.6086   28.1920 O   0  0  0  0  0  0  0  0  0  0  0  0
   10.4296   -5.1799   28.3140 C   0  0  0  0  0  0  0  0  0  0  0  0
    6.6017   -5.9004   26.9187 C   0  0  0  0  0  0  0  0  0  0  0  0
    2.4761   -6.9940   26.4111 N   0  0  0  0  0  0  0  0  0  0  0  0
    9.1353   -5.4053   27.8239 C   0  0  0  0  0  0  0  0  0  0  0  0
    0.9922   -9.3232   16.5995 O   0  0  0  0  0  0  0  0  0  0  0  0
    1.5232   -7.6869   27.1182 C   0  0  0  0  0  0  0  0  0  0  0  0
    8.6878   -6.6715   27.7262 N   0  0  0  0  0  0  0  0  0  0  0  0
    6.9911   -8.2423   27.1808 C   0  0  0  0  0  0  0  0  0  0  0  0
    3.8436   -7.2758   16.0578 C   0  0  0  0  0  0  0  0  0  0  0  0
    3.1882   -9.7190   17.2566 C   0  0  0  0  0  0  0  0  0  0  0  0
    5.3488   -6.1737   26.5092 C   0  0  0  0  0  0  0  0  0  0  0  0
    7.4567   -6.9464   27.2858 C   0  0  0  0  0  0  0  0  0  0  0  0
    0.1921   -5.7592   27.1123 C   0  0  0  0  0  0  0  0  0  0  0  0
    3.5517   -7.7407   25.9711 C   0  0  0  0  0  0  0  0  0  0  0  0
  1  4  4  0
  1 22  4  0
  2 20  4  0
  2 27  4  0
  3 12  4  0
  3 23  4  0
  4 25  4  0
  4 28  1  0
  5  8  4  0
  5 17  4  0
  6  7  4  0
  6 16  4  0
  7 18  4  0
  8 27  4  0
  9 13  4  0
  9 23  4  0
 10 11  1  0
 11 14  2  0
 11 27  1  0
 12 19  1  0
 12 24  4  0
 13 24  4  0
 15 18  1  0
 16 25  4  0
 16 26  4  0
 17 20  4  0
 17 28  1  0
 18 21  4  0
 21 26  4  0
 22 26  4  0
M  END
$$$$

 Created by Python create_sdf_string function

 28 30  0  0  0  0  0  0  0  0999 V2000
    5.7174   -8.4529   26.7190 C   0  0  0  0  0  0  0  0  0  0  0  0
    0.3974   -7.0711   27.5149 C   0  0  0  0  0  0  0  0  0  0  0  0
    2.5338   -7.6891   16.0102 C   0  0  0  0  0  0  0  0  0  0  0  0
    4.8690   -7.4380   26.4151 C   0  0  0  0  0  0  0  0  0  0  0  0
    2.3021   -5.6726   26.0378 C   0  0  0  0  0  0  0  0  0  0  0  0
    7.0880   -4.6163   27.0010 C   0  0  0  0  0  0  0  0  0  0  0  0
    8.3117   -4.3698   27.4436 C   0  0  0  0  0  0  0  0  0  0  0  0
    1.1339   -5.0515   26.3541 C   0  0  0  0  0  0  0  0  0  0  0  0
    4.8080   -8.0362   16.7101 C   0  0  0  0  0  0  0  0  0  0  0  0
   -1.2173   -3.9294   26.9717 O   0  0  0  0  0  0  0  0  0  0  0  0
   -1.0025   -5.0942   27.4586 C   0  0  0  0  0  0  0  0  0  0  0  0
    2.2474   -8.9123   16.6273 C   0  0  0  0  0  0  0  0  0  0  0  0
    4.4957   -9.2636   17.3041 C   0  0  0  0  0  0  0  0  0  0  0  0
   -1.8070   -5.6086   28.1920 O   0  0  0  0  0  0  0  0  0  0  0  0
   10.4296   -5.1799   28.3140 C   0  0  0  0  0  0  0  0  0  0  0  0
    6.6017   -5.9004   26.9187 C   0  0  0  0  0  0  0  0  0  0  0  0
    2.4761   -6.9940   26.4111 N   0  0  0  0  0  0  0  0  0  0  0  0
    9.1353   -5.4053   27.8239 C   0  0  0  0  0  0  0  0  0  0  0  0
    0.9922   -9.3232   16.5995 O   0  0  0  0  0  0  0  0  0  0  0  0
    1.5232   -7.6869   27.1182 C   0  0  0  0  0  0  0  0  0  0  0  0
    8.6878   -6.6715   27.7262 N   0  0  0  0  0  0  0  0  0  0  0  0
    6.9911   -8.2423   27.1808 C   0  0  0  0  0  0  0  0  0  0  0  0
    3.8436   -7.2758   16.0578 C   0  0  0  0  0  0  0  0  0  0  0  0
    3.1882   -9.7190   17.2566 C   0  0  0  0  0  0  0  0  0  0  0  0
    5.3488   -6.1737   26.5092 C   0  0  0  0  0  0  0  0  0  0  0  0
    7.4567   -6.9464   27.2858 C   0  0  0  0  0  0  0  0  0  0  0  0
    0.1921   -5.7592   27.1123 C   0  0  0  0  0  0  0  0  0  0  0  0
    3.5517   -7.7407   25.9711 C   0  0  0  0  0  0  0  0  0  0  0  0
  1  4  4  0
  1 22  4  0
  2 20  4  0
  2 27  4  0
  3 12  4  0
  3 23  4  0
  4 25  4  0
  4 28  1  0
  5  8  4  0
  5 17  4  0
  6  7  4  0
  6 16  4  0
  7 18  4  0
  8 27  4  0
  9 13  4  0
  9 23  4  0
 10 11  1  0
 11 14  2  0
 11 27  1  0
 12 19  1  0
 12 24  4  0
 13 24  4  0
 15 18  1  0
 16 25  4  0
 16 26  4  0
 17 20  4  0
 17 28  1  0
 18 21  4  0
 21 26  4  0
 22 26  4  0
M  END
$$$$

 Created by Python create_sdf_string function

 28 30  0  0  0  0  0  0  0  0999 V2000
    5.7174   -8.4529   26.7190 C   0  0  0  0  0  0  0  0  0  0  0  0
    0.3974   -7.0711   27.5149 C   0  0  0  0  0  0  0  0  0  0  0  0
    2.5338   -7.6891   16.0102 C   0  0  0  0  0  0  0  0  0  0  0  0
    4.8690   -7.4380   26.4151 C   0  0  0  0  0  0  0  0  0  0  0  0
    2.3021   -5.6726   26.0378 C   0  0  0  0  0  0  0  0  0  0  0  0
    7.0880   -4.6163   27.0010 C   0  0  0  0  0  0  0  0  0  0  0  0
    8.3117   -4.3698   27.4436 C   0  0  0  0  0  0  0  0  0  0  0  0
    1.1339   -5.0515   26.3541 C   0  0  0  0  0  0  0  0  0  0  0  0
    4.8080   -8.0362   16.7101 C   0  0  0  0  0  0  0  0  0  0  0  0
   -1.2173   -3.9294   26.9717 O   0  0  0  0  0  0  0  0  0  0  0  0
   -1.0025   -5.0942   27.4586 C   0  0  0  0  0  0  0  0  0  0  0  0
    2.2474   -8.9123   16.6273 C   0  0  0  0  0  0  0  0  0  0  0  0
    4.4957   -9.2636   17.3041 C   0  0  0  0  0  0  0  0  0  0  0  0
   -1.8070   -5.6086   28.1920 O   0  0  0  0  0  0  0  0  0  0  0  0
   10.4296   -5.1799   28.3140 C   0  0  0  0  0  0  0  0  0  0  0  0
    6.6017   -5.9004   26.9187 C   0  0  0  0  0  0  0  0  0  0  0  0
    2.4761   -6.9940   26.4111 N   0  0  0  0  0  0  0  0  0  0  0  0
    9.1353   -5.4053   27.8239 C   0  0  0  0  0  0  0  0  0  0  0  0
    0.9922   -9.3232   16.5995 O   0  0  0  0  0  0  0  0  0  0  0  0
    1.5232   -7.6869   27.1182 C   0  0  0  0  0  0  0  0  0  0  0  0
    8.6878   -6.6715   27.7262 N   0  0  0  0  0  0  0  0  0  0  0  0
    6.9911   -8.2423   27.1808 C   0  0  0  0  0  0  0  0  0  0  0  0
    3.8436   -7.2758   16.0578 C   0  0  0  0  0  0  0  0  0  0  0  0
    3.1882   -9.7190   17.2566 C   0  0  0  0  0  0  0  0  0  0  0  0
    5.3488   -6.1737   26.5092 C   0  0  0  0  0  0  0  0  0  0  0  0
    7.4567   -6.9464   27.2858 C   0  0  0  0  0  0  0  0  0  0  0  0
    0.1921   -5.7592   27.1123 C   0  0  0  0  0  0  0  0  0  0  0  0
    3.5517   -7.7407   25.9711 C   0  0  0  0  0  0  0  0  0  0  0  0
  1  4  4  0
  1 22  4  0
  2 20  4  0
  2 27  4  0
  3 12  4  0
  3 23  4  0
  4 25  4  0
  4 28  1  0
  5  8  4  0
  5 17  4  0
  6  7  4  0
  6 16  4  0
  7 18  4  0
  8 27  4  0
  9 13  4  0
  9 23  4  0
 10 11  1  0
 11 14  2  0
 11 27  1  0
 12 19  1  0
 12 24  4  0
 13 24  4  0
 15 18  1  0
 16 25  4  0
 16 26  4  0
 17 20  4  0
 17 28  1  0
 18 21  4  0
 21 26  4  0
 22 26  4  0
M  END
$$$$

 Created by Python create_sdf_string function

 28 30  0  0  0  0  0  0  0  0999 V2000
    5.7174   -8.4529   26.7190 C   0  0  0  0  0  0  0  0  0  0  0  0
    0.3974   -7.0711   27.5149 C   0  0  0  0  0  0  0  0  0  0  0  0
    2.5338   -7.6891   16.0102 C   0  0  0  0  0  0  0  0  0  0  0  0
    4.8690   -7.4380   26.4151 C   0  0  0  0  0  0  0  0  0  0  0  0
    2.3021   -5.6726   26.0378 C   0  0  0  0  0  0  0  0  0  0  0  0
    7.0880   -4.6163   27.0010 C   0  0  0  0  0  0  0  0  0  0  0  0
    8.3117   -4.3698   27.4436 C   0  0  0  0  0  0  0  0  0  0  0  0
    1.1339   -5.0515   26.3541 C   0  0  0  0  0  0  0  0  0  0  0  0
    4.8080   -8.0362   16.7101 C   0  0  0  0  0  0  0  0  0  0  0  0
   -1.2173   -3.9294   26.9717 O   0  0  0  0  0  0  0  0  0  0  0  0
   -1.0025   -5.0942   27.4586 C   0  0  0  0  0  0  0  0  0  0  0  0
    2.2474   -8.9123   16.6273 C   0  0  0  0  0  0  0  0  0  0  0  0
    4.4957   -9.2636   17.3041 C   0  0  0  0  0  0  0  0  0  0  0  0
   -1.8070   -5.6086   28.1920 O   0  0  0  0  0  0  0  0  0  0  0  0
   10.4296   -5.1799   28.3140 C   0  0  0  0  0  0  0  0  0  0  0  0
    6.6017   -5.9004   26.9187 C   0  0  0  0  0  0  0  0  0  0  0  0
    2.4761   -6.9940   26.4111 N   0  0  0  0  0  0  0  0  0  0  0  0
    9.1353   -5.4053   27.8239 C   0  0  0  0  0  0  0  0  0  0  0  0
    0.9922   -9.3232   16.5995 O   0  0  0  0  0  0  0  0  0  0  0  0
    1.5232   -7.6869   27.1182 C   0  0  0  0  0  0  0  0  0  0  0  0
    8.6878   -6.6715   27.7262 N   0  0  0  0  0  0  0  0  0  0  0  0
    6.9911   -8.2423   27.1808 C   0  0  0  0  0  0  0  0  0  0  0  0
    3.8436   -7.2758   16.0578 C   0  0  0  0  0  0  0  0  0  0  0  0
    3.1882   -9.7190   17.2566 C   0  0  0  0  0  0  0  0  0  0  0  0
    5.3488   -6.1737   26.5092 C   0  0  0  0  0  0  0  0  0  0  0  0
    7.4567   -6.9464   27.2858 C   0  0  0  0  0  0  0  0  0  0  0  0
    0.1921   -5.7592   27.1123 C   0  0  0  0  0  0  0  0  0  0  0  0
    3.5517   -7.7407   25.9711 C   0  0  0  0  0  0  0  0  0  0  0  0
  1  4  4  0
  1 22  4  0
  2 20  4  0
  2 27  4  0
  3 12  4  0
  3 23  4  0
  4 25  4  0
  4 28  1  0
  5  8  4  0
  5 17  4  0
  6  7  4  0
  6 16  4  0
  7 18  4  0
  8 27  4  0
  9 13  4  0
  9 23  4  0
 10 11  1  0
 11 14  2  0
 11 27  1  0
 12 19  1  0
 12 24  4  0
 13 24  4  0
 15 18  1  0
 16 25  4  0
 16 26  4  0
 17 20  4  0
 17 28  1  0
 18 21  4  0
 21 26  4  0
 22 26  4  0
M  END
$$$$

 Created by Python create_sdf_string function

 28 30  0  0  0  0  0  0  0  0999 V2000
    5.7174   -8.4529   26.7190 C   0  0  0  0  0  0  0  0  0  0  0  0
    0.3974   -7.0711   27.5149 C   0  0  0  0  0  0  0  0  0  0  0  0
    2.5338   -7.6891   16.0102 C   0  0  0  0  0  0  0  0  0  0  0  0
    4.8690   -7.4380   26.4151 C   0  0  0  0  0  0  0  0  0  0  0  0
    2.3021   -5.6726   26.0378 C   0  0  0  0  0  0  0  0  0  0  0  0
    7.0880   -4.6163   27.0010 C   0  0  0  0  0  0  0  0  0  0  0  0
    8.3117   -4.3698   27.4436 C   0  0  0  0  0  0  0  0  0  0  0  0
    1.1339   -5.0515   26.3541 C   0  0  0  0  0  0  0  0  0  0  0  0
    4.8080   -8.0362   16.7101 C   0  0  0  0  0  0  0  0  0  0  0  0
   -1.2173   -3.9294   26.9717 O   0  0  0  0  0  0  0  0  0  0  0  0
   -1.0025   -5.0942   27.4586 C   0  0  0  0  0  0  0  0  0  0  0  0
    2.2474   -8.9123   16.6273 C   0  0  0  0  0  0  0  0  0  0  0  0
    4.4957   -9.2636   17.3041 C   0  0  0  0  0  0  0  0  0  0  0  0
   -1.8070   -5.6086   28.1920 O   0  0  0  0  0  0  0  0  0  0  0  0
   10.4296   -5.1799   28.3140 C   0  0  0  0  0  0  0  0  0  0  0  0
    6.6017   -5.9004   26.9187 C   0  0  0  0  0  0  0  0  0  0  0  0
    2.4761   -6.9940   26.4111 N   0  0  0  0  0  0  0  0  0  0  0  0
    9.1353   -5.4053   27.8239 C   0  0  0  0  0  0  0  0  0  0  0  0
    0.9922   -9.3232   16.5995 O   0  0  0  0  0  0  0  0  0  0  0  0
    1.5232   -7.6869   27.1182 C   0  0  0  0  0  0  0  0  0  0  0  0
    8.6878   -6.6715   27.7262 N   0  0  0  0  0  0  0  0  0  0  0  0
    6.9911   -8.2423   27.1808 C   0  0  0  0  0  0  0  0  0  0  0  0
    3.8436   -7.2758   16.0578 C   0  0  0  0  0  0  0  0  0  0  0  0
    3.1882   -9.7190   17.2566 C   0  0  0  0  0  0  0  0  0  0  0  0
    5.3488   -6.1737   26.5092 C   0  0  0  0  0  0  0  0  0  0  0  0
    7.4567   -6.9464   27.2858 C   0  0  0  0  0  0  0  0  0  0  0  0
    0.1921   -5.7592   27.1123 C   0  0  0  0  0  0  0  0  0  0  0  0
    3.5517   -7.7407   25.9711 C   0  0  0  0  0  0  0  0  0  0  0  0
  1  4  4  0
  1 22  4  0
  2 20  4  0
  2 27  4  0
  3 12  4  0
  3 23  4  0
  4 25  4  0
  4 28  1  0
  5  8  4  0
  5 17  4  0
  6  7  4  0
  6 16  4  0
  7 18  4  0
  8 27  4  0
  9 13  4  0
  9 23  4  0
 10 11  1  0
 11 14  2  0
 11 27  1  0
 12 19  1  0
 12 24  4  0
 13 24  4  0
 15 18  1  0
 16 25  4  0
 16 26  4  0
 17 20  4  0
 17 28  1  0
 18 21  4  0
 21 26  4  0
 22 26  4  0
M  END
$$$$

 Created by Python create_sdf_string function

 28 30  0  0  0  0  0  0  0  0999 V2000
    5.7174   -8.4529   26.7190 C   0  0  0  0  0  0  0  0  0  0  0  0
    0.3974   -7.0711   27.5149 C   0  0  0  0  0  0  0  0  0  0  0  0
    2.5338   -7.6891   16.0102 C   0  0  0  0  0  0  0  0  0  0  0  0
    4.8690   -7.4380   26.4151 C   0  0  0  0  0  0  0  0  0  0  0  0
    2.3021   -5.6726   26.0378 C   0  0  0  0  0  0  0  0  0  0  0  0
    7.0880   -4.6163   27.0010 C   0  0  0  0  0  0  0  0  0  0  0  0
    8.3117   -4.3698   27.4436 C   0  0  0  0  0  0  0  0  0  0  0  0
    1.1339   -5.0515   26.3541 C   0  0  0  0  0  0  0  0  0  0  0  0
    4.8080   -8.0362   16.7101 C   0  0  0  0  0  0  0  0  0  0  0  0
   -1.2173   -3.9294   26.9717 O   0  0  0  0  0  0  0  0  0  0  0  0
   -1.0025   -5.0942   27.4586 C   0  0  0  0  0  0  0  0  0  0  0  0
    2.2474   -8.9123   16.6273 C   0  0  0  0  0  0  0  0  0  0  0  0
    4.4957   -9.2636   17.3041 C   0  0  0  0  0  0  0  0  0  0  0  0
   -1.8070   -5.6086   28.1920 O   0  0  0  0  0  0  0  0  0  0  0  0
   10.4296   -5.1799   28.3140 C   0  0  0  0  0  0  0  0  0  0  0  0
    6.6017   -5.9004   26.9187 C   0  0  0  0  0  0  0  0  0  0  0  0
    2.4761   -6.9940   26.4111 N   0  0  0  0  0  0  0  0  0  0  0  0
    9.1353   -5.4053   27.8239 C   0  0  0  0  0  0  0  0  0  0  0  0
    0.9922   -9.3232   16.5995 O   0  0  0  0  0  0  0  0  0  0  0  0
    1.5232   -7.6869   27.1182 C   0  0  0  0  0  0  0  0  0  0  0  0
    8.6878   -6.6715   27.7262 N   0  0  0  0  0  0  0  0  0  0  0  0
    6.9911   -8.2423   27.1808 C   0  0  0  0  0  0  0  0  0  0  0  0
    3.8436   -7.2758   16.0578 C   0  0  0  0  0  0  0  0  0  0  0  0
    3.1882   -9.7190   17.2566 C   0  0  0  0  0  0  0  0  0  0  0  0
    5.3488   -6.1737   26.5092 C   0  0  0  0  0  0  0  0  0  0  0  0
    7.4567   -6.9464   27.2858 C   0  0  0  0  0  0  0  0  0  0  0  0
    0.1921   -5.7592   27.1123 C   0  0  0  0  0  0  0  0  0  0  0  0
    3.5517   -7.7407   25.9711 C   0  0  0  0  0  0  0  0  0  0  0  0
  1  4  4  0
  1 22  4  0
  2 20  4  0
  2 27  4  0
  3 12  4  0
  3 23  4  0
  4 25  4  0
  4 28  1  0
  5  8  4  0
  5 17  4  0
  6  7  4  0
  6 16  4  0
  7 18  4  0
  8 27  4  0
  9 13  4  0
  9 23  4  0
 10 11  1  0
 11 14  2  0
 11 27  1  0
 12 19  1  0
 12 24  4  0
 13 24  4  0
 15 18  1  0
 16 25  4  0
 16 26  4  0
 17 20  4  0
 17 28  1  0
 18 21  4  0
 21 26  4  0
 22 26  4  0
M  END
$$$$

 Created by Python create_sdf_string function

 28 30  0  0  0  0  0  0  0  0999 V2000
    5.7174   -8.4529   26.7190 C   0  0  0  0  0  0  0  0  0  0  0  0
    0.3974   -7.0711   27.5149 C   0  0  0  0  0  0  0  0  0  0  0  0
    2.5338   -7.6891   16.0102 C   0  0  0  0  0  0  0  0  0  0  0  0
    4.8690   -7.4380   26.4151 C   0  0  0  0  0  0  0  0  0  0  0  0
    2.3021   -5.6726   26.0378 C   0  0  0  0  0  0  0  0  0  0  0  0
    7.0880   -4.6163   27.0010 C   0  0  0  0  0  0  0  0  0  0  0  0
    8.3117   -4.3698   27.4436 C   0  0  0  0  0  0  0  0  0  0  0  0
    1.1339   -5.0515   26.3541 C   0  0  0  0  0  0  0  0  0  0  0  0
    4.8080   -8.0362   16.7101 C   0  0  0  0  0  0  0  0  0  0  0  0
   -1.2173   -3.9294   26.9717 O   0  0  0  0  0  0  0  0  0  0  0  0
   -1.0025   -5.0942   27.4586 C   0  0  0  0  0  0  0  0  0  0  0  0
    2.2474   -8.9123   16.6273 C   0  0  0  0  0  0  0  0  0  0  0  0
    4.4957   -9.2636   17.3041 C   0  0  0  0  0  0  0  0  0  0  0  0
   -1.8070   -5.6086   28.1920 O   0  0  0  0  0  0  0  0  0  0  0  0
   10.4296   -5.1799   28.3140 C   0  0  0  0  0  0  0  0  0  0  0  0
    6.6017   -5.9004   26.9187 C   0  0  0  0  0  0  0  0  0  0  0  0
    2.4761   -6.9940   26.4111 N   0  0  0  0  0  0  0  0  0  0  0  0
    9.1353   -5.4053   27.8239 C   0  0  0  0  0  0  0  0  0  0  0  0
    0.9922   -9.3232   16.5995 O   0  0  0  0  0  0  0  0  0  0  0  0
    1.5232   -7.6869   27.1182 C   0  0  0  0  0  0  0  0  0  0  0  0
    8.6878   -6.6715   27.7262 N   0  0  0  0  0  0  0  0  0  0  0  0
    6.9911   -8.2423   27.1808 C   0  0  0  0  0  0  0  0  0  0  0  0
    3.8436   -7.2758   16.0578 C   0  0  0  0  0  0  0  0  0  0  0  0
    3.1882   -9.7190   17.2566 C   0  0  0  0  0  0  0  0  0  0  0  0
    5.3488   -6.1737   26.5092 C   0  0  0  0  0  0  0  0  0  0  0  0
    7.4567   -6.9464   27.2858 C   0  0  0  0  0  0  0  0  0  0  0  0
    0.1921   -5.7592   27.1123 C   0  0  0  0  0  0  0  0  0  0  0  0
    3.5517   -7.7407   25.9711 C   0  0  0  0  0  0  0  0  0  0  0  0
  1  4  4  0
  1 22  4  0
  2 20  4  0
  2 27  4  0
  3 12  4  0
  3 23  4  0
  4 25  4  0
  4 28  1  0
  5  8  4  0
  5 17  4  0
  6  7  4  0
  6 16  4  0
  7 18  4  0
  8 27  4  0
  9 13  4  0
  9 23  4  0
 10 11  1  0
 11 14  2  0
 11 27  1  0
 12 19  1  0
 12 24  4  0
 13 24  4  0
 15 18  1  0
 16 25  4  0
 16 26  4  0
 17 20  4  0
 17 28  1  0
 18 21  4  0
 21 26  4  0
 22 26  4  0
M  END
$$$$

 Created by Python create_sdf_string function

 28 30  0  0  0  0  0  0  0  0999 V2000
    5.7174   -8.4529   26.7190 C   0  0  0  0  0  0  0  0  0  0  0  0
    0.3974   -7.0711   27.5149 C   0  0  0  0  0  0  0  0  0  0  0  0
    2.5338   -7.6891   16.0102 C   0  0  0  0  0  0  0  0  0  0  0  0
    4.8690   -7.4380   26.4151 C   0  0  0  0  0  0  0  0  0  0  0  0
    2.3021   -5.6726   26.0378 C   0  0  0  0  0  0  0  0  0  0  0  0
    7.0880   -4.6163   27.0010 C   0  0  0  0  0  0  0  0  0  0  0  0
    8.3117   -4.3698   27.4436 C   0  0  0  0  0  0  0  0  0  0  0  0
    1.1339   -5.0515   26.3541 C   0  0  0  0  0  0  0  0  0  0  0  0
    4.8080   -8.0362   16.7101 C   0  0  0  0  0  0  0  0  0  0  0  0
   -1.2173   -3.9294   26.9717 O   0  0  0  0  0  0  0  0  0  0  0  0
   -1.0025   -5.0942   27.4586 C   0  0  0  0  0  0  0  0  0  0  0  0
    2.2474   -8.9123   16.6273 C   0  0  0  0  0  0  0  0  0  0  0  0
    4.4957   -9.2636   17.3041 C   0  0  0  0  0  0  0  0  0  0  0  0
   -1.8070   -5.6086   28.1920 O   0  0  0  0  0  0  0  0  0  0  0  0
   10.4296   -5.1799   28.3140 C   0  0  0  0  0  0  0  0  0  0  0  0
    6.6017   -5.9004   26.9187 C   0  0  0  0  0  0  0  0  0  0  0  0
    2.4761   -6.9940   26.4111 N   0  0  0  0  0  0  0  0  0  0  0  0
    9.1353   -5.4053   27.8239 C   0  0  0  0  0  0  0  0  0  0  0  0
    0.9922   -9.3232   16.5995 O   0  0  0  0  0  0  0  0  0  0  0  0
    1.5232   -7.6869   27.1182 C   0  0  0  0  0  0  0  0  0  0  0  0
    8.6878   -6.6715   27.7262 N   0  0  0  0  0  0  0  0  0  0  0  0
    6.9911   -8.2423   27.1808 C   0  0  0  0  0  0  0  0  0  0  0  0
    3.8436   -7.2758   16.0578 C   0  0  0  0  0  0  0  0  0  0  0  0
    3.1882   -9.7190   17.2566 C   0  0  0  0  0  0  0  0  0  0  0  0
    5.3488   -6.1737   26.5092 C   0  0  0  0  0  0  0  0  0  0  0  0
    7.4567   -6.9464   27.2858 C   0  0  0  0  0  0  0  0  0  0  0  0
    0.1921   -5.7592   27.1123 C   0  0  0  0  0  0  0  0  0  0  0  0
    3.5517   -7.7407   25.9711 C   0  0  0  0  0  0  0  0  0  0  0  0
  1  4  4  0
  1 22  4  0
  2 20  4  0
  2 27  4  0
  3 12  4  0
  3 23  4  0
  4 25  4  0
  4 28  1  0
  5  8  4  0
  5 17  4  0
  6  7  4  0
  6 16  4  0
  7 18  4  0
  8 27  4  0
  9 13  4  0
  9 23  4  0
 10 11  1  0
 11 14  2  0
 11 27  1  0
 12 19  1  0
 12 24  4  0
 13 24  4  0
 15 18  1  0
 16 25  4  0
 16 26  4  0
 17 20  4  0
 17 28  1  0
 18 21  4  0
 21 26  4  0
 22 26  4  0
M  END
$$$$

 Created by Python create_sdf_string function

 28 30  0  0  0  0  0  0  0  0999 V2000
    5.7174   -8.4529   26.7190 C   0  0  0  0  0  0  0  0  0  0  0  0
    0.3974   -7.0711   27.5149 C   0  0  0  0  0  0  0  0  0  0  0  0
    2.5338   -7.6891   16.0102 C   0  0  0  0  0  0  0  0  0  0  0  0
    4.8690   -7.4380   26.4151 C   0  0  0  0  0  0  0  0  0  0  0  0
    2.3021   -5.6726   26.0378 C   0  0  0  0  0  0  0  0  0  0  0  0
    7.0880   -4.6163   27.0010 C   0  0  0  0  0  0  0  0  0  0  0  0
    8.3117   -4.3698   27.4436 C   0  0  0  0  0  0  0  0  0  0  0  0
    1.1339   -5.0515   26.3541 C   0  0  0  0  0  0  0  0  0  0  0  0
    4.8080   -8.0362   16.7101 C   0  0  0  0  0  0  0  0  0  0  0  0
   -1.2173   -3.9294   26.9717 O   0  0  0  0  0  0  0  0  0  0  0  0
   -1.0025   -5.0942   27.4586 C   0  0  0  0  0  0  0  0  0  0  0  0
    2.2474   -8.9123   16.6273 C   0  0  0  0  0  0  0  0  0  0  0  0
    4.4957   -9.2636   17.3041 C   0  0  0  0  0  0  0  0  0  0  0  0
   -1.8070   -5.6086   28.1920 O   0  0  0  0  0  0  0  0  0  0  0  0
   10.4296   -5.1799   28.3140 C   0  0  0  0  0  0  0  0  0  0  0  0
    6.6017   -5.9004   26.9187 C   0  0  0  0  0  0  0  0  0  0  0  0
    2.4761   -6.9940   26.4111 N   0  0  0  0  0  0  0  0  0  0  0  0
    9.1353   -5.4053   27.8239 C   0  0  0  0  0  0  0  0  0  0  0  0
    0.9922   -9.3232   16.5995 O   0  0  0  0  0  0  0  0  0  0  0  0
    1.5232   -7.6869   27.1182 C   0  0  0  0  0  0  0  0  0  0  0  0
    8.6878   -6.6715   27.7262 N   0  0  0  0  0  0  0  0  0  0  0  0
    6.9911   -8.2423   27.1808 C   0  0  0  0  0  0  0  0  0  0  0  0
    3.8436   -7.2758   16.0578 C   0  0  0  0  0  0  0  0  0  0  0  0
    3.1882   -9.7190   17.2566 C   0  0  0  0  0  0  0  0  0  0  0  0
    5.3488   -6.1737   26.5092 C   0  0  0  0  0  0  0  0  0  0  0  0
    7.4567   -6.9464   27.2858 C   0  0  0  0  0  0  0  0  0  0  0  0
    0.1921   -5.7592   27.1123 C   0  0  0  0  0  0  0  0  0  0  0  0
    3.5517   -7.7407   25.9711 C   0  0  0  0  0  0  0  0  0  0  0  0
  1  4  4  0
  1 22  4  0
  2 20  4  0
  2 27  4  0
  3 12  4  0
  3 23  4  0
  4 25  4  0
  4 28  1  0
  5  8  4  0
  5 17  4  0
  6  7  4  0
  6 16  4  0
  7 18  4  0
  8 27  4  0
  9 13  4  0
  9 23  4  0
 10 11  1  0
 11 14  2  0
 11 27  1  0
 12 19  1  0
 12 24  4  0
 13 24  4  0
 15 18  1  0
 16 25  4  0
 16 26  4  0
 17 20  4  0
 17 28  1  0
 18 21  4  0
 21 26  4  0
 22 26  4  0
M  END
$$$$

 Created by Python create_sdf_string function

 28 30  0  0  0  0  0  0  0  0999 V2000
    5.7174   -8.4529   26.7190 C   0  0  0  0  0  0  0  0  0  0  0  0
    0.3974   -7.0711   27.5149 C   0  0  0  0  0  0  0  0  0  0  0  0
    2.5338   -7.6891   16.0102 C   0  0  0  0  0  0  0  0  0  0  0  0
    4.8690   -7.4380   26.4151 C   0  0  0  0  0  0  0  0  0  0  0  0
    2.3021   -5.6726   26.0378 C   0  0  0  0  0  0  0  0  0  0  0  0
    7.0880   -4.6163   27.0010 C   0  0  0  0  0  0  0  0  0  0  0  0
    8.3117   -4.3698   27.4436 C   0  0  0  0  0  0  0  0  0  0  0  0
    1.1339   -5.0515   26.3541 C   0  0  0  0  0  0  0  0  0  0  0  0
    4.8080   -8.0362   16.7101 C   0  0  0  0  0  0  0  0  0  0  0  0
   -1.2173   -3.9294   26.9717 O   0  0  0  0  0  0  0  0  0  0  0  0
   -1.0025   -5.0942   27.4586 C   0  0  0  0  0  0  0  0  0  0  0  0
    2.2474   -8.9123   16.6273 C   0  0  0  0  0  0  0  0  0  0  0  0
    4.4957   -9.2636   17.3041 C   0  0  0  0  0  0  0  0  0  0  0  0
   -1.8070   -5.6086   28.1920 O   0  0  0  0  0  0  0  0  0  0  0  0
   10.4296   -5.1799   28.3140 C   0  0  0  0  0  0  0  0  0  0  0  0
    6.6017   -5.9004   26.9187 C   0  0  0  0  0  0  0  0  0  0  0  0
    2.4761   -6.9940   26.4111 N   0  0  0  0  0  0  0  0  0  0  0  0
    9.1353   -5.4053   27.8239 C   0  0  0  0  0  0  0  0  0  0  0  0
    0.9922   -9.3232   16.5995 O   0  0  0  0  0  0  0  0  0  0  0  0
    1.5232   -7.6869   27.1182 C   0  0  0  0  0  0  0  0  0  0  0  0
    8.6878   -6.6715   27.7262 N   0  0  0  0  0  0  0  0  0  0  0  0
    6.9911   -8.2423   27.1808 C   0  0  0  0  0  0  0  0  0  0  0  0
    3.8436   -7.2758   16.0578 C   0  0  0  0  0  0  0  0  0  0  0  0
    3.1882   -9.7190   17.2566 C   0  0  0  0  0  0  0  0  0  0  0  0
    5.3488   -6.1737   26.5092 C   0  0  0  0  0  0  0  0  0  0  0  0
    7.4567   -6.9464   27.2858 C   0  0  0  0  0  0  0  0  0  0  0  0
    0.1921   -5.7592   27.1123 C   0  0  0  0  0  0  0  0  0  0  0  0
    3.5517   -7.7407   25.9711 C   0  0  0  0  0  0  0  0  0  0  0  0
  1  4  4  0
  1 22  4  0
  2 20  4  0
  2 27  4  0
  3 12  4  0
  3 23  4  0
  4 25  4  0
  4 28  1  0
  5  8  4  0
  5 17  4  0
  6  7  4  0
  6 16  4  0
  7 18  4  0
  8 27  4  0
  9 13  4  0
  9 23  4  0
 10 11  1  0
 11 14  2  0
 11 27  1  0
 12 19  1  0
 12 24  4  0
 13 24  4  0
 15 18  1  0
 16 25  4  0
 16 26  4  0
 17 20  4  0
 17 28  1  0
 18 21  4  0
 21 26  4  0
 22 26  4  0
M  END
$$$$

 Created by Python create_sdf_string function

 28 30  0  0  0  0  0  0  0  0999 V2000
    5.7174   -8.4529   26.7190 C   0  0  0  0  0  0  0  0  0  0  0  0
    0.3974   -7.0711   27.5149 C   0  0  0  0  0  0  0  0  0  0  0  0
    2.5338   -7.6891   16.0102 C   0  0  0  0  0  0  0  0  0  0  0  0
    4.8690   -7.4380   26.4151 C   0  0  0  0  0  0  0  0  0  0  0  0
    2.3021   -5.6726   26.0378 C   0  0  0  0  0  0  0  0  0  0  0  0
    7.0880   -4.6163   27.0010 C   0  0  0  0  0  0  0  0  0  0  0  0
    8.3117   -4.3698   27.4436 C   0  0  0  0  0  0  0  0  0  0  0  0
    1.1339   -5.0515   26.3541 C   0  0  0  0  0  0  0  0  0  0  0  0
    4.8080   -8.0362   16.7101 C   0  0  0  0  0  0  0  0  0  0  0  0
   -1.2173   -3.9294   26.9717 O   0  0  0  0  0  0  0  0  0  0  0  0
   -1.0025   -5.0942   27.4586 C   0  0  0  0  0  0  0  0  0  0  0  0
    2.2474   -8.9123   16.6273 C   0  0  0  0  0  0  0  0  0  0  0  0
    4.4957   -9.2636   17.3041 C   0  0  0  0  0  0  0  0  0  0  0  0
   -1.8070   -5.6086   28.1920 O   0  0  0  0  0  0  0  0  0  0  0  0
   10.4296   -5.1799   28.3140 C   0  0  0  0  0  0  0  0  0  0  0  0
    6.6017   -5.9004   26.9187 C   0  0  0  0  0  0  0  0  0  0  0  0
    2.4761   -6.9940   26.4111 N   0  0  0  0  0  0  0  0  0  0  0  0
    9.1353   -5.4053   27.8239 C   0  0  0  0  0  0  0  0  0  0  0  0
    0.9922   -9.3232   16.5995 O   0  0  0  0  0  0  0  0  0  0  0  0
    1.5232   -7.6869   27.1182 C   0  0  0  0  0  0  0  0  0  0  0  0
    8.6878   -6.6715   27.7262 N   0  0  0  0  0  0  0  0  0  0  0  0
    6.9911   -8.2423   27.1808 C   0  0  0  0  0  0  0  0  0  0  0  0
    3.8436   -7.2758   16.0578 C   0  0  0  0  0  0  0  0  0  0  0  0
    3.1882   -9.7190   17.2566 C   0  0  0  0  0  0  0  0  0  0  0  0
    5.3488   -6.1737   26.5092 C   0  0  0  0  0  0  0  0  0  0  0  0
    7.4567   -6.9464   27.2858 C   0  0  0  0  0  0  0  0  0  0  0  0
    0.1921   -5.7592   27.1123 C   0  0  0  0  0  0  0  0  0  0  0  0
    3.5517   -7.7407   25.9711 C   0  0  0  0  0  0  0  0  0  0  0  0
  1  4  4  0
  1 22  4  0
  2 20  4  0
  2 27  4  0
  3 12  4  0
  3 23  4  0
  4 25  4  0
  4 28  1  0
  5  8  4  0
  5 17  4  0
  6  7  4  0
  6 16  4  0
  7 18  4  0
  8 27  4  0
  9 13  4  0
  9 23  4  0
 10 11  1  0
 11 14  2  0
 11 27  1  0
 12 19  1  0
 12 24  4  0
 13 24  4  0
 15 18  1  0
 16 25  4  0
 16 26  4  0
 17 20  4  0
 17 28  1  0
 18 21  4  0
 21 26  4  0
 22 26  4  0
M  END
$$$$

 Created by Python create_sdf_string function

 28 30  0  0  0  0  0  0  0  0999 V2000
    5.7174   -8.4529   26.7190 C   0  0  0  0  0  0  0  0  0  0  0  0
    0.3974   -7.0711   27.5149 C   0  0  0  0  0  0  0  0  0  0  0  0
    2.5338   -7.6891   16.0102 C   0  0  0  0  0  0  0  0  0  0  0  0
    4.8690   -7.4380   26.4151 C   0  0  0  0  0  0  0  0  0  0  0  0
    2.3021   -5.6726   26.0378 C   0  0  0  0  0  0  0  0  0  0  0  0
    7.0880   -4.6163   27.0010 C   0  0  0  0  0  0  0  0  0  0  0  0
    8.3117   -4.3698   27.4436 C   0  0  0  0  0  0  0  0  0  0  0  0
    1.1339   -5.0515   26.3541 C   0  0  0  0  0  0  0  0  0  0  0  0
    4.8080   -8.0362   16.7101 C   0  0  0  0  0  0  0  0  0  0  0  0
   -1.2173   -3.9294   26.9717 O   0  0  0  0  0  0  0  0  0  0  0  0
   -1.0025   -5.0942   27.4586 C   0  0  0  0  0  0  0  0  0  0  0  0
    2.2474   -8.9123   16.6273 C   0  0  0  0  0  0  0  0  0  0  0  0
    4.4957   -9.2636   17.3041 C   0  0  0  0  0  0  0  0  0  0  0  0
   -1.8070   -5.6086   28.1920 O   0  0  0  0  0  0  0  0  0  0  0  0
   10.4296   -5.1799   28.3140 C   0  0  0  0  0  0  0  0  0  0  0  0
    6.6017   -5.9004   26.9187 C   0  0  0  0  0  0  0  0  0  0  0  0
    2.4761   -6.9940   26.4111 N   0  0  0  0  0  0  0  0  0  0  0  0
    9.1353   -5.4053   27.8239 C   0  0  0  0  0  0  0  0  0  0  0  0
    0.9922   -9.3232   16.5995 O   0  0  0  0  0  0  0  0  0  0  0  0
    1.5232   -7.6869   27.1182 C   0  0  0  0  0  0  0  0  0  0  0  0
    8.6878   -6.6715   27.7262 N   0  0  0  0  0  0  0  0  0  0  0  0
    6.9911   -8.2423   27.1808 C   0  0  0  0  0  0  0  0  0  0  0  0
    3.8436   -7.2758   16.0578 C   0  0  0  0  0  0  0  0  0  0  0  0
    3.1882   -9.7190   17.2566 C   0  0  0  0  0  0  0  0  0  0  0  0
    5.3488   -6.1737   26.5092 C   0  0  0  0  0  0  0  0  0  0  0  0
    7.4567   -6.9464   27.2858 C   0  0  0  0  0  0  0  0  0  0  0  0
    0.1921   -5.7592   27.1123 C   0  0  0  0  0  0  0  0  0  0  0  0
    3.5517   -7.7407   25.9711 C   0  0  0  0  0  0  0  0  0  0  0  0
  1  4  4  0
  1 22  4  0
  2 20  4  0
  2 27  4  0
  3 12  4  0
  3 23  4  0
  4 25  4  0
  4 28  1  0
  5  8  4  0
  5 17  4  0
  6  7  4  0
  6 16  4  0
  7 18  4  0
  8 27  4  0
  9 13  4  0
  9 23  4  0
 10 11  1  0
 11 14  2  0
 11 27  1  0
 12 19  1  0
 12 24  4  0
 13 24  4  0
 15 18  1  0
 16 25  4  0
 16 26  4  0
 17 20  4  0
 17 28  1  0
 18 21  4  0
 21 26  4  0
 22 26  4  0
M  END
$$$$

 Created by Python create_sdf_string function

 28 30  0  0  0  0  0  0  0  0999 V2000
    5.7174   -8.4529   26.7190 C   0  0  0  0  0  0  0  0  0  0  0  0
    0.3974   -7.0711   27.5149 C   0  0  0  0  0  0  0  0  0  0  0  0
    2.5338   -7.6891   16.0102 C   0  0  0  0  0  0  0  0  0  0  0  0
    4.8690   -7.4380   26.4151 C   0  0  0  0  0  0  0  0  0  0  0  0
    2.3021   -5.6726   26.0378 C   0  0  0  0  0  0  0  0  0  0  0  0
    7.0880   -4.6163   27.0010 C   0  0  0  0  0  0  0  0  0  0  0  0
    8.3117   -4.3698   27.4436 C   0  0  0  0  0  0  0  0  0  0  0  0
    1.1339   -5.0515   26.3541 C   0  0  0  0  0  0  0  0  0  0  0  0
    4.8080   -8.0362   16.7101 C   0  0  0  0  0  0  0  0  0  0  0  0
   -1.2173   -3.9294   26.9717 O   0  0  0  0  0  0  0  0  0  0  0  0
   -1.0025   -5.0942   27.4586 C   0  0  0  0  0  0  0  0  0  0  0  0
    2.2474   -8.9123   16.6273 C   0  0  0  0  0  0  0  0  0  0  0  0
    4.4957   -9.2636   17.3041 C   0  0  0  0  0  0  0  0  0  0  0  0
   -1.8070   -5.6086   28.1920 O   0  0  0  0  0  0  0  0  0  0  0  0
   10.4296   -5.1799   28.3140 C   0  0  0  0  0  0  0  0  0  0  0  0
    6.6017   -5.9004   26.9187 C   0  0  0  0  0  0  0  0  0  0  0  0
    2.4761   -6.9940   26.4111 N   0  0  0  0  0  0  0  0  0  0  0  0
    9.1353   -5.4053   27.8239 C   0  0  0  0  0  0  0  0  0  0  0  0
    0.9922   -9.3232   16.5995 O   0  0  0  0  0  0  0  0  0  0  0  0
    1.5232   -7.6869   27.1182 C   0  0  0  0  0  0  0  0  0  0  0  0
    8.6878   -6.6715   27.7262 N   0  0  0  0  0  0  0  0  0  0  0  0
    6.9911   -8.2423   27.1808 C   0  0  0  0  0  0  0  0  0  0  0  0
    3.8436   -7.2758   16.0578 C   0  0  0  0  0  0  0  0  0  0  0  0
    3.1882   -9.7190   17.2566 C   0  0  0  0  0  0  0  0  0  0  0  0
    5.3488   -6.1737   26.5092 C   0  0  0  0  0  0  0  0  0  0  0  0
    7.4567   -6.9464   27.2858 C   0  0  0  0  0  0  0  0  0  0  0  0
    0.1921   -5.7592   27.1123 C   0  0  0  0  0  0  0  0  0  0  0  0
    3.5517   -7.7407   25.9711 C   0  0  0  0  0  0  0  0  0  0  0  0
  1  4  4  0
  1 22  4  0
  2 20  4  0
  2 27  4  0
  3 12  4  0
  3 23  4  0
  4 25  4  0
  4 28  1  0
  5  8  4  0
  5 17  4  0
  6  7  4  0
  6 16  4  0
  7 18  4  0
  8 27  4  0
  9 13  4  0
  9 23  4  0
 10 11  1  0
 11 14  2  0
 11 27  1  0
 12 19  1  0
 12 24  4  0
 13 24  4  0
 15 18  1  0
 16 25  4  0
 16 26  4  0
 17 20  4  0
 17 28  1  0
 18 21  4  0
 21 26  4  0
 22 26  4  0
M  END
$$$$

 Created by Python create_sdf_string function

 28 30  0  0  0  0  0  0  0  0999 V2000
    5.7174   -8.4529   26.7190 C   0  0  0  0  0  0  0  0  0  0  0  0
    0.3974   -7.0711   27.5149 C   0  0  0  0  0  0  0  0  0  0  0  0
    2.5338   -7.6891   16.0102 C   0  0  0  0  0  0  0  0  0  0  0  0
    4.8690   -7.4380   26.4151 C   0  0  0  0  0  0  0  0  0  0  0  0
    2.3021   -5.6726   26.0378 C   0  0  0  0  0  0  0  0  0  0  0  0
    7.0880   -4.6163   27.0010 C   0  0  0  0  0  0  0  0  0  0  0  0
    8.3117   -4.3698   27.4436 C   0  0  0  0  0  0  0  0  0  0  0  0
    1.1339   -5.0515   26.3541 C   0  0  0  0  0  0  0  0  0  0  0  0
    4.8080   -8.0362   16.7101 C   0  0  0  0  0  0  0  0  0  0  0  0
   -1.2173   -3.9294   26.9717 O   0  0  0  0  0  0  0  0  0  0  0  0
   -1.0025   -5.0942   27.4586 C   0  0  0  0  0  0  0  0  0  0  0  0
    2.2474   -8.9123   16.6273 C   0  0  0  0  0  0  0  0  0  0  0  0
    4.4957   -9.2636   17.3041 C   0  0  0  0  0  0  0  0  0  0  0  0
   -1.8070   -5.6086   28.1920 O   0  0  0  0  0  0  0  0  0  0  0  0
   10.4296   -5.1799   28.3140 C   0  0  0  0  0  0  0  0  0  0  0  0
    6.6017   -5.9004   26.9187 C   0  0  0  0  0  0  0  0  0  0  0  0
    2.4761   -6.9940   26.4111 N   0  0  0  0  0  0  0  0  0  0  0  0
    9.1353   -5.4053   27.8239 C   0  0  0  0  0  0  0  0  0  0  0  0
    0.9922   -9.3232   16.5995 O   0  0  0  0  0  0  0  0  0  0  0  0
    1.5232   -7.6869   27.1182 C   0  0  0  0  0  0  0  0  0  0  0  0
    8.6878   -6.6715   27.7262 N   0  0  0  0  0  0  0  0  0  0  0  0
    6.9911   -8.2423   27.1808 C   0  0  0  0  0  0  0  0  0  0  0  0
    3.8436   -7.2758   16.0578 C   0  0  0  0  0  0  0  0  0  0  0  0
    3.1882   -9.7190   17.2566 C   0  0  0  0  0  0  0  0  0  0  0  0
    5.3488   -6.1737   26.5092 C   0  0  0  0  0  0  0  0  0  0  0  0
    7.4567   -6.9464   27.2858 C   0  0  0  0  0  0  0  0  0  0  0  0
    0.1921   -5.7592   27.1123 C   0  0  0  0  0  0  0  0  0  0  0  0
    3.5517   -7.7407   25.9711 C   0  0  0  0  0  0  0  0  0  0  0  0
  1  4  4  0
  1 22  4  0
  2 20  4  0
  2 27  4  0
  3 12  4  0
  3 23  4  0
  4 25  4  0
  4 28  1  0
  5  8  4  0
  5 17  4  0
  6  7  4  0
  6 16  4  0
  7 18  4  0
  8 27  4  0
  9 13  4  0
  9 23  4  0
 10 11  1  0
 11 14  2  0
 11 27  1  0
 12 19  1  0
 12 24  4  0
 13 24  4  0
 15 18  1  0
 16 25  4  0
 16 26  4  0
 17 20  4  0
 17 28  1  0
 18 21  4  0
 21 26  4  0
 22 26  4  0
M  END
$$$$

 Created by Python create_sdf_string function

 28 30  0  0  0  0  0  0  0  0999 V2000
    5.7174   -8.4529   26.7190 C   0  0  0  0  0  0  0  0  0  0  0  0
    0.3974   -7.0711   27.5149 C   0  0  0  0  0  0  0  0  0  0  0  0
    2.5338   -7.6891   16.0102 C   0  0  0  0  0  0  0  0  0  0  0  0
    4.8690   -7.4380   26.4151 C   0  0  0  0  0  0  0  0  0  0  0  0
    2.3021   -5.6726   26.0378 C   0  0  0  0  0  0  0  0  0  0  0  0
    7.0880   -4.6163   27.0010 C   0  0  0  0  0  0  0  0  0  0  0  0
    8.3117   -4.3698   27.4436 C   0  0  0  0  0  0  0  0  0  0  0  0
    1.1339   -5.0515   26.3541 C   0  0  0  0  0  0  0  0  0  0  0  0
    4.8080   -8.0362   16.7101 C   0  0  0  0  0  0  0  0  0  0  0  0
   -1.2173   -3.9294   26.9717 O   0  0  0  0  0  0  0  0  0  0  0  0
   -1.0025   -5.0942   27.4586 C   0  0  0  0  0  0  0  0  0  0  0  0
    2.2474   -8.9123   16.6273 C   0  0  0  0  0  0  0  0  0  0  0  0
    4.4957   -9.2636   17.3041 C   0  0  0  0  0  0  0  0  0  0  0  0
   -1.8070   -5.6086   28.1920 O   0  0  0  0  0  0  0  0  0  0  0  0
   10.4296   -5.1799   28.3140 C   0  0  0  0  0  0  0  0  0  0  0  0
    6.6017   -5.9004   26.9187 C   0  0  0  0  0  0  0  0  0  0  0  0
    2.4761   -6.9940   26.4111 N   0  0  0  0  0  0  0  0  0  0  0  0
    9.1353   -5.4053   27.8239 C   0  0  0  0  0  0  0  0  0  0  0  0
    0.9922   -9.3232   16.5995 O   0  0  0  0  0  0  0  0  0  0  0  0
    1.5232   -7.6869   27.1182 C   0  0  0  0  0  0  0  0  0  0  0  0
    8.6878   -6.6715   27.7262 N   0  0  0  0  0  0  0  0  0  0  0  0
    6.9911   -8.2423   27.1808 C   0  0  0  0  0  0  0  0  0  0  0  0
    3.8436   -7.2758   16.0578 C   0  0  0  0  0  0  0  0  0  0  0  0
    3.1882   -9.7190   17.2566 C   0  0  0  0  0  0  0  0  0  0  0  0
    5.3488   -6.1737   26.5092 C   0  0  0  0  0  0  0  0  0  0  0  0
    7.4567   -6.9464   27.2858 C   0  0  0  0  0  0  0  0  0  0  0  0
    0.1921   -5.7592   27.1123 C   0  0  0  0  0  0  0  0  0  0  0  0
    3.5517   -7.7407   25.9711 C   0  0  0  0  0  0  0  0  0  0  0  0
  1  4  4  0
  1 22  4  0
  2 20  4  0
  2 27  4  0
  3 12  4  0
  3 23  4  0
  4 25  4  0
  4 28  1  0
  5  8  4  0
  5 17  4  0
  6  7  4  0
  6 16  4  0
  7 18  4  0
  8 27  4  0
  9 13  4  0
  9 23  4  0
 10 11  1  0
 11 14  2  0
 11 27  1  0
 12 19  1  0
 12 24  4  0
 13 24  4  0
 15 18  1  0
 16 25  4  0
 16 26  4  0
 17 20  4  0
 17 28  1  0
 18 21  4  0
 21 26  4  0
 22 26  4  0
M  END
$$$$

 Created by Python create_sdf_string function

 28 30  0  0  0  0  0  0  0  0999 V2000
    5.7174   -8.4529   26.7190 C   0  0  0  0  0  0  0  0  0  0  0  0
    0.3974   -7.0711   27.5149 C   0  0  0  0  0  0  0  0  0  0  0  0
    2.5338   -7.6891   16.0102 C   0  0  0  0  0  0  0  0  0  0  0  0
    4.8690   -7.4380   26.4151 C   0  0  0  0  0  0  0  0  0  0  0  0
    2.3021   -5.6726   26.0378 C   0  0  0  0  0  0  0  0  0  0  0  0
    7.0880   -4.6163   27.0010 C   0  0  0  0  0  0  0  0  0  0  0  0
    8.3117   -4.3698   27.4436 C   0  0  0  0  0  0  0  0  0  0  0  0
    1.1339   -5.0515   26.3541 C   0  0  0  0  0  0  0  0  0  0  0  0
    4.8080   -8.0362   16.7101 C   0  0  0  0  0  0  0  0  0  0  0  0
   -1.2173   -3.9294   26.9717 O   0  0  0  0  0  0  0  0  0  0  0  0
   -1.0025   -5.0942   27.4586 C   0  0  0  0  0  0  0  0  0  0  0  0
    2.2474   -8.9123   16.6273 C   0  0  0  0  0  0  0  0  0  0  0  0
    4.4957   -9.2636   17.3041 C   0  0  0  0  0  0  0  0  0  0  0  0
   -1.8070   -5.6086   28.1920 O   0  0  0  0  0  0  0  0  0  0  0  0
   10.4296   -5.1799   28.3140 C   0  0  0  0  0  0  0  0  0  0  0  0
    6.6017   -5.9004   26.9187 C   0  0  0  0  0  0  0  0  0  0  0  0
    2.4761   -6.9940   26.4111 N   0  0  0  0  0  0  0  0  0  0  0  0
    9.1353   -5.4053   27.8239 C   0  0  0  0  0  0  0  0  0  0  0  0
    0.9922   -9.3232   16.5995 O   0  0  0  0  0  0  0  0  0  0  0  0
    1.5232   -7.6869   27.1182 C   0  0  0  0  0  0  0  0  0  0  0  0
    8.6878   -6.6715   27.7262 N   0  0  0  0  0  0  0  0  0  0  0  0
    6.9911   -8.2423   27.1808 C   0  0  0  0  0  0  0  0  0  0  0  0
    3.8436   -7.2758   16.0578 C   0  0  0  0  0  0  0  0  0  0  0  0
    3.1882   -9.7190   17.2566 C   0  0  0  0  0  0  0  0  0  0  0  0
    5.3488   -6.1737   26.5092 C   0  0  0  0  0  0  0  0  0  0  0  0
    7.4567   -6.9464   27.2858 C   0  0  0  0  0  0  0  0  0  0  0  0
    0.1921   -5.7592   27.1123 C   0  0  0  0  0  0  0  0  0  0  0  0
    3.5517   -7.7407   25.9711 C   0  0  0  0  0  0  0  0  0  0  0  0
  1  4  4  0
  1 22  4  0
  2 20  4  0
  2 27  4  0
  3 12  4  0
  3 23  4  0
  4 25  4  0
  4 28  1  0
  5  8  4  0
  5 17  4  0
  6  7  4  0
  6 16  4  0
  7 18  4  0
  8 27  4  0
  9 13  4  0
  9 23  4  0
 10 11  1  0
 11 14  2  0
 11 27  1  0
 12 19  1  0
 12 24  4  0
 13 24  4  0
 15 18  1  0
 16 25  4  0
 16 26  4  0
 17 20  4  0
 17 28  1  0
 18 21  4  0
 21 26  4  0
 22 26  4  0
M  END
$$$$

 Created by Python create_sdf_string function

 28 30  0  0  0  0  0  0  0  0999 V2000
    5.7174   -8.4529   26.7190 C   0  0  0  0  0  0  0  0  0  0  0  0
    0.3974   -7.0711   27.5149 C   0  0  0  0  0  0  0  0  0  0  0  0
    2.5338   -7.6891   16.0102 C   0  0  0  0  0  0  0  0  0  0  0  0
    4.8690   -7.4380   26.4151 C   0  0  0  0  0  0  0  0  0  0  0  0
    2.3021   -5.6726   26.0378 C   0  0  0  0  0  0  0  0  0  0  0  0
    7.0880   -4.6163   27.0010 C   0  0  0  0  0  0  0  0  0  0  0  0
    8.3117   -4.3698   27.4436 C   0  0  0  0  0  0  0  0  0  0  0  0
    1.1339   -5.0515   26.3541 C   0  0  0  0  0  0  0  0  0  0  0  0
    4.8080   -8.0362   16.7101 C   0  0  0  0  0  0  0  0  0  0  0  0
   -1.2173   -3.9294   26.9717 O   0  0  0  0  0  0  0  0  0  0  0  0
   -1.0025   -5.0942   27.4586 C   0  0  0  0  0  0  0  0  0  0  0  0
    2.2474   -8.9123   16.6273 C   0  0  0  0  0  0  0  0  0  0  0  0
    4.4957   -9.2636   17.3041 C   0  0  0  0  0  0  0  0  0  0  0  0
   -1.8070   -5.6086   28.1920 O   0  0  0  0  0  0  0  0  0  0  0  0
   10.4296   -5.1799   28.3140 C   0  0  0  0  0  0  0  0  0  0  0  0
    6.6017   -5.9004   26.9187 C   0  0  0  0  0  0  0  0  0  0  0  0
    2.4761   -6.9940   26.4111 N   0  0  0  0  0  0  0  0  0  0  0  0
    9.1353   -5.4053   27.8239 C   0  0  0  0  0  0  0  0  0  0  0  0
    0.9922   -9.3232   16.5995 O   0  0  0  0  0  0  0  0  0  0  0  0
    1.5232   -7.6869   27.1182 C   0  0  0  0  0  0  0  0  0  0  0  0
    8.6878   -6.6715   27.7262 N   0  0  0  0  0  0  0  0  0  0  0  0
    6.9911   -8.2423   27.1808 C   0  0  0  0  0  0  0  0  0  0  0  0
    3.8436   -7.2758   16.0578 C   0  0  0  0  0  0  0  0  0  0  0  0
    3.1882   -9.7190   17.2566 C   0  0  0  0  0  0  0  0  0  0  0  0
    5.3488   -6.1737   26.5092 C   0  0  0  0  0  0  0  0  0  0  0  0
    7.4567   -6.9464   27.2858 C   0  0  0  0  0  0  0  0  0  0  0  0
    0.1921   -5.7592   27.1123 C   0  0  0  0  0  0  0  0  0  0  0  0
    3.5517   -7.7407   25.9711 C   0  0  0  0  0  0  0  0  0  0  0  0
  1  4  4  0
  1 22  4  0
  2 20  4  0
  2 27  4  0
  3 12  4  0
  3 23  4  0
  4 25  4  0
  4 28  1  0
  5  8  4  0
  5 17  4  0
  6  7  4  0
  6 16  4  0
  7 18  4  0
  8 27  4  0
  9 13  4  0
  9 23  4  0
 10 11  1  0
 11 14  2  0
 11 27  1  0
 12 19  1  0
 12 24  4  0
 13 24  4  0
 15 18  1  0
 16 25  4  0
 16 26  4  0
 17 20  4  0
 17 28  1  0
 18 21  4  0
 21 26  4  0
 22 26  4  0
M  END
$$$$

 Created by Python create_sdf_string function

 28 30  0  0  0  0  0  0  0  0999 V2000
    5.7174   -8.4529   26.7190 C   0  0  0  0  0  0  0  0  0  0  0  0
    0.3974   -7.0711   27.5149 C   0  0  0  0  0  0  0  0  0  0  0  0
    2.5338   -7.6891   16.0102 C   0  0  0  0  0  0  0  0  0  0  0  0
    4.8690   -7.4380   26.4151 C   0  0  0  0  0  0  0  0  0  0  0  0
    2.3021   -5.6726   26.0378 C   0  0  0  0  0  0  0  0  0  0  0  0
    7.0880   -4.6163   27.0010 C   0  0  0  0  0  0  0  0  0  0  0  0
    8.3117   -4.3698   27.4436 C   0  0  0  0  0  0  0  0  0  0  0  0
    1.1339   -5.0515   26.3541 C   0  0  0  0  0  0  0  0  0  0  0  0
    4.8080   -8.0362   16.7101 C   0  0  0  0  0  0  0  0  0  0  0  0
   -1.2173   -3.9294   26.9717 O   0  0  0  0  0  0  0  0  0  0  0  0
   -1.0025   -5.0942   27.4586 C   0  0  0  0  0  0  0  0  0  0  0  0
    2.2474   -8.9123   16.6273 C   0  0  0  0  0  0  0  0  0  0  0  0
    4.4957   -9.2636   17.3041 C   0  0  0  0  0  0  0  0  0  0  0  0
   -1.8070   -5.6086   28.1920 O   0  0  0  0  0  0  0  0  0  0  0  0
   10.4296   -5.1799   28.3140 C   0  0  0  0  0  0  0  0  0  0  0  0
    6.6017   -5.9004   26.9187 C   0  0  0  0  0  0  0  0  0  0  0  0
    2.4761   -6.9940   26.4111 N   0  0  0  0  0  0  0  0  0  0  0  0
    9.1353   -5.4053   27.8239 C   0  0  0  0  0  0  0  0  0  0  0  0
    0.9922   -9.3232   16.5995 O   0  0  0  0  0  0  0  0  0  0  0  0
    1.5232   -7.6869   27.1182 C   0  0  0  0  0  0  0  0  0  0  0  0
    8.6878   -6.6715   27.7262 N   0  0  0  0  0  0  0  0  0  0  0  0
    6.9911   -8.2423   27.1808 C   0  0  0  0  0  0  0  0  0  0  0  0
    3.8436   -7.2758   16.0578 C   0  0  0  0  0  0  0  0  0  0  0  0
    3.1882   -9.7190   17.2566 C   0  0  0  0  0  0  0  0  0  0  0  0
    5.3488   -6.1737   26.5092 C   0  0  0  0  0  0  0  0  0  0  0  0
    7.4567   -6.9464   27.2858 C   0  0  0  0  0  0  0  0  0  0  0  0
    0.1921   -5.7592   27.1123 C   0  0  0  0  0  0  0  0  0  0  0  0
    3.5517   -7.7407   25.9711 C   0  0  0  0  0  0  0  0  0  0  0  0
  1  4  4  0
  1 22  4  0
  2 20  4  0
  2 27  4  0
  3 12  4  0
  3 23  4  0
  4 25  4  0
  4 28  1  0
  5  8  4  0
  5 17  4  0
  6  7  4  0
  6 16  4  0
  7 18  4  0
  8 27  4  0
  9 13  4  0
  9 23  4  0
 10 11  1  0
 11 14  2  0
 11 27  1  0
 12 19  1  0
 12 24  4  0
 13 24  4  0
 15 18  1  0
 16 25  4  0
 16 26  4  0
 17 20  4  0
 17 28  1  0
 18 21  4  0
 21 26  4  0
 22 26  4  0
M  END
$$$$

 Created by Python create_sdf_string function

 28 30  0  0  0  0  0  0  0  0999 V2000
    5.7174   -8.4529   26.7190 C   0  0  0  0  0  0  0  0  0  0  0  0
    0.3974   -7.0711   27.5149 C   0  0  0  0  0  0  0  0  0  0  0  0
    2.5338   -7.6891   16.0102 C   0  0  0  0  0  0  0  0  0  0  0  0
    4.8690   -7.4380   26.4151 C   0  0  0  0  0  0  0  0  0  0  0  0
    2.3021   -5.6726   26.0378 C   0  0  0  0  0  0  0  0  0  0  0  0
    7.0880   -4.6163   27.0010 C   0  0  0  0  0  0  0  0  0  0  0  0
    8.3117   -4.3698   27.4436 C   0  0  0  0  0  0  0  0  0  0  0  0
    1.1339   -5.0515   26.3541 C   0  0  0  0  0  0  0  0  0  0  0  0
    4.8080   -8.0362   16.7101 C   0  0  0  0  0  0  0  0  0  0  0  0
   -1.2173   -3.9294   26.9717 O   0  0  0  0  0  0  0  0  0  0  0  0
   -1.0025   -5.0942   27.4586 C   0  0  0  0  0  0  0  0  0  0  0  0
    2.2474   -8.9123   16.6273 C   0  0  0  0  0  0  0  0  0  0  0  0
    4.4957   -9.2636   17.3041 C   0  0  0  0  0  0  0  0  0  0  0  0
   -1.8070   -5.6086   28.1920 O   0  0  0  0  0  0  0  0  0  0  0  0
   10.4296   -5.1799   28.3140 C   0  0  0  0  0  0  0  0  0  0  0  0
    6.6017   -5.9004   26.9187 C   0  0  0  0  0  0  0  0  0  0  0  0
    2.4761   -6.9940   26.4111 N   0  0  0  0  0  0  0  0  0  0  0  0
    9.1353   -5.4053   27.8239 C   0  0  0  0  0  0  0  0  0  0  0  0
    0.9922   -9.3232   16.5995 O   0  0  0  0  0  0  0  0  0  0  0  0
    1.5232   -7.6869   27.1182 C   0  0  0  0  0  0  0  0  0  0  0  0
    8.6878   -6.6715   27.7262 N   0  0  0  0  0  0  0  0  0  0  0  0
    6.9911   -8.2423   27.1808 C   0  0  0  0  0  0  0  0  0  0  0  0
    3.8436   -7.2758   16.0578 C   0  0  0  0  0  0  0  0  0  0  0  0
    3.1882   -9.7190   17.2566 C   0  0  0  0  0  0  0  0  0  0  0  0
    5.3488   -6.1737   26.5092 C   0  0  0  0  0  0  0  0  0  0  0  0
    7.4567   -6.9464   27.2858 C   0  0  0  0  0  0  0  0  0  0  0  0
    0.1921   -5.7592   27.1123 C   0  0  0  0  0  0  0  0  0  0  0  0
    3.5517   -7.7407   25.9711 C   0  0  0  0  0  0  0  0  0  0  0  0
  1  4  4  0
  1 22  4  0
  2 20  4  0
  2 27  4  0
  3 12  4  0
  3 23  4  0
  4 25  4  0
  4 28  1  0
  5  8  4  0
  5 17  4  0
  6  7  4  0
  6 16  4  0
  7 18  4  0
  8 27  4  0
  9 13  4  0
  9 23  4  0
 10 11  1  0
 11 14  2  0
 11 27  1  0
 12 19  1  0
 12 24  4  0
 13 24  4  0
 15 18  1  0
 16 25  4  0
 16 26  4  0
 17 20  4  0
 17 28  1  0
 18 21  4  0
 21 26  4  0
 22 26  4  0
M  END
$$$$

 Created by Python create_sdf_string function

 28 30  0  0  0  0  0  0  0  0999 V2000
    5.7174   -8.4529   26.7190 C   0  0  0  0  0  0  0  0  0  0  0  0
    0.3974   -7.0711   27.5149 C   0  0  0  0  0  0  0  0  0  0  0  0
    2.5338   -7.6891   16.0102 C   0  0  0  0  0  0  0  0  0  0  0  0
    4.8690   -7.4380   26.4151 C   0  0  0  0  0  0  0  0  0  0  0  0
    2.3021   -5.6726   26.0378 C   0  0  0  0  0  0  0  0  0  0  0  0
    7.0880   -4.6163   27.0010 C   0  0  0  0  0  0  0  0  0  0  0  0
    8.3117   -4.3698   27.4436 C   0  0  0  0  0  0  0  0  0  0  0  0
    1.1339   -5.0515   26.3541 C   0  0  0  0  0  0  0  0  0  0  0  0
    4.8080   -8.0362   16.7101 C   0  0  0  0  0  0  0  0  0  0  0  0
   -1.2173   -3.9294   26.9717 O   0  0  0  0  0  0  0  0  0  0  0  0
   -1.0025   -5.0942   27.4586 C   0  0  0  0  0  0  0  0  0  0  0  0
    2.2474   -8.9123   16.6273 C   0  0  0  0  0  0  0  0  0  0  0  0
    4.4957   -9.2636   17.3041 C   0  0  0  0  0  0  0  0  0  0  0  0
   -1.8070   -5.6086   28.1920 O   0  0  0  0  0  0  0  0  0  0  0  0
   10.4296   -5.1799   28.3140 C   0  0  0  0  0  0  0  0  0  0  0  0
    6.6017   -5.9004   26.9187 C   0  0  0  0  0  0  0  0  0  0  0  0
    2.4761   -6.9940   26.4111 N   0  0  0  0  0  0  0  0  0  0  0  0
    9.1353   -5.4053   27.8239 C   0  0  0  0  0  0  0  0  0  0  0  0
    0.9922   -9.3232   16.5995 O   0  0  0  0  0  0  0  0  0  0  0  0
    1.5232   -7.6869   27.1182 C   0  0  0  0  0  0  0  0  0  0  0  0
    8.6878   -6.6715   27.7262 N   0  0  0  0  0  0  0  0  0  0  0  0
    6.9911   -8.2423   27.1808 C   0  0  0  0  0  0  0  0  0  0  0  0
    3.8436   -7.2758   16.0578 C   0  0  0  0  0  0  0  0  0  0  0  0
    3.1882   -9.7190   17.2566 C   0  0  0  0  0  0  0  0  0  0  0  0
    5.3488   -6.1737   26.5092 C   0  0  0  0  0  0  0  0  0  0  0  0
    7.4567   -6.9464   27.2858 C   0  0  0  0  0  0  0  0  0  0  0  0
    0.1921   -5.7592   27.1123 C   0  0  0  0  0  0  0  0  0  0  0  0
    3.5517   -7.7407   25.9711 C   0  0  0  0  0  0  0  0  0  0  0  0
  1  4  4  0
  1 22  4  0
  2 20  4  0
  2 27  4  0
  3 12  4  0
  3 23  4  0
  4 25  4  0
  4 28  1  0
  5  8  4  0
  5 17  4  0
  6  7  4  0
  6 16  4  0
  7 18  4  0
  8 27  4  0
  9 13  4  0
  9 23  4  0
 10 11  1  0
 11 14  2  0
 11 27  1  0
 12 19  1  0
 12 24  4  0
 13 24  4  0
 15 18  1  0
 16 25  4  0
 16 26  4  0
 17 20  4  0
 17 28  1  0
 18 21  4  0
 21 26  4  0
 22 26  4  0
M  END
$$$$

 Created by Python create_sdf_string function

 28 30  0  0  0  0  0  0  0  0999 V2000
    5.7174   -8.4529   26.7190 C   0  0  0  0  0  0  0  0  0  0  0  0
    0.3974   -7.0711   27.5149 C   0  0  0  0  0  0  0  0  0  0  0  0
    2.5338   -7.6891   16.0102 C   0  0  0  0  0  0  0  0  0  0  0  0
    4.8690   -7.4380   26.4151 C   0  0  0  0  0  0  0  0  0  0  0  0
    2.3021   -5.6726   26.0378 C   0  0  0  0  0  0  0  0  0  0  0  0
    7.0880   -4.6163   27.0010 C   0  0  0  0  0  0  0  0  0  0  0  0
    8.3117   -4.3698   27.4436 C   0  0  0  0  0  0  0  0  0  0  0  0
    1.1339   -5.0515   26.3541 C   0  0  0  0  0  0  0  0  0  0  0  0
    4.8080   -8.0362   16.7101 C   0  0  0  0  0  0  0  0  0  0  0  0
   -1.2173   -3.9294   26.9717 O   0  0  0  0  0  0  0  0  0  0  0  0
   -1.0025   -5.0942   27.4586 C   0  0  0  0  0  0  0  0  0  0  0  0
    2.2474   -8.9123   16.6273 C   0  0  0  0  0  0  0  0  0  0  0  0
    4.4957   -9.2636   17.3041 C   0  0  0  0  0  0  0  0  0  0  0  0
   -1.8070   -5.6086   28.1920 O   0  0  0  0  0  0  0  0  0  0  0  0
   10.4296   -5.1799   28.3140 C   0  0  0  0  0  0  0  0  0  0  0  0
    6.6017   -5.9004   26.9187 C   0  0  0  0  0  0  0  0  0  0  0  0
    2.4761   -6.9940   26.4111 N   0  0  0  0  0  0  0  0  0  0  0  0
    9.1353   -5.4053   27.8239 C   0  0  0  0  0  0  0  0  0  0  0  0
    0.9922   -9.3232   16.5995 O   0  0  0  0  0  0  0  0  0  0  0  0
    1.5232   -7.6869   27.1182 C   0  0  0  0  0  0  0  0  0  0  0  0
    8.6878   -6.6715   27.7262 N   0  0  0  0  0  0  0  0  0  0  0  0
    6.9911   -8.2423   27.1808 C   0  0  0  0  0  0  0  0  0  0  0  0
    3.8436   -7.2758   16.0578 C   0  0  0  0  0  0  0  0  0  0  0  0
    3.1882   -9.7190   17.2566 C   0  0  0  0  0  0  0  0  0  0  0  0
    5.3488   -6.1737   26.5092 C   0  0  0  0  0  0  0  0  0  0  0  0
    7.4567   -6.9464   27.2858 C   0  0  0  0  0  0  0  0  0  0  0  0
    0.1921   -5.7592   27.1123 C   0  0  0  0  0  0  0  0  0  0  0  0
    3.5517   -7.7407   25.9711 C   0  0  0  0  0  0  0  0  0  0  0  0
  1  4  4  0
  1 22  4  0
  2 20  4  0
  2 27  4  0
  3 12  4  0
  3 23  4  0
  4 25  4  0
  4 28  1  0
  5  8  4  0
  5 17  4  0
  6  7  4  0
  6 16  4  0
  7 18  4  0
  8 27  4  0
  9 13  4  0
  9 23  4  0
 10 11  1  0
 11 14  2  0
 11 27  1  0
 12 19  1  0
 12 24  4  0
 13 24  4  0
 15 18  1  0
 16 25  4  0
 16 26  4  0
 17 20  4  0
 17 28  1  0
 18 21  4  0
 21 26  4  0
 22 26  4  0
M  END
$$$$

 Created by Python create_sdf_string function

 28 30  0  0  0  0  0  0  0  0999 V2000
    5.7174   -8.4529   26.7190 C   0  0  0  0  0  0  0  0  0  0  0  0
    0.3974   -7.0711   27.5149 C   0  0  0  0  0  0  0  0  0  0  0  0
    2.5338   -7.6891   16.0102 C   0  0  0  0  0  0  0  0  0  0  0  0
    4.8690   -7.4380   26.4151 C   0  0  0  0  0  0  0  0  0  0  0  0
    2.3021   -5.6726   26.0378 C   0  0  0  0  0  0  0  0  0  0  0  0
    7.0880   -4.6163   27.0010 C   0  0  0  0  0  0  0  0  0  0  0  0
    8.3117   -4.3698   27.4436 C   0  0  0  0  0  0  0  0  0  0  0  0
    1.1339   -5.0515   26.3541 C   0  0  0  0  0  0  0  0  0  0  0  0
    4.8080   -8.0362   16.7101 C   0  0  0  0  0  0  0  0  0  0  0  0
   -1.2173   -3.9294   26.9717 O   0  0  0  0  0  0  0  0  0  0  0  0
   -1.0025   -5.0942   27.4586 C   0  0  0  0  0  0  0  0  0  0  0  0
    2.2474   -8.9123   16.6273 C   0  0  0  0  0  0  0  0  0  0  0  0
    4.4957   -9.2636   17.3041 C   0  0  0  0  0  0  0  0  0  0  0  0
   -1.8070   -5.6086   28.1920 O   0  0  0  0  0  0  0  0  0  0  0  0
   10.4296   -5.1799   28.3140 C   0  0  0  0  0  0  0  0  0  0  0  0
    6.6017   -5.9004   26.9187 C   0  0  0  0  0  0  0  0  0  0  0  0
    2.4761   -6.9940   26.4111 N   0  0  0  0  0  0  0  0  0  0  0  0
    9.1353   -5.4053   27.8239 C   0  0  0  0  0  0  0  0  0  0  0  0
    0.9922   -9.3232   16.5995 O   0  0  0  0  0  0  0  0  0  0  0  0
    1.5232   -7.6869   27.1182 C   0  0  0  0  0  0  0  0  0  0  0  0
    8.6878   -6.6715   27.7262 N   0  0  0  0  0  0  0  0  0  0  0  0
    6.9911   -8.2423   27.1808 C   0  0  0  0  0  0  0  0  0  0  0  0
    3.8436   -7.2758   16.0578 C   0  0  0  0  0  0  0  0  0  0  0  0
    3.1882   -9.7190   17.2566 C   0  0  0  0  0  0  0  0  0  0  0  0
    5.3488   -6.1737   26.5092 C   0  0  0  0  0  0  0  0  0  0  0  0
    7.4567   -6.9464   27.2858 C   0  0  0  0  0  0  0  0  0  0  0  0
    0.1921   -5.7592   27.1123 C   0  0  0  0  0  0  0  0  0  0  0  0
    3.5517   -7.7407   25.9711 C   0  0  0  0  0  0  0  0  0  0  0  0
  1  4  4  0
  1 22  4  0
  2 20  4  0
  2 27  4  0
  3 12  4  0
  3 23  4  0
  4 25  4  0
  4 28  1  0
  5  8  4  0
  5 17  4  0
  6  7  4  0
  6 16  4  0
  7 18  4  0
  8 27  4  0
  9 13  4  0
  9 23  4  0
 10 11  1  0
 11 14  2  0
 11 27  1  0
 12 19  1  0
 12 24  4  0
 13 24  4  0
 15 18  1  0
 16 25  4  0
 16 26  4  0
 17 20  4  0
 17 28  1  0
 18 21  4  0
 21 26  4  0
 22 26  4  0
M  END
$$$$

 Created by Python create_sdf_string function

 28 30  0  0  0  0  0  0  0  0999 V2000
    5.7174   -8.4529   26.7190 C   0  0  0  0  0  0  0  0  0  0  0  0
    0.3974   -7.0711   27.5149 C   0  0  0  0  0  0  0  0  0  0  0  0
    2.5338   -7.6891   16.0102 C   0  0  0  0  0  0  0  0  0  0  0  0
    4.8690   -7.4380   26.4151 C   0  0  0  0  0  0  0  0  0  0  0  0
    2.3021   -5.6726   26.0378 C   0  0  0  0  0  0  0  0  0  0  0  0
    7.0880   -4.6163   27.0010 C   0  0  0  0  0  0  0  0  0  0  0  0
    8.3117   -4.3698   27.4436 C   0  0  0  0  0  0  0  0  0  0  0  0
    1.1339   -5.0515   26.3541 C   0  0  0  0  0  0  0  0  0  0  0  0
    4.8080   -8.0362   16.7101 C   0  0  0  0  0  0  0  0  0  0  0  0
   -1.2173   -3.9294   26.9717 O   0  0  0  0  0  0  0  0  0  0  0  0
   -1.0025   -5.0942   27.4586 C   0  0  0  0  0  0  0  0  0  0  0  0
    2.2474   -8.9123   16.6273 C   0  0  0  0  0  0  0  0  0  0  0  0
    4.4957   -9.2636   17.3041 C   0  0  0  0  0  0  0  0  0  0  0  0
   -1.8070   -5.6086   28.1920 O   0  0  0  0  0  0  0  0  0  0  0  0
   10.4296   -5.1799   28.3140 C   0  0  0  0  0  0  0  0  0  0  0  0
    6.6017   -5.9004   26.9187 C   0  0  0  0  0  0  0  0  0  0  0  0
    2.4761   -6.9940   26.4111 N   0  0  0  0  0  0  0  0  0  0  0  0
    9.1353   -5.4053   27.8239 C   0  0  0  0  0  0  0  0  0  0  0  0
    0.9922   -9.3232   16.5995 O   0  0  0  0  0  0  0  0  0  0  0  0
    1.5232   -7.6869   27.1182 C   0  0  0  0  0  0  0  0  0  0  0  0
    8.6878   -6.6715   27.7262 N   0  0  0  0  0  0  0  0  0  0  0  0
    6.9911   -8.2423   27.1808 C   0  0  0  0  0  0  0  0  0  0  0  0
    3.8436   -7.2758   16.0578 C   0  0  0  0  0  0  0  0  0  0  0  0
    3.1882   -9.7190   17.2566 C   0  0  0  0  0  0  0  0  0  0  0  0
    5.3488   -6.1737   26.5092 C   0  0  0  0  0  0  0  0  0  0  0  0
    7.4567   -6.9464   27.2858 C   0  0  0  0  0  0  0  0  0  0  0  0
    0.1921   -5.7592   27.1123 C   0  0  0  0  0  0  0  0  0  0  0  0
    3.5517   -7.7407   25.9711 C   0  0  0  0  0  0  0  0  0  0  0  0
  1  4  4  0
  1 22  4  0
  2 20  4  0
  2 27  4  0
  3 12  4  0
  3 23  4  0
  4 25  4  0
  4 28  1  0
  5  8  4  0
  5 17  4  0
  6  7  4  0
  6 16  4  0
  7 18  4  0
  8 27  4  0
  9 13  4  0
  9 23  4  0
 10 11  1  0
 11 14  2  0
 11 27  1  0
 12 19  1  0
 12 24  4  0
 13 24  4  0
 15 18  1  0
 16 25  4  0
 16 26  4  0
 17 20  4  0
 17 28  1  0
 18 21  4  0
 21 26  4  0
 22 26  4  0
M  END
$$$$

 Created by Python create_sdf_string function

 28 30  0  0  0  0  0  0  0  0999 V2000
    5.7174   -8.4529   26.7190 C   0  0  0  0  0  0  0  0  0  0  0  0
    0.3974   -7.0711   27.5149 C   0  0  0  0  0  0  0  0  0  0  0  0
    2.5338   -7.6891   16.0102 C   0  0  0  0  0  0  0  0  0  0  0  0
    4.8690   -7.4380   26.4151 C   0  0  0  0  0  0  0  0  0  0  0  0
    2.3021   -5.6726   26.0378 C   0  0  0  0  0  0  0  0  0  0  0  0
    7.0880   -4.6163   27.0010 C   0  0  0  0  0  0  0  0  0  0  0  0
    8.3117   -4.3698   27.4436 C   0  0  0  0  0  0  0  0  0  0  0  0
    1.1339   -5.0515   26.3541 C   0  0  0  0  0  0  0  0  0  0  0  0
    4.8080   -8.0362   16.7101 C   0  0  0  0  0  0  0  0  0  0  0  0
   -1.2173   -3.9294   26.9717 O   0  0  0  0  0  0  0  0  0  0  0  0
   -1.0025   -5.0942   27.4586 C   0  0  0  0  0  0  0  0  0  0  0  0
    2.2474   -8.9123   16.6273 C   0  0  0  0  0  0  0  0  0  0  0  0
    4.4957   -9.2636   17.3041 C   0  0  0  0  0  0  0  0  0  0  0  0
   -1.8070   -5.6086   28.1920 O   0  0  0  0  0  0  0  0  0  0  0  0
   10.4296   -5.1799   28.3140 C   0  0  0  0  0  0  0  0  0  0  0  0
    6.6017   -5.9004   26.9187 C   0  0  0  0  0  0  0  0  0  0  0  0
    2.4761   -6.9940   26.4111 N   0  0  0  0  0  0  0  0  0  0  0  0
    9.1353   -5.4053   27.8239 C   0  0  0  0  0  0  0  0  0  0  0  0
    0.9922   -9.3232   16.5995 O   0  0  0  0  0  0  0  0  0  0  0  0
    1.5232   -7.6869   27.1182 C   0  0  0  0  0  0  0  0  0  0  0  0
    8.6878   -6.6715   27.7262 N   0  0  0  0  0  0  0  0  0  0  0  0
    6.9911   -8.2423   27.1808 C   0  0  0  0  0  0  0  0  0  0  0  0
    3.8436   -7.2758   16.0578 C   0  0  0  0  0  0  0  0  0  0  0  0
    3.1882   -9.7190   17.2566 C   0  0  0  0  0  0  0  0  0  0  0  0
    5.3488   -6.1737   26.5092 C   0  0  0  0  0  0  0  0  0  0  0  0
    7.4567   -6.9464   27.2858 C   0  0  0  0  0  0  0  0  0  0  0  0
    0.1921   -5.7592   27.1123 C   0  0  0  0  0  0  0  0  0  0  0  0
    3.5517   -7.7407   25.9711 C   0  0  0  0  0  0  0  0  0  0  0  0
  1  4  4  0
  1 22  4  0
  2 20  4  0
  2 27  4  0
  3 12  4  0
  3 23  4  0
  4 25  4  0
  4 28  1  0
  5  8  4  0
  5 17  4  0
  6  7  4  0
  6 16  4  0
  7 18  4  0
  8 27  4  0
  9 13  4  0
  9 23  4  0
 10 11  1  0
 11 14  2  0
 11 27  1  0
 12 19  1  0
 12 24  4  0
 13 24  4  0
 15 18  1  0
 16 25  4  0
 16 26  4  0
 17 20  4  0
 17 28  1  0
 18 21  4  0
 21 26  4  0
 22 26  4  0
M  END
$$$$

 Created by Python create_sdf_string function

 28 30  0  0  0  0  0  0  0  0999 V2000
    5.7174   -8.4529   26.7190 C   0  0  0  0  0  0  0  0  0  0  0  0
    0.3974   -7.0711   27.5149 C   0  0  0  0  0  0  0  0  0  0  0  0
    2.5338   -7.6891   16.0102 C   0  0  0  0  0  0  0  0  0  0  0  0
    4.8690   -7.4380   26.4151 C   0  0  0  0  0  0  0  0  0  0  0  0
    2.3021   -5.6726   26.0378 C   0  0  0  0  0  0  0  0  0  0  0  0
    7.0880   -4.6163   27.0010 C   0  0  0  0  0  0  0  0  0  0  0  0
    8.3117   -4.3698   27.4436 C   0  0  0  0  0  0  0  0  0  0  0  0
    1.1339   -5.0515   26.3541 C   0  0  0  0  0  0  0  0  0  0  0  0
    4.8080   -8.0362   16.7101 C   0  0  0  0  0  0  0  0  0  0  0  0
   -1.2173   -3.9294   26.9717 O   0  0  0  0  0  0  0  0  0  0  0  0
   -1.0025   -5.0942   27.4586 C   0  0  0  0  0  0  0  0  0  0  0  0
    2.2474   -8.9123   16.6273 C   0  0  0  0  0  0  0  0  0  0  0  0
    4.4957   -9.2636   17.3041 C   0  0  0  0  0  0  0  0  0  0  0  0
   -1.8070   -5.6086   28.1920 O   0  0  0  0  0  0  0  0  0  0  0  0
   10.4296   -5.1799   28.3140 C   0  0  0  0  0  0  0  0  0  0  0  0
    6.6017   -5.9004   26.9187 C   0  0  0  0  0  0  0  0  0  0  0  0
    2.4761   -6.9940   26.4111 N   0  0  0  0  0  0  0  0  0  0  0  0
    9.1353   -5.4053   27.8239 C   0  0  0  0  0  0  0  0  0  0  0  0
    0.9922   -9.3232   16.5995 O   0  0  0  0  0  0  0  0  0  0  0  0
    1.5232   -7.6869   27.1182 C   0  0  0  0  0  0  0  0  0  0  0  0
    8.6878   -6.6715   27.7262 N   0  0  0  0  0  0  0  0  0  0  0  0
    6.9911   -8.2423   27.1808 C   0  0  0  0  0  0  0  0  0  0  0  0
    3.8436   -7.2758   16.0578 C   0  0  0  0  0  0  0  0  0  0  0  0
    3.1882   -9.7190   17.2566 C   0  0  0  0  0  0  0  0  0  0  0  0
    5.3488   -6.1737   26.5092 C   0  0  0  0  0  0  0  0  0  0  0  0
    7.4567   -6.9464   27.2858 C   0  0  0  0  0  0  0  0  0  0  0  0
    0.1921   -5.7592   27.1123 C   0  0  0  0  0  0  0  0  0  0  0  0
    3.5517   -7.7407   25.9711 C   0  0  0  0  0  0  0  0  0  0  0  0
  1  4  4  0
  1 22  4  0
  2 20  4  0
  2 27  4  0
  3 12  4  0
  3 23  4  0
  4 25  4  0
  4 28  1  0
  5  8  4  0
  5 17  4  0
  6  7  4  0
  6 16  4  0
  7 18  4  0
  8 27  4  0
  9 13  4  0
  9 23  4  0
 10 11  1  0
 11 14  2  0
 11 27  1  0
 12 19  1  0
 12 24  4  0
 13 24  4  0
 15 18  1  0
 16 25  4  0
 16 26  4  0
 17 20  4  0
 17 28  1  0
 18 21  4  0
 21 26  4  0
 22 26  4  0
M  END
$$$$

 Created by Python create_sdf_string function

 28 30  0  0  0  0  0  0  0  0999 V2000
    5.7174   -8.4529   26.7190 C   0  0  0  0  0  0  0  0  0  0  0  0
    0.3974   -7.0711   27.5149 C   0  0  0  0  0  0  0  0  0  0  0  0
    2.5338   -7.6891   16.0102 C   0  0  0  0  0  0  0  0  0  0  0  0
    4.8690   -7.4380   26.4151 C   0  0  0  0  0  0  0  0  0  0  0  0
    2.3021   -5.6726   26.0378 C   0  0  0  0  0  0  0  0  0  0  0  0
    7.0880   -4.6163   27.0010 C   0  0  0  0  0  0  0  0  0  0  0  0
    8.3117   -4.3698   27.4436 C   0  0  0  0  0  0  0  0  0  0  0  0
    1.1339   -5.0515   26.3541 C   0  0  0  0  0  0  0  0  0  0  0  0
    4.8080   -8.0362   16.7101 C   0  0  0  0  0  0  0  0  0  0  0  0
   -1.2173   -3.9294   26.9717 O   0  0  0  0  0  0  0  0  0  0  0  0
   -1.0025   -5.0942   27.4586 C   0  0  0  0  0  0  0  0  0  0  0  0
    2.2474   -8.9123   16.6273 C   0  0  0  0  0  0  0  0  0  0  0  0
    4.4957   -9.2636   17.3041 C   0  0  0  0  0  0  0  0  0  0  0  0
   -1.8070   -5.6086   28.1920 O   0  0  0  0  0  0  0  0  0  0  0  0
   10.4296   -5.1799   28.3140 C   0  0  0  0  0  0  0  0  0  0  0  0
    6.6017   -5.9004   26.9187 C   0  0  0  0  0  0  0  0  0  0  0  0
    2.4761   -6.9940   26.4111 N   0  0  0  0  0  0  0  0  0  0  0  0
    9.1353   -5.4053   27.8239 C   0  0  0  0  0  0  0  0  0  0  0  0
    0.9922   -9.3232   16.5995 O   0  0  0  0  0  0  0  0  0  0  0  0
    1.5232   -7.6869   27.1182 C   0  0  0  0  0  0  0  0  0  0  0  0
    8.6878   -6.6715   27.7262 N   0  0  0  0  0  0  0  0  0  0  0  0
    6.9911   -8.2423   27.1808 C   0  0  0  0  0  0  0  0  0  0  0  0
    3.8436   -7.2758   16.0578 C   0  0  0  0  0  0  0  0  0  0  0  0
    3.1882   -9.7190   17.2566 C   0  0  0  0  0  0  0  0  0  0  0  0
    5.3488   -6.1737   26.5092 C   0  0  0  0  0  0  0  0  0  0  0  0
    7.4567   -6.9464   27.2858 C   0  0  0  0  0  0  0  0  0  0  0  0
    0.1921   -5.7592   27.1123 C   0  0  0  0  0  0  0  0  0  0  0  0
    3.5517   -7.7407   25.9711 C   0  0  0  0  0  0  0  0  0  0  0  0
  1  4  4  0
  1 22  4  0
  2 20  4  0
  2 27  4  0
  3 12  4  0
  3 23  4  0
  4 25  4  0
  4 28  1  0
  5  8  4  0
  5 17  4  0
  6  7  4  0
  6 16  4  0
  7 18  4  0
  8 27  4  0
  9 13  4  0
  9 23  4  0
 10 11  1  0
 11 14  2  0
 11 27  1  0
 12 19  1  0
 12 24  4  0
 13 24  4  0
 15 18  1  0
 16 25  4  0
 16 26  4  0
 17 20  4  0
 17 28  1  0
 18 21  4  0
 21 26  4  0
 22 26  4  0
M  END
$$$$

 Created by Python create_sdf_string function

 28 30  0  0  0  0  0  0  0  0999 V2000
    5.7174   -8.4529   26.7190 C   0  0  0  0  0  0  0  0  0  0  0  0
    0.3974   -7.0711   27.5149 C   0  0  0  0  0  0  0  0  0  0  0  0
    2.5338   -7.6891   16.0102 C   0  0  0  0  0  0  0  0  0  0  0  0
    4.8690   -7.4380   26.4151 C   0  0  0  0  0  0  0  0  0  0  0  0
    2.3021   -5.6726   26.0378 C   0  0  0  0  0  0  0  0  0  0  0  0
    7.0880   -4.6163   27.0010 C   0  0  0  0  0  0  0  0  0  0  0  0
    8.3117   -4.3698   27.4436 C   0  0  0  0  0  0  0  0  0  0  0  0
    1.1339   -5.0515   26.3541 C   0  0  0  0  0  0  0  0  0  0  0  0
    4.8080   -8.0362   16.7101 C   0  0  0  0  0  0  0  0  0  0  0  0
   -1.2173   -3.9294   26.9717 O   0  0  0  0  0  0  0  0  0  0  0  0
   -1.0025   -5.0942   27.4586 C   0  0  0  0  0  0  0  0  0  0  0  0
    2.2474   -8.9123   16.6273 C   0  0  0  0  0  0  0  0  0  0  0  0
    4.4957   -9.2636   17.3041 C   0  0  0  0  0  0  0  0  0  0  0  0
   -1.8070   -5.6086   28.1920 O   0  0  0  0  0  0  0  0  0  0  0  0
   10.4296   -5.1799   28.3140 C   0  0  0  0  0  0  0  0  0  0  0  0
    6.6017   -5.9004   26.9187 C   0  0  0  0  0  0  0  0  0  0  0  0
    2.4761   -6.9940   26.4111 N   0  0  0  0  0  0  0  0  0  0  0  0
    9.1353   -5.4053   27.8239 C   0  0  0  0  0  0  0  0  0  0  0  0
    0.9922   -9.3232   16.5995 O   0  0  0  0  0  0  0  0  0  0  0  0
    1.5232   -7.6869   27.1182 C   0  0  0  0  0  0  0  0  0  0  0  0
    8.6878   -6.6715   27.7262 N   0  0  0  0  0  0  0  0  0  0  0  0
    6.9911   -8.2423   27.1808 C   0  0  0  0  0  0  0  0  0  0  0  0
    3.8436   -7.2758   16.0578 C   0  0  0  0  0  0  0  0  0  0  0  0
    3.1882   -9.7190   17.2566 C   0  0  0  0  0  0  0  0  0  0  0  0
    5.3488   -6.1737   26.5092 C   0  0  0  0  0  0  0  0  0  0  0  0
    7.4567   -6.9464   27.2858 C   0  0  0  0  0  0  0  0  0  0  0  0
    0.1921   -5.7592   27.1123 C   0  0  0  0  0  0  0  0  0  0  0  0
    3.5517   -7.7407   25.9711 C   0  0  0  0  0  0  0  0  0  0  0  0
  1  4  4  0
  1 22  4  0
  2 20  4  0
  2 27  4  0
  3 12  4  0
  3 23  4  0
  4 25  4  0
  4 28  1  0
  5  8  4  0
  5 17  4  0
  6  7  4  0
  6 16  4  0
  7 18  4  0
  8 27  4  0
  9 13  4  0
  9 23  4  0
 10 11  1  0
 11 14  2  0
 11 27  1  0
 12 19  1  0
 12 24  4  0
 13 24  4  0
 15 18  1  0
 16 25  4  0
 16 26  4  0
 17 20  4  0
 17 28  1  0
 18 21  4  0
 21 26  4  0
 22 26  4  0
M  END
$$$$

 Created by Python create_sdf_string function

 28 30  0  0  0  0  0  0  0  0999 V2000
    5.7174   -8.4529   26.7190 C   0  0  0  0  0  0  0  0  0  0  0  0
    0.3974   -7.0711   27.5149 C   0  0  0  0  0  0  0  0  0  0  0  0
    2.5338   -7.6891   16.0102 C   0  0  0  0  0  0  0  0  0  0  0  0
    4.8690   -7.4380   26.4151 C   0  0  0  0  0  0  0  0  0  0  0  0
    2.3021   -5.6726   26.0378 C   0  0  0  0  0  0  0  0  0  0  0  0
    7.0880   -4.6163   27.0010 C   0  0  0  0  0  0  0  0  0  0  0  0
    8.3117   -4.3698   27.4436 C   0  0  0  0  0  0  0  0  0  0  0  0
    1.1339   -5.0515   26.3541 C   0  0  0  0  0  0  0  0  0  0  0  0
    4.8080   -8.0362   16.7101 C   0  0  0  0  0  0  0  0  0  0  0  0
   -1.2173   -3.9294   26.9717 O   0  0  0  0  0  0  0  0  0  0  0  0
   -1.0025   -5.0942   27.4586 C   0  0  0  0  0  0  0  0  0  0  0  0
    2.2474   -8.9123   16.6273 C   0  0  0  0  0  0  0  0  0  0  0  0
    4.4957   -9.2636   17.3041 C   0  0  0  0  0  0  0  0  0  0  0  0
   -1.8070   -5.6086   28.1920 O   0  0  0  0  0  0  0  0  0  0  0  0
   10.4296   -5.1799   28.3140 C   0  0  0  0  0  0  0  0  0  0  0  0
    6.6017   -5.9004   26.9187 C   0  0  0  0  0  0  0  0  0  0  0  0
    2.4761   -6.9940   26.4111 N   0  0  0  0  0  0  0  0  0  0  0  0
    9.1353   -5.4053   27.8239 C   0  0  0  0  0  0  0  0  0  0  0  0
    0.9922   -9.3232   16.5995 O   0  0  0  0  0  0  0  0  0  0  0  0
    1.5232   -7.6869   27.1182 C   0  0  0  0  0  0  0  0  0  0  0  0
    8.6878   -6.6715   27.7262 N   0  0  0  0  0  0  0  0  0  0  0  0
    6.9911   -8.2423   27.1808 C   0  0  0  0  0  0  0  0  0  0  0  0
    3.8436   -7.2758   16.0578 C   0  0  0  0  0  0  0  0  0  0  0  0
    3.1882   -9.7190   17.2566 C   0  0  0  0  0  0  0  0  0  0  0  0
    5.3488   -6.1737   26.5092 C   0  0  0  0  0  0  0  0  0  0  0  0
    7.4567   -6.9464   27.2858 C   0  0  0  0  0  0  0  0  0  0  0  0
    0.1921   -5.7592   27.1123 C   0  0  0  0  0  0  0  0  0  0  0  0
    3.5517   -7.7407   25.9711 C   0  0  0  0  0  0  0  0  0  0  0  0
  1  4  4  0
  1 22  4  0
  2 20  4  0
  2 27  4  0
  3 12  4  0
  3 23  4  0
  4 25  4  0
  4 28  1  0
  5  8  4  0
  5 17  4  0
  6  7  4  0
  6 16  4  0
  7 18  4  0
  8 27  4  0
  9 13  4  0
  9 23  4  0
 10 11  1  0
 11 14  2  0
 11 27  1  0
 12 19  1  0
 12 24  4  0
 13 24  4  0
 15 18  1  0
 16 25  4  0
 16 26  4  0
 17 20  4  0
 17 28  1  0
 18 21  4  0
 21 26  4  0
 22 26  4  0
M  END
$$$$

 Created by Python create_sdf_string function

 28 30  0  0  0  0  0  0  0  0999 V2000
    5.7174   -8.4529   26.7190 C   0  0  0  0  0  0  0  0  0  0  0  0
    0.3974   -7.0711   27.5149 C   0  0  0  0  0  0  0  0  0  0  0  0
    2.5338   -7.6891   16.0102 C   0  0  0  0  0  0  0  0  0  0  0  0
    4.8690   -7.4380   26.4151 C   0  0  0  0  0  0  0  0  0  0  0  0
    2.3021   -5.6726   26.0378 C   0  0  0  0  0  0  0  0  0  0  0  0
    7.0880   -4.6163   27.0010 C   0  0  0  0  0  0  0  0  0  0  0  0
    8.3117   -4.3698   27.4436 C   0  0  0  0  0  0  0  0  0  0  0  0
    1.1339   -5.0515   26.3541 C   0  0  0  0  0  0  0  0  0  0  0  0
    4.8080   -8.0362   16.7101 C   0  0  0  0  0  0  0  0  0  0  0  0
   -1.2173   -3.9294   26.9717 O   0  0  0  0  0  0  0  0  0  0  0  0
   -1.0025   -5.0942   27.4586 C   0  0  0  0  0  0  0  0  0  0  0  0
    2.2474   -8.9123   16.6273 C   0  0  0  0  0  0  0  0  0  0  0  0
    4.4957   -9.2636   17.3041 C   0  0  0  0  0  0  0  0  0  0  0  0
   -1.8070   -5.6086   28.1920 O   0  0  0  0  0  0  0  0  0  0  0  0
   10.4296   -5.1799   28.3140 C   0  0  0  0  0  0  0  0  0  0  0  0
    6.6017   -5.9004   26.9187 C   0  0  0  0  0  0  0  0  0  0  0  0
    2.4761   -6.9940   26.4111 N   0  0  0  0  0  0  0  0  0  0  0  0
    9.1353   -5.4053   27.8239 C   0  0  0  0  0  0  0  0  0  0  0  0
    0.9922   -9.3232   16.5995 O   0  0  0  0  0  0  0  0  0  0  0  0
    1.5232   -7.6869   27.1182 C   0  0  0  0  0  0  0  0  0  0  0  0
    8.6878   -6.6715   27.7262 N   0  0  0  0  0  0  0  0  0  0  0  0
    6.9911   -8.2423   27.1808 C   0  0  0  0  0  0  0  0  0  0  0  0
    3.8436   -7.2758   16.0578 C   0  0  0  0  0  0  0  0  0  0  0  0
    3.1882   -9.7190   17.2566 C   0  0  0  0  0  0  0  0  0  0  0  0
    5.3488   -6.1737   26.5092 C   0  0  0  0  0  0  0  0  0  0  0  0
    7.4567   -6.9464   27.2858 C   0  0  0  0  0  0  0  0  0  0  0  0
    0.1921   -5.7592   27.1123 C   0  0  0  0  0  0  0  0  0  0  0  0
    3.5517   -7.7407   25.9711 C   0  0  0  0  0  0  0  0  0  0  0  0
  1  4  4  0
  1 22  4  0
  2 20  4  0
  2 27  4  0
  3 12  4  0
  3 23  4  0
  4 25  4  0
  4 28  1  0
  5  8  4  0
  5 17  4  0
  6  7  4  0
  6 16  4  0
  7 18  4  0
  8 27  4  0
  9 13  4  0
  9 23  4  0
 10 11  1  0
 11 14  2  0
 11 27  1  0
 12 19  1  0
 12 24  4  0
 13 24  4  0
 15 18  1  0
 16 25  4  0
 16 26  4  0
 17 20  4  0
 17 28  1  0
 18 21  4  0
 21 26  4  0
 22 26  4  0
M  END
$$$$

 Created by Python create_sdf_string function

 28 30  0  0  0  0  0  0  0  0999 V2000
    5.7174   -8.4529   26.7190 C   0  0  0  0  0  0  0  0  0  0  0  0
    0.3974   -7.0711   27.5149 C   0  0  0  0  0  0  0  0  0  0  0  0
    2.5338   -7.6891   16.0102 C   0  0  0  0  0  0  0  0  0  0  0  0
    4.8690   -7.4380   26.4151 C   0  0  0  0  0  0  0  0  0  0  0  0
    2.3021   -5.6726   26.0378 C   0  0  0  0  0  0  0  0  0  0  0  0
    7.0880   -4.6163   27.0010 C   0  0  0  0  0  0  0  0  0  0  0  0
    8.3117   -4.3698   27.4436 C   0  0  0  0  0  0  0  0  0  0  0  0
    1.1339   -5.0515   26.3541 C   0  0  0  0  0  0  0  0  0  0  0  0
    4.8080   -8.0362   16.7101 C   0  0  0  0  0  0  0  0  0  0  0  0
   -1.2173   -3.9294   26.9717 O   0  0  0  0  0  0  0  0  0  0  0  0
   -1.0025   -5.0942   27.4586 C   0  0  0  0  0  0  0  0  0  0  0  0
    2.2474   -8.9123   16.6273 C   0  0  0  0  0  0  0  0  0  0  0  0
    4.4957   -9.2636   17.3041 C   0  0  0  0  0  0  0  0  0  0  0  0
   -1.8070   -5.6086   28.1920 O   0  0  0  0  0  0  0  0  0  0  0  0
   10.4296   -5.1799   28.3140 C   0  0  0  0  0  0  0  0  0  0  0  0
    6.6017   -5.9004   26.9187 C   0  0  0  0  0  0  0  0  0  0  0  0
    2.4761   -6.9940   26.4111 N   0  0  0  0  0  0  0  0  0  0  0  0
    9.1353   -5.4053   27.8239 C   0  0  0  0  0  0  0  0  0  0  0  0
    0.9922   -9.3232   16.5995 O   0  0  0  0  0  0  0  0  0  0  0  0
    1.5232   -7.6869   27.1182 C   0  0  0  0  0  0  0  0  0  0  0  0
    8.6878   -6.6715   27.7262 N   0  0  0  0  0  0  0  0  0  0  0  0
    6.9911   -8.2423   27.1808 C   0  0  0  0  0  0  0  0  0  0  0  0
    3.8436   -7.2758   16.0578 C   0  0  0  0  0  0  0  0  0  0  0  0
    3.1882   -9.7190   17.2566 C   0  0  0  0  0  0  0  0  0  0  0  0
    5.3488   -6.1737   26.5092 C   0  0  0  0  0  0  0  0  0  0  0  0
    7.4567   -6.9464   27.2858 C   0  0  0  0  0  0  0  0  0  0  0  0
    0.1921   -5.7592   27.1123 C   0  0  0  0  0  0  0  0  0  0  0  0
    3.5517   -7.7407   25.9711 C   0  0  0  0  0  0  0  0  0  0  0  0
  1  4  4  0
  1 22  4  0
  2 20  4  0
  2 27  4  0
  3 12  4  0
  3 23  4  0
  4 25  4  0
  4 28  1  0
  5  8  4  0
  5 17  4  0
  6  7  4  0
  6 16  4  0
  7 18  4  0
  8 27  4  0
  9 13  4  0
  9 23  4  0
 10 11  1  0
 11 14  2  0
 11 27  1  0
 12 19  1  0
 12 24  4  0
 13 24  4  0
 15 18  1  0
 16 25  4  0
 16 26  4  0
 17 20  4  0
 17 28  1  0
 18 21  4  0
 21 26  4  0
 22 26  4  0
M  END
$$$$

 Created by Python create_sdf_string function

 28 30  0  0  0  0  0  0  0  0999 V2000
    5.7174   -8.4529   26.7190 C   0  0  0  0  0  0  0  0  0  0  0  0
    0.3974   -7.0711   27.5149 C   0  0  0  0  0  0  0  0  0  0  0  0
    2.5338   -7.6891   16.0102 C   0  0  0  0  0  0  0  0  0  0  0  0
    4.8690   -7.4380   26.4151 C   0  0  0  0  0  0  0  0  0  0  0  0
    2.3021   -5.6726   26.0378 C   0  0  0  0  0  0  0  0  0  0  0  0
    7.0880   -4.6163   27.0010 C   0  0  0  0  0  0  0  0  0  0  0  0
    8.3117   -4.3698   27.4436 C   0  0  0  0  0  0  0  0  0  0  0  0
    1.1339   -5.0515   26.3541 C   0  0  0  0  0  0  0  0  0  0  0  0
    4.8080   -8.0362   16.7101 C   0  0  0  0  0  0  0  0  0  0  0  0
   -1.2173   -3.9294   26.9717 O   0  0  0  0  0  0  0  0  0  0  0  0
   -1.0025   -5.0942   27.4586 C   0  0  0  0  0  0  0  0  0  0  0  0
    2.2474   -8.9123   16.6273 C   0  0  0  0  0  0  0  0  0  0  0  0
    4.4957   -9.2636   17.3041 C   0  0  0  0  0  0  0  0  0  0  0  0
   -1.8070   -5.6086   28.1920 O   0  0  0  0  0  0  0  0  0  0  0  0
   10.4296   -5.1799   28.3140 C   0  0  0  0  0  0  0  0  0  0  0  0
    6.6017   -5.9004   26.9187 C   0  0  0  0  0  0  0  0  0  0  0  0
    2.4761   -6.9940   26.4111 N   0  0  0  0  0  0  0  0  0  0  0  0
    9.1353   -5.4053   27.8239 C   0  0  0  0  0  0  0  0  0  0  0  0
    0.9922   -9.3232   16.5995 O   0  0  0  0  0  0  0  0  0  0  0  0
    1.5232   -7.6869   27.1182 C   0  0  0  0  0  0  0  0  0  0  0  0
    8.6878   -6.6715   27.7262 N   0  0  0  0  0  0  0  0  0  0  0  0
    6.9911   -8.2423   27.1808 C   0  0  0  0  0  0  0  0  0  0  0  0
    3.8436   -7.2758   16.0578 C   0  0  0  0  0  0  0  0  0  0  0  0
    3.1882   -9.7190   17.2566 C   0  0  0  0  0  0  0  0  0  0  0  0
    5.3488   -6.1737   26.5092 C   0  0  0  0  0  0  0  0  0  0  0  0
    7.4567   -6.9464   27.2858 C   0  0  0  0  0  0  0  0  0  0  0  0
    0.1921   -5.7592   27.1123 C   0  0  0  0  0  0  0  0  0  0  0  0
    3.5517   -7.7407   25.9711 C   0  0  0  0  0  0  0  0  0  0  0  0
  1  4  4  0
  1 22  4  0
  2 20  4  0
  2 27  4  0
  3 12  4  0
  3 23  4  0
  4 25  4  0
  4 28  1  0
  5  8  4  0
  5 17  4  0
  6  7  4  0
  6 16  4  0
  7 18  4  0
  8 27  4  0
  9 13  4  0
  9 23  4  0
 10 11  1  0
 11 14  2  0
 11 27  1  0
 12 19  1  0
 12 24  4  0
 13 24  4  0
 15 18  1  0
 16 25  4  0
 16 26  4  0
 17 20  4  0
 17 28  1  0
 18 21  4  0
 21 26  4  0
 22 26  4  0
M  END
$$$$

 Created by Python create_sdf_string function

 28 30  0  0  0  0  0  0  0  0999 V2000
    5.7174   -8.4529   26.7190 C   0  0  0  0  0  0  0  0  0  0  0  0
    0.3974   -7.0711   27.5149 C   0  0  0  0  0  0  0  0  0  0  0  0
    2.5338   -7.6891   16.0102 C   0  0  0  0  0  0  0  0  0  0  0  0
    4.8690   -7.4380   26.4151 C   0  0  0  0  0  0  0  0  0  0  0  0
    2.3021   -5.6726   26.0378 C   0  0  0  0  0  0  0  0  0  0  0  0
    7.0880   -4.6163   27.0010 C   0  0  0  0  0  0  0  0  0  0  0  0
    8.3117   -4.3698   27.4436 C   0  0  0  0  0  0  0  0  0  0  0  0
    1.1339   -5.0515   26.3541 C   0  0  0  0  0  0  0  0  0  0  0  0
    4.8080   -8.0362   16.7101 C   0  0  0  0  0  0  0  0  0  0  0  0
   -1.2173   -3.9294   26.9717 O   0  0  0  0  0  0  0  0  0  0  0  0
   -1.0025   -5.0942   27.4586 C   0  0  0  0  0  0  0  0  0  0  0  0
    2.2474   -8.9123   16.6273 C   0  0  0  0  0  0  0  0  0  0  0  0
    4.4957   -9.2636   17.3041 C   0  0  0  0  0  0  0  0  0  0  0  0
   -1.8070   -5.6086   28.1920 O   0  0  0  0  0  0  0  0  0  0  0  0
   10.4296   -5.1799   28.3140 C   0  0  0  0  0  0  0  0  0  0  0  0
    6.6017   -5.9004   26.9187 C   0  0  0  0  0  0  0  0  0  0  0  0
    2.4761   -6.9940   26.4111 N   0  0  0  0  0  0  0  0  0  0  0  0
    9.1353   -5.4053   27.8239 C   0  0  0  0  0  0  0  0  0  0  0  0
    0.9922   -9.3232   16.5995 O   0  0  0  0  0  0  0  0  0  0  0  0
    1.5232   -7.6869   27.1182 C   0  0  0  0  0  0  0  0  0  0  0  0
    8.6878   -6.6715   27.7262 N   0  0  0  0  0  0  0  0  0  0  0  0
    6.9911   -8.2423   27.1808 C   0  0  0  0  0  0  0  0  0  0  0  0
    3.8436   -7.2758   16.0578 C   0  0  0  0  0  0  0  0  0  0  0  0
    3.1882   -9.7190   17.2566 C   0  0  0  0  0  0  0  0  0  0  0  0
    5.3488   -6.1737   26.5092 C   0  0  0  0  0  0  0  0  0  0  0  0
    7.4567   -6.9464   27.2858 C   0  0  0  0  0  0  0  0  0  0  0  0
    0.1921   -5.7592   27.1123 C   0  0  0  0  0  0  0  0  0  0  0  0
    3.5517   -7.7407   25.9711 C   0  0  0  0  0  0  0  0  0  0  0  0
  1  4  4  0
  1 22  4  0
  2 20  4  0
  2 27  4  0
  3 12  4  0
  3 23  4  0
  4 25  4  0
  4 28  1  0
  5  8  4  0
  5 17  4  0
  6  7  4  0
  6 16  4  0
  7 18  4  0
  8 27  4  0
  9 13  4  0
  9 23  4  0
 10 11  1  0
 11 14  2  0
 11 27  1  0
 12 19  1  0
 12 24  4  0
 13 24  4  0
 15 18  1  0
 16 25  4  0
 16 26  4  0
 17 20  4  0
 17 28  1  0
 18 21  4  0
 21 26  4  0
 22 26  4  0
M  END
$$$$

 Created by Python create_sdf_string function

 28 30  0  0  0  0  0  0  0  0999 V2000
    5.7174   -8.4529   26.7190 C   0  0  0  0  0  0  0  0  0  0  0  0
    0.3974   -7.0711   27.5149 C   0  0  0  0  0  0  0  0  0  0  0  0
    2.5338   -7.6891   16.0102 C   0  0  0  0  0  0  0  0  0  0  0  0
    4.8690   -7.4380   26.4151 C   0  0  0  0  0  0  0  0  0  0  0  0
    2.3021   -5.6726   26.0378 C   0  0  0  0  0  0  0  0  0  0  0  0
    7.0880   -4.6163   27.0010 C   0  0  0  0  0  0  0  0  0  0  0  0
    8.3117   -4.3698   27.4436 C   0  0  0  0  0  0  0  0  0  0  0  0
    1.1339   -5.0515   26.3541 C   0  0  0  0  0  0  0  0  0  0  0  0
    4.8080   -8.0362   16.7101 C   0  0  0  0  0  0  0  0  0  0  0  0
   -1.2173   -3.9294   26.9717 O   0  0  0  0  0  0  0  0  0  0  0  0
   -1.0025   -5.0942   27.4586 C   0  0  0  0  0  0  0  0  0  0  0  0
    2.2474   -8.9123   16.6273 C   0  0  0  0  0  0  0  0  0  0  0  0
    4.4957   -9.2636   17.3041 C   0  0  0  0  0  0  0  0  0  0  0  0
   -1.8070   -5.6086   28.1920 O   0  0  0  0  0  0  0  0  0  0  0  0
   10.4296   -5.1799   28.3140 C   0  0  0  0  0  0  0  0  0  0  0  0
    6.6017   -5.9004   26.9187 C   0  0  0  0  0  0  0  0  0  0  0  0
    2.4761   -6.9940   26.4111 N   0  0  0  0  0  0  0  0  0  0  0  0
    9.1353   -5.4053   27.8239 C   0  0  0  0  0  0  0  0  0  0  0  0
    0.9922   -9.3232   16.5995 O   0  0  0  0  0  0  0  0  0  0  0  0
    1.5232   -7.6869   27.1182 C   0  0  0  0  0  0  0  0  0  0  0  0
    8.6878   -6.6715   27.7262 N   0  0  0  0  0  0  0  0  0  0  0  0
    6.9911   -8.2423   27.1808 C   0  0  0  0  0  0  0  0  0  0  0  0
    3.8436   -7.2758   16.0578 C   0  0  0  0  0  0  0  0  0  0  0  0
    3.1882   -9.7190   17.2566 C   0  0  0  0  0  0  0  0  0  0  0  0
    5.3488   -6.1737   26.5092 C   0  0  0  0  0  0  0  0  0  0  0  0
    7.4567   -6.9464   27.2858 C   0  0  0  0  0  0  0  0  0  0  0  0
    0.1921   -5.7592   27.1123 C   0  0  0  0  0  0  0  0  0  0  0  0
    3.5517   -7.7407   25.9711 C   0  0  0  0  0  0  0  0  0  0  0  0
  1  4  4  0
  1 22  4  0
  2 20  4  0
  2 27  4  0
  3 12  4  0
  3 23  4  0
  4 25  4  0
  4 28  1  0
  5  8  4  0
  5 17  4  0
  6  7  4  0
  6 16  4  0
  7 18  4  0
  8 27  4  0
  9 13  4  0
  9 23  4  0
 10 11  1  0
 11 14  2  0
 11 27  1  0
 12 19  1  0
 12 24  4  0
 13 24  4  0
 15 18  1  0
 16 25  4  0
 16 26  4  0
 17 20  4  0
 17 28  1  0
 18 21  4  0
 21 26  4  0
 22 26  4  0
M  END
$$$$

 Created by Python create_sdf_string function

 28 30  0  0  0  0  0  0  0  0999 V2000
    5.7174   -8.4529   26.7190 C   0  0  0  0  0  0  0  0  0  0  0  0
    0.3974   -7.0711   27.5149 C   0  0  0  0  0  0  0  0  0  0  0  0
    2.5338   -7.6891   16.0102 C   0  0  0  0  0  0  0  0  0  0  0  0
    4.8690   -7.4380   26.4151 C   0  0  0  0  0  0  0  0  0  0  0  0
    2.3021   -5.6726   26.0378 C   0  0  0  0  0  0  0  0  0  0  0  0
    7.0880   -4.6163   27.0010 C   0  0  0  0  0  0  0  0  0  0  0  0
    8.3117   -4.3698   27.4436 C   0  0  0  0  0  0  0  0  0  0  0  0
    1.1339   -5.0515   26.3541 C   0  0  0  0  0  0  0  0  0  0  0  0
    4.8080   -8.0362   16.7101 C   0  0  0  0  0  0  0  0  0  0  0  0
   -1.2173   -3.9294   26.9717 O   0  0  0  0  0  0  0  0  0  0  0  0
   -1.0025   -5.0942   27.4586 C   0  0  0  0  0  0  0  0  0  0  0  0
    2.2474   -8.9123   16.6273 C   0  0  0  0  0  0  0  0  0  0  0  0
    4.4957   -9.2636   17.3041 C   0  0  0  0  0  0  0  0  0  0  0  0
   -1.8070   -5.6086   28.1920 O   0  0  0  0  0  0  0  0  0  0  0  0
   10.4296   -5.1799   28.3140 C   0  0  0  0  0  0  0  0  0  0  0  0
    6.6017   -5.9004   26.9187 C   0  0  0  0  0  0  0  0  0  0  0  0
    2.4761   -6.9940   26.4111 N   0  0  0  0  0  0  0  0  0  0  0  0
    9.1353   -5.4053   27.8239 C   0  0  0  0  0  0  0  0  0  0  0  0
    0.9922   -9.3232   16.5995 O   0  0  0  0  0  0  0  0  0  0  0  0
    1.5232   -7.6869   27.1182 C   0  0  0  0  0  0  0  0  0  0  0  0
    8.6878   -6.6715   27.7262 N   0  0  0  0  0  0  0  0  0  0  0  0
    6.9911   -8.2423   27.1808 C   0  0  0  0  0  0  0  0  0  0  0  0
    3.8436   -7.2758   16.0578 C   0  0  0  0  0  0  0  0  0  0  0  0
    3.1882   -9.7190   17.2566 C   0  0  0  0  0  0  0  0  0  0  0  0
    5.3488   -6.1737   26.5092 C   0  0  0  0  0  0  0  0  0  0  0  0
    7.4567   -6.9464   27.2858 C   0  0  0  0  0  0  0  0  0  0  0  0
    0.1921   -5.7592   27.1123 C   0  0  0  0  0  0  0  0  0  0  0  0
    3.5517   -7.7407   25.9711 C   0  0  0  0  0  0  0  0  0  0  0  0
  1  4  4  0
  1 22  4  0
  2 20  4  0
  2 27  4  0
  3 12  4  0
  3 23  4  0
  4 25  4  0
  4 28  1  0
  5  8  4  0
  5 17  4  0
  6  7  4  0
  6 16  4  0
  7 18  4  0
  8 27  4  0
  9 13  4  0
  9 23  4  0
 10 11  1  0
 11 14  2  0
 11 27  1  0
 12 19  1  0
 12 24  4  0
 13 24  4  0
 15 18  1  0
 16 25  4  0
 16 26  4  0
 17 20  4  0
 17 28  1  0
 18 21  4  0
 21 26  4  0
 22 26  4  0
M  END
$$$$

 Created by Python create_sdf_string function

 28 30  0  0  0  0  0  0  0  0999 V2000
    5.7174   -8.4529   26.7190 C   0  0  0  0  0  0  0  0  0  0  0  0
    0.3974   -7.0711   27.5149 C   0  0  0  0  0  0  0  0  0  0  0  0
    2.5338   -7.6891   16.0102 C   0  0  0  0  0  0  0  0  0  0  0  0
    4.8690   -7.4380   26.4151 C   0  0  0  0  0  0  0  0  0  0  0  0
    2.3021   -5.6726   26.0378 C   0  0  0  0  0  0  0  0  0  0  0  0
    7.0880   -4.6163   27.0010 C   0  0  0  0  0  0  0  0  0  0  0  0
    8.3117   -4.3698   27.4436 C   0  0  0  0  0  0  0  0  0  0  0  0
    1.1339   -5.0515   26.3541 C   0  0  0  0  0  0  0  0  0  0  0  0
    4.8080   -8.0362   16.7101 C   0  0  0  0  0  0  0  0  0  0  0  0
   -1.2173   -3.9294   26.9717 O   0  0  0  0  0  0  0  0  0  0  0  0
   -1.0025   -5.0942   27.4586 C   0  0  0  0  0  0  0  0  0  0  0  0
    2.2474   -8.9123   16.6273 C   0  0  0  0  0  0  0  0  0  0  0  0
    4.4957   -9.2636   17.3041 C   0  0  0  0  0  0  0  0  0  0  0  0
   -1.8070   -5.6086   28.1920 O   0  0  0  0  0  0  0  0  0  0  0  0
   10.4296   -5.1799   28.3140 C   0  0  0  0  0  0  0  0  0  0  0  0
    6.6017   -5.9004   26.9187 C   0  0  0  0  0  0  0  0  0  0  0  0
    2.4761   -6.9940   26.4111 N   0  0  0  0  0  0  0  0  0  0  0  0
    9.1353   -5.4053   27.8239 C   0  0  0  0  0  0  0  0  0  0  0  0
    0.9922   -9.3232   16.5995 O   0  0  0  0  0  0  0  0  0  0  0  0
    1.5232   -7.6869   27.1182 C   0  0  0  0  0  0  0  0  0  0  0  0
    8.6878   -6.6715   27.7262 N   0  0  0  0  0  0  0  0  0  0  0  0
    6.9911   -8.2423   27.1808 C   0  0  0  0  0  0  0  0  0  0  0  0
    3.8436   -7.2758   16.0578 C   0  0  0  0  0  0  0  0  0  0  0  0
    3.1882   -9.7190   17.2566 C   0  0  0  0  0  0  0  0  0  0  0  0
    5.3488   -6.1737   26.5092 C   0  0  0  0  0  0  0  0  0  0  0  0
    7.4567   -6.9464   27.2858 C   0  0  0  0  0  0  0  0  0  0  0  0
    0.1921   -5.7592   27.1123 C   0  0  0  0  0  0  0  0  0  0  0  0
    3.5517   -7.7407   25.9711 C   0  0  0  0  0  0  0  0  0  0  0  0
  1  4  4  0
  1 22  4  0
  2 20  4  0
  2 27  4  0
  3 12  4  0
  3 23  4  0
  4 25  4  0
  4 28  1  0
  5  8  4  0
  5 17  4  0
  6  7  4  0
  6 16  4  0
  7 18  4  0
  8 27  4  0
  9 13  4  0
  9 23  4  0
 10 11  1  0
 11 14  2  0
 11 27  1  0
 12 19  1  0
 12 24  4  0
 13 24  4  0
 15 18  1  0
 16 25  4  0
 16 26  4  0
 17 20  4  0
 17 28  1  0
 18 21  4  0
 21 26  4  0
 22 26  4  0
M  END
$$$$

 Created by Python create_sdf_string function

 28 30  0  0  0  0  0  0  0  0999 V2000
    5.7174   -8.4529   26.7190 C   0  0  0  0  0  0  0  0  0  0  0  0
    0.3974   -7.0711   27.5149 C   0  0  0  0  0  0  0  0  0  0  0  0
    2.5338   -7.6891   16.0102 C   0  0  0  0  0  0  0  0  0  0  0  0
    4.8690   -7.4380   26.4151 C   0  0  0  0  0  0  0  0  0  0  0  0
    2.3021   -5.6726   26.0378 C   0  0  0  0  0  0  0  0  0  0  0  0
    7.0880   -4.6163   27.0010 C   0  0  0  0  0  0  0  0  0  0  0  0
    8.3117   -4.3698   27.4436 C   0  0  0  0  0  0  0  0  0  0  0  0
    1.1339   -5.0515   26.3541 C   0  0  0  0  0  0  0  0  0  0  0  0
    4.8080   -8.0362   16.7101 C   0  0  0  0  0  0  0  0  0  0  0  0
   -1.2173   -3.9294   26.9717 O   0  0  0  0  0  0  0  0  0  0  0  0
   -1.0025   -5.0942   27.4586 C   0  0  0  0  0  0  0  0  0  0  0  0
    2.2474   -8.9123   16.6273 C   0  0  0  0  0  0  0  0  0  0  0  0
    4.4957   -9.2636   17.3041 C   0  0  0  0  0  0  0  0  0  0  0  0
   -1.8070   -5.6086   28.1920 O   0  0  0  0  0  0  0  0  0  0  0  0
   10.4296   -5.1799   28.3140 C   0  0  0  0  0  0  0  0  0  0  0  0
    6.6017   -5.9004   26.9187 C   0  0  0  0  0  0  0  0  0  0  0  0
    2.4761   -6.9940   26.4111 N   0  0  0  0  0  0  0  0  0  0  0  0
    9.1353   -5.4053   27.8239 C   0  0  0  0  0  0  0  0  0  0  0  0
    0.9922   -9.3232   16.5995 O   0  0  0  0  0  0  0  0  0  0  0  0
    1.5232   -7.6869   27.1182 C   0  0  0  0  0  0  0  0  0  0  0  0
    8.6878   -6.6715   27.7262 N   0  0  0  0  0  0  0  0  0  0  0  0
    6.9911   -8.2423   27.1808 C   0  0  0  0  0  0  0  0  0  0  0  0
    3.8436   -7.2758   16.0578 C   0  0  0  0  0  0  0  0  0  0  0  0
    3.1882   -9.7190   17.2566 C   0  0  0  0  0  0  0  0  0  0  0  0
    5.3488   -6.1737   26.5092 C   0  0  0  0  0  0  0  0  0  0  0  0
    7.4567   -6.9464   27.2858 C   0  0  0  0  0  0  0  0  0  0  0  0
    0.1921   -5.7592   27.1123 C   0  0  0  0  0  0  0  0  0  0  0  0
    3.5517   -7.7407   25.9711 C   0  0  0  0  0  0  0  0  0  0  0  0
  1  4  4  0
  1 22  4  0
  2 20  4  0
  2 27  4  0
  3 12  4  0
  3 23  4  0
  4 25  4  0
  4 28  1  0
  5  8  4  0
  5 17  4  0
  6  7  4  0
  6 16  4  0
  7 18  4  0
  8 27  4  0
  9 13  4  0
  9 23  4  0
 10 11  1  0
 11 14  2  0
 11 27  1  0
 12 19  1  0
 12 24  4  0
 13 24  4  0
 15 18  1  0
 16 25  4  0
 16 26  4  0
 17 20  4  0
 17 28  1  0
 18 21  4  0
 21 26  4  0
 22 26  4  0
M  END
$$$$

 Created by Python create_sdf_string function

 28 30  0  0  0  0  0  0  0  0999 V2000
    5.7174   -8.4529   26.7190 C   0  0  0  0  0  0  0  0  0  0  0  0
    0.3974   -7.0711   27.5149 C   0  0  0  0  0  0  0  0  0  0  0  0
    2.5338   -7.6891   16.0102 C   0  0  0  0  0  0  0  0  0  0  0  0
    4.8690   -7.4380   26.4151 C   0  0  0  0  0  0  0  0  0  0  0  0
    2.3021   -5.6726   26.0378 C   0  0  0  0  0  0  0  0  0  0  0  0
    7.0880   -4.6163   27.0010 C   0  0  0  0  0  0  0  0  0  0  0  0
    8.3117   -4.3698   27.4436 C   0  0  0  0  0  0  0  0  0  0  0  0
    1.1339   -5.0515   26.3541 C   0  0  0  0  0  0  0  0  0  0  0  0
    4.8080   -8.0362   16.7101 C   0  0  0  0  0  0  0  0  0  0  0  0
   -1.2173   -3.9294   26.9717 O   0  0  0  0  0  0  0  0  0  0  0  0
   -1.0025   -5.0942   27.4586 C   0  0  0  0  0  0  0  0  0  0  0  0
    2.2474   -8.9123   16.6273 C   0  0  0  0  0  0  0  0  0  0  0  0
    4.4957   -9.2636   17.3041 C   0  0  0  0  0  0  0  0  0  0  0  0
   -1.8070   -5.6086   28.1920 O   0  0  0  0  0  0  0  0  0  0  0  0
   10.4296   -5.1799   28.3140 C   0  0  0  0  0  0  0  0  0  0  0  0
    6.6017   -5.9004   26.9187 C   0  0  0  0  0  0  0  0  0  0  0  0
    2.4761   -6.9940   26.4111 N   0  0  0  0  0  0  0  0  0  0  0  0
    9.1353   -5.4053   27.8239 C   0  0  0  0  0  0  0  0  0  0  0  0
    0.9922   -9.3232   16.5995 O   0  0  0  0  0  0  0  0  0  0  0  0
    1.5232   -7.6869   27.1182 C   0  0  0  0  0  0  0  0  0  0  0  0
    8.6878   -6.6715   27.7262 N   0  0  0  0  0  0  0  0  0  0  0  0
    6.9911   -8.2423   27.1808 C   0  0  0  0  0  0  0  0  0  0  0  0
    3.8436   -7.2758   16.0578 C   0  0  0  0  0  0  0  0  0  0  0  0
    3.1882   -9.7190   17.2566 C   0  0  0  0  0  0  0  0  0  0  0  0
    5.3488   -6.1737   26.5092 C   0  0  0  0  0  0  0  0  0  0  0  0
    7.4567   -6.9464   27.2858 C   0  0  0  0  0  0  0  0  0  0  0  0
    0.1921   -5.7592   27.1123 C   0  0  0  0  0  0  0  0  0  0  0  0
    3.5517   -7.7407   25.9711 C   0  0  0  0  0  0  0  0  0  0  0  0
  1  4  4  0
  1 22  4  0
  2 20  4  0
  2 27  4  0
  3 12  4  0
  3 23  4  0
  4 25  4  0
  4 28  1  0
  5  8  4  0
  5 17  4  0
  6  7  4  0
  6 16  4  0
  7 18  4  0
  8 27  4  0
  9 13  4  0
  9 23  4  0
 10 11  1  0
 11 14  2  0
 11 27  1  0
 12 19  1  0
 12 24  4  0
 13 24  4  0
 15 18  1  0
 16 25  4  0
 16 26  4  0
 17 20  4  0
 17 28  1  0
 18 21  4  0
 21 26  4  0
 22 26  4  0
M  END
$$$$

 Created by Python create_sdf_string function

 28 30  0  0  0  0  0  0  0  0999 V2000
    5.7174   -8.4529   26.7190 C   0  0  0  0  0  0  0  0  0  0  0  0
    0.3974   -7.0711   27.5149 C   0  0  0  0  0  0  0  0  0  0  0  0
    2.5338   -7.6891   16.0102 C   0  0  0  0  0  0  0  0  0  0  0  0
    4.8690   -7.4380   26.4151 C   0  0  0  0  0  0  0  0  0  0  0  0
    2.3021   -5.6726   26.0378 C   0  0  0  0  0  0  0  0  0  0  0  0
    7.0880   -4.6163   27.0010 C   0  0  0  0  0  0  0  0  0  0  0  0
    8.3117   -4.3698   27.4436 C   0  0  0  0  0  0  0  0  0  0  0  0
    1.1339   -5.0515   26.3541 C   0  0  0  0  0  0  0  0  0  0  0  0
    4.8080   -8.0362   16.7101 C   0  0  0  0  0  0  0  0  0  0  0  0
   -1.2173   -3.9294   26.9717 O   0  0  0  0  0  0  0  0  0  0  0  0
   -1.0025   -5.0942   27.4586 C   0  0  0  0  0  0  0  0  0  0  0  0
    2.2474   -8.9123   16.6273 C   0  0  0  0  0  0  0  0  0  0  0  0
    4.4957   -9.2636   17.3041 C   0  0  0  0  0  0  0  0  0  0  0  0
   -1.8070   -5.6086   28.1920 O   0  0  0  0  0  0  0  0  0  0  0  0
   10.4296   -5.1799   28.3140 C   0  0  0  0  0  0  0  0  0  0  0  0
    6.6017   -5.9004   26.9187 C   0  0  0  0  0  0  0  0  0  0  0  0
    2.4761   -6.9940   26.4111 N   0  0  0  0  0  0  0  0  0  0  0  0
    9.1353   -5.4053   27.8239 C   0  0  0  0  0  0  0  0  0  0  0  0
    0.9922   -9.3232   16.5995 O   0  0  0  0  0  0  0  0  0  0  0  0
    1.5232   -7.6869   27.1182 C   0  0  0  0  0  0  0  0  0  0  0  0
    8.6878   -6.6715   27.7262 N   0  0  0  0  0  0  0  0  0  0  0  0
    6.9911   -8.2423   27.1808 C   0  0  0  0  0  0  0  0  0  0  0  0
    3.8436   -7.2758   16.0578 C   0  0  0  0  0  0  0  0  0  0  0  0
    3.1882   -9.7190   17.2566 C   0  0  0  0  0  0  0  0  0  0  0  0
    5.3488   -6.1737   26.5092 C   0  0  0  0  0  0  0  0  0  0  0  0
    7.4567   -6.9464   27.2858 C   0  0  0  0  0  0  0  0  0  0  0  0
    0.1921   -5.7592   27.1123 C   0  0  0  0  0  0  0  0  0  0  0  0
    3.5517   -7.7407   25.9711 C   0  0  0  0  0  0  0  0  0  0  0  0
  1  4  4  0
  1 22  4  0
  2 20  4  0
  2 27  4  0
  3 12  4  0
  3 23  4  0
  4 25  4  0
  4 28  1  0
  5  8  4  0
  5 17  4  0
  6  7  4  0
  6 16  4  0
  7 18  4  0
  8 27  4  0
  9 13  4  0
  9 23  4  0
 10 11  1  0
 11 14  2  0
 11 27  1  0
 12 19  1  0
 12 24  4  0
 13 24  4  0
 15 18  1  0
 16 25  4  0
 16 26  4  0
 17 20  4  0
 17 28  1  0
 18 21  4  0
 21 26  4  0
 22 26  4  0
M  END
$$$$

 Created by Python create_sdf_string function

 28 30  0  0  0  0  0  0  0  0999 V2000
    5.7174   -8.4529   26.7190 C   0  0  0  0  0  0  0  0  0  0  0  0
    0.3974   -7.0711   27.5149 C   0  0  0  0  0  0  0  0  0  0  0  0
    2.5338   -7.6891   16.0102 C   0  0  0  0  0  0  0  0  0  0  0  0
    4.8690   -7.4380   26.4151 C   0  0  0  0  0  0  0  0  0  0  0  0
    2.3021   -5.6726   26.0378 C   0  0  0  0  0  0  0  0  0  0  0  0
    7.0880   -4.6163   27.0010 C   0  0  0  0  0  0  0  0  0  0  0  0
    8.3117   -4.3698   27.4436 C   0  0  0  0  0  0  0  0  0  0  0  0
    1.1339   -5.0515   26.3541 C   0  0  0  0  0  0  0  0  0  0  0  0
    4.8080   -8.0362   16.7101 C   0  0  0  0  0  0  0  0  0  0  0  0
   -1.2173   -3.9294   26.9717 O   0  0  0  0  0  0  0  0  0  0  0  0
   -1.0025   -5.0942   27.4586 C   0  0  0  0  0  0  0  0  0  0  0  0
    2.2474   -8.9123   16.6273 C   0  0  0  0  0  0  0  0  0  0  0  0
    4.4957   -9.2636   17.3041 C   0  0  0  0  0  0  0  0  0  0  0  0
   -1.8070   -5.6086   28.1920 O   0  0  0  0  0  0  0  0  0  0  0  0
   10.4296   -5.1799   28.3140 C   0  0  0  0  0  0  0  0  0  0  0  0
    6.6017   -5.9004   26.9187 C   0  0  0  0  0  0  0  0  0  0  0  0
    2.4761   -6.9940   26.4111 N   0  0  0  0  0  0  0  0  0  0  0  0
    9.1353   -5.4053   27.8239 C   0  0  0  0  0  0  0  0  0  0  0  0
    0.9922   -9.3232   16.5995 O   0  0  0  0  0  0  0  0  0  0  0  0
    1.5232   -7.6869   27.1182 C   0  0  0  0  0  0  0  0  0  0  0  0
    8.6878   -6.6715   27.7262 N   0  0  0  0  0  0  0  0  0  0  0  0
    6.9911   -8.2423   27.1808 C   0  0  0  0  0  0  0  0  0  0  0  0
    3.8436   -7.2758   16.0578 C   0  0  0  0  0  0  0  0  0  0  0  0
    3.1882   -9.7190   17.2566 C   0  0  0  0  0  0  0  0  0  0  0  0
    5.3488   -6.1737   26.5092 C   0  0  0  0  0  0  0  0  0  0  0  0
    7.4567   -6.9464   27.2858 C   0  0  0  0  0  0  0  0  0  0  0  0
    0.1921   -5.7592   27.1123 C   0  0  0  0  0  0  0  0  0  0  0  0
    3.5517   -7.7407   25.9711 C   0  0  0  0  0  0  0  0  0  0  0  0
  1  4  4  0
  1 22  4  0
  2 20  4  0
  2 27  4  0
  3 12  4  0
  3 23  4  0
  4 25  4  0
  4 28  1  0
  5  8  4  0
  5 17  4  0
  6  7  4  0
  6 16  4  0
  7 18  4  0
  8 27  4  0
  9 13  4  0
  9 23  4  0
 10 11  1  0
 11 14  2  0
 11 27  1  0
 12 19  1  0
 12 24  4  0
 13 24  4  0
 15 18  1  0
 16 25  4  0
 16 26  4  0
 17 20  4  0
 17 28  1  0
 18 21  4  0
 21 26  4  0
 22 26  4  0
M  END
$$$$

 Created by Python create_sdf_string function

 28 30  0  0  0  0  0  0  0  0999 V2000
    5.7174   -8.4529   26.7190 C   0  0  0  0  0  0  0  0  0  0  0  0
    0.3974   -7.0711   27.5149 C   0  0  0  0  0  0  0  0  0  0  0  0
    2.5338   -7.6891   16.0102 C   0  0  0  0  0  0  0  0  0  0  0  0
    4.8690   -7.4380   26.4151 C   0  0  0  0  0  0  0  0  0  0  0  0
    2.3021   -5.6726   26.0378 C   0  0  0  0  0  0  0  0  0  0  0  0
    7.0880   -4.6163   27.0010 C   0  0  0  0  0  0  0  0  0  0  0  0
    8.3117   -4.3698   27.4436 C   0  0  0  0  0  0  0  0  0  0  0  0
    1.1339   -5.0515   26.3541 C   0  0  0  0  0  0  0  0  0  0  0  0
    4.8080   -8.0362   16.7101 C   0  0  0  0  0  0  0  0  0  0  0  0
   -1.2173   -3.9294   26.9717 O   0  0  0  0  0  0  0  0  0  0  0  0
   -1.0025   -5.0942   27.4586 C   0  0  0  0  0  0  0  0  0  0  0  0
    2.2474   -8.9123   16.6273 C   0  0  0  0  0  0  0  0  0  0  0  0
    4.4957   -9.2636   17.3041 C   0  0  0  0  0  0  0  0  0  0  0  0
   -1.8070   -5.6086   28.1920 O   0  0  0  0  0  0  0  0  0  0  0  0
   10.4296   -5.1799   28.3140 C   0  0  0  0  0  0  0  0  0  0  0  0
    6.6017   -5.9004   26.9187 C   0  0  0  0  0  0  0  0  0  0  0  0
    2.4761   -6.9940   26.4111 N   0  0  0  0  0  0  0  0  0  0  0  0
    9.1353   -5.4053   27.8239 C   0  0  0  0  0  0  0  0  0  0  0  0
    0.9922   -9.3232   16.5995 O   0  0  0  0  0  0  0  0  0  0  0  0
    1.5232   -7.6869   27.1182 C   0  0  0  0  0  0  0  0  0  0  0  0
    8.6878   -6.6715   27.7262 N   0  0  0  0  0  0  0  0  0  0  0  0
    6.9911   -8.2423   27.1808 C   0  0  0  0  0  0  0  0  0  0  0  0
    3.8436   -7.2758   16.0578 C   0  0  0  0  0  0  0  0  0  0  0  0
    3.1882   -9.7190   17.2566 C   0  0  0  0  0  0  0  0  0  0  0  0
    5.3488   -6.1737   26.5092 C   0  0  0  0  0  0  0  0  0  0  0  0
    7.4567   -6.9464   27.2858 C   0  0  0  0  0  0  0  0  0  0  0  0
    0.1921   -5.7592   27.1123 C   0  0  0  0  0  0  0  0  0  0  0  0
    3.5517   -7.7407   25.9711 C   0  0  0  0  0  0  0  0  0  0  0  0
  1  4  4  0
  1 22  4  0
  2 20  4  0
  2 27  4  0
  3 12  4  0
  3 23  4  0
  4 25  4  0
  4 28  1  0
  5  8  4  0
  5 17  4  0
  6  7  4  0
  6 16  4  0
  7 18  4  0
  8 27  4  0
  9 13  4  0
  9 23  4  0
 10 11  1  0
 11 14  2  0
 11 27  1  0
 12 19  1  0
 12 24  4  0
 13 24  4  0
 15 18  1  0
 16 25  4  0
 16 26  4  0
 17 20  4  0
 17 28  1  0
 18 21  4  0
 21 26  4  0
 22 26  4  0
M  END
$$$$

 Created by Python create_sdf_string function

 28 30  0  0  0  0  0  0  0  0999 V2000
    5.7174   -8.4529   26.7190 C   0  0  0  0  0  0  0  0  0  0  0  0
    0.3974   -7.0711   27.5149 C   0  0  0  0  0  0  0  0  0  0  0  0
    2.5338   -7.6891   16.0102 C   0  0  0  0  0  0  0  0  0  0  0  0
    4.8690   -7.4380   26.4151 C   0  0  0  0  0  0  0  0  0  0  0  0
    2.3021   -5.6726   26.0378 C   0  0  0  0  0  0  0  0  0  0  0  0
    7.0880   -4.6163   27.0010 C   0  0  0  0  0  0  0  0  0  0  0  0
    8.3117   -4.3698   27.4436 C   0  0  0  0  0  0  0  0  0  0  0  0
    1.1339   -5.0515   26.3541 C   0  0  0  0  0  0  0  0  0  0  0  0
    4.8080   -8.0362   16.7101 C   0  0  0  0  0  0  0  0  0  0  0  0
   -1.2173   -3.9294   26.9717 O   0  0  0  0  0  0  0  0  0  0  0  0
   -1.0025   -5.0942   27.4586 C   0  0  0  0  0  0  0  0  0  0  0  0
    2.2474   -8.9123   16.6273 C   0  0  0  0  0  0  0  0  0  0  0  0
    4.4957   -9.2636   17.3041 C   0  0  0  0  0  0  0  0  0  0  0  0
   -1.8070   -5.6086   28.1920 O   0  0  0  0  0  0  0  0  0  0  0  0
   10.4296   -5.1799   28.3140 C   0  0  0  0  0  0  0  0  0  0  0  0
    6.6017   -5.9004   26.9187 C   0  0  0  0  0  0  0  0  0  0  0  0
    2.4761   -6.9940   26.4111 N   0  0  0  0  0  0  0  0  0  0  0  0
    9.1353   -5.4053   27.8239 C   0  0  0  0  0  0  0  0  0  0  0  0
    0.9922   -9.3232   16.5995 O   0  0  0  0  0  0  0  0  0  0  0  0
    1.5232   -7.6869   27.1182 C   0  0  0  0  0  0  0  0  0  0  0  0
    8.6878   -6.6715   27.7262 N   0  0  0  0  0  0  0  0  0  0  0  0
    6.9911   -8.2423   27.1808 C   0  0  0  0  0  0  0  0  0  0  0  0
    3.8436   -7.2758   16.0578 C   0  0  0  0  0  0  0  0  0  0  0  0
    3.1882   -9.7190   17.2566 C   0  0  0  0  0  0  0  0  0  0  0  0
    5.3488   -6.1737   26.5092 C   0  0  0  0  0  0  0  0  0  0  0  0
    7.4567   -6.9464   27.2858 C   0  0  0  0  0  0  0  0  0  0  0  0
    0.1921   -5.7592   27.1123 C   0  0  0  0  0  0  0  0  0  0  0  0
    3.5517   -7.7407   25.9711 C   0  0  0  0  0  0  0  0  0  0  0  0
  1  4  4  0
  1 22  4  0
  2 20  4  0
  2 27  4  0
  3 12  4  0
  3 23  4  0
  4 25  4  0
  4 28  1  0
  5  8  4  0
  5 17  4  0
  6  7  4  0
  6 16  4  0
  7 18  4  0
  8 27  4  0
  9 13  4  0
  9 23  4  0
 10 11  1  0
 11 14  2  0
 11 27  1  0
 12 19  1  0
 12 24  4  0
 13 24  4  0
 15 18  1  0
 16 25  4  0
 16 26  4  0
 17 20  4  0
 17 28  1  0
 18 21  4  0
 21 26  4  0
 22 26  4  0
M  END
$$$$

 Created by Python create_sdf_string function

 28 30  0  0  0  0  0  0  0  0999 V2000
    5.7174   -8.4529   26.7190 C   0  0  0  0  0  0  0  0  0  0  0  0
    0.3974   -7.0711   27.5149 C   0  0  0  0  0  0  0  0  0  0  0  0
    2.5338   -7.6891   16.0102 C   0  0  0  0  0  0  0  0  0  0  0  0
    4.8690   -7.4380   26.4151 C   0  0  0  0  0  0  0  0  0  0  0  0
    2.3021   -5.6726   26.0378 C   0  0  0  0  0  0  0  0  0  0  0  0
    7.0880   -4.6163   27.0010 C   0  0  0  0  0  0  0  0  0  0  0  0
    8.3117   -4.3698   27.4436 C   0  0  0  0  0  0  0  0  0  0  0  0
    1.1339   -5.0515   26.3541 C   0  0  0  0  0  0  0  0  0  0  0  0
    4.8080   -8.0362   16.7101 C   0  0  0  0  0  0  0  0  0  0  0  0
   -1.2173   -3.9294   26.9717 O   0  0  0  0  0  0  0  0  0  0  0  0
   -1.0025   -5.0942   27.4586 C   0  0  0  0  0  0  0  0  0  0  0  0
    2.2474   -8.9123   16.6273 C   0  0  0  0  0  0  0  0  0  0  0  0
    4.4957   -9.2636   17.3041 C   0  0  0  0  0  0  0  0  0  0  0  0
   -1.8070   -5.6086   28.1920 O   0  0  0  0  0  0  0  0  0  0  0  0
   10.4296   -5.1799   28.3140 C   0  0  0  0  0  0  0  0  0  0  0  0
    6.6017   -5.9004   26.9187 C   0  0  0  0  0  0  0  0  0  0  0  0
    2.4761   -6.9940   26.4111 N   0  0  0  0  0  0  0  0  0  0  0  0
    9.1353   -5.4053   27.8239 C   0  0  0  0  0  0  0  0  0  0  0  0
    0.9922   -9.3232   16.5995 O   0  0  0  0  0  0  0  0  0  0  0  0
    1.5232   -7.6869   27.1182 C   0  0  0  0  0  0  0  0  0  0  0  0
    8.6878   -6.6715   27.7262 N   0  0  0  0  0  0  0  0  0  0  0  0
    6.9911   -8.2423   27.1808 C   0  0  0  0  0  0  0  0  0  0  0  0
    3.8436   -7.2758   16.0578 C   0  0  0  0  0  0  0  0  0  0  0  0
    3.1882   -9.7190   17.2566 C   0  0  0  0  0  0  0  0  0  0  0  0
    5.3488   -6.1737   26.5092 C   0  0  0  0  0  0  0  0  0  0  0  0
    7.4567   -6.9464   27.2858 C   0  0  0  0  0  0  0  0  0  0  0  0
    0.1921   -5.7592   27.1123 C   0  0  0  0  0  0  0  0  0  0  0  0
    3.5517   -7.7407   25.9711 C   0  0  0  0  0  0  0  0  0  0  0  0
  1  4  4  0
  1 22  4  0
  2 20  4  0
  2 27  4  0
  3 12  4  0
  3 23  4  0
  4 25  4  0
  4 28  1  0
  5  8  4  0
  5 17  4  0
  6  7  4  0
  6 16  4  0
  7 18  4  0
  8 27  4  0
  9 13  4  0
  9 23  4  0
 10 11  1  0
 11 14  2  0
 11 27  1  0
 12 19  1  0
 12 24  4  0
 13 24  4  0
 15 18  1  0
 16 25  4  0
 16 26  4  0
 17 20  4  0
 17 28  1  0
 18 21  4  0
 21 26  4  0
 22 26  4  0
M  END
$$$$

 Created by Python create_sdf_string function

 28 30  0  0  0  0  0  0  0  0999 V2000
    5.7174   -8.4529   26.7190 C   0  0  0  0  0  0  0  0  0  0  0  0
    0.3974   -7.0711   27.5149 C   0  0  0  0  0  0  0  0  0  0  0  0
    2.5338   -7.6891   16.0102 C   0  0  0  0  0  0  0  0  0  0  0  0
    4.8690   -7.4380   26.4151 C   0  0  0  0  0  0  0  0  0  0  0  0
    2.3021   -5.6726   26.0378 C   0  0  0  0  0  0  0  0  0  0  0  0
    7.0880   -4.6163   27.0010 C   0  0  0  0  0  0  0  0  0  0  0  0
    8.3117   -4.3698   27.4436 C   0  0  0  0  0  0  0  0  0  0  0  0
    1.1339   -5.0515   26.3541 C   0  0  0  0  0  0  0  0  0  0  0  0
    4.8080   -8.0362   16.7101 C   0  0  0  0  0  0  0  0  0  0  0  0
   -1.2173   -3.9294   26.9717 O   0  0  0  0  0  0  0  0  0  0  0  0
   -1.0025   -5.0942   27.4586 C   0  0  0  0  0  0  0  0  0  0  0  0
    2.2474   -8.9123   16.6273 C   0  0  0  0  0  0  0  0  0  0  0  0
    4.4957   -9.2636   17.3041 C   0  0  0  0  0  0  0  0  0  0  0  0
   -1.8070   -5.6086   28.1920 O   0  0  0  0  0  0  0  0  0  0  0  0
   10.4296   -5.1799   28.3140 C   0  0  0  0  0  0  0  0  0  0  0  0
    6.6017   -5.9004   26.9187 C   0  0  0  0  0  0  0  0  0  0  0  0
    2.4761   -6.9940   26.4111 N   0  0  0  0  0  0  0  0  0  0  0  0
    9.1353   -5.4053   27.8239 C   0  0  0  0  0  0  0  0  0  0  0  0
    0.9922   -9.3232   16.5995 O   0  0  0  0  0  0  0  0  0  0  0  0
    1.5232   -7.6869   27.1182 C   0  0  0  0  0  0  0  0  0  0  0  0
    8.6878   -6.6715   27.7262 N   0  0  0  0  0  0  0  0  0  0  0  0
    6.9911   -8.2423   27.1808 C   0  0  0  0  0  0  0  0  0  0  0  0
    3.8436   -7.2758   16.0578 C   0  0  0  0  0  0  0  0  0  0  0  0
    3.1882   -9.7190   17.2566 C   0  0  0  0  0  0  0  0  0  0  0  0
    5.3488   -6.1737   26.5092 C   0  0  0  0  0  0  0  0  0  0  0  0
    7.4567   -6.9464   27.2858 C   0  0  0  0  0  0  0  0  0  0  0  0
    0.1921   -5.7592   27.1123 C   0  0  0  0  0  0  0  0  0  0  0  0
    3.5517   -7.7407   25.9711 C   0  0  0  0  0  0  0  0  0  0  0  0
  1  4  4  0
  1 22  4  0
  2 20  4  0
  2 27  4  0
  3 12  4  0
  3 23  4  0
  4 25  4  0
  4 28  1  0
  5  8  4  0
  5 17  4  0
  6  7  4  0
  6 16  4  0
  7 18  4  0
  8 27  4  0
  9 13  4  0
  9 23  4  0
 10 11  1  0
 11 14  2  0
 11 27  1  0
 12 19  1  0
 12 24  4  0
 13 24  4  0
 15 18  1  0
 16 25  4  0
 16 26  4  0
 17 20  4  0
 17 28  1  0
 18 21  4  0
 21 26  4  0
 22 26  4  0
M  END
$$$$

 Created by Python create_sdf_string function

 28 30  0  0  0  0  0  0  0  0999 V2000
    5.7174   -8.4529   26.7190 C   0  0  0  0  0  0  0  0  0  0  0  0
    0.3974   -7.0711   27.5149 C   0  0  0  0  0  0  0  0  0  0  0  0
    2.5338   -7.6891   16.0102 C   0  0  0  0  0  0  0  0  0  0  0  0
    4.8690   -7.4380   26.4151 C   0  0  0  0  0  0  0  0  0  0  0  0
    2.3021   -5.6726   26.0378 C   0  0  0  0  0  0  0  0  0  0  0  0
    7.0880   -4.6163   27.0010 C   0  0  0  0  0  0  0  0  0  0  0  0
    8.3117   -4.3698   27.4436 C   0  0  0  0  0  0  0  0  0  0  0  0
    1.1339   -5.0515   26.3541 C   0  0  0  0  0  0  0  0  0  0  0  0
    4.8080   -8.0362   16.7101 C   0  0  0  0  0  0  0  0  0  0  0  0
   -1.2173   -3.9294   26.9717 O   0  0  0  0  0  0  0  0  0  0  0  0
   -1.0025   -5.0942   27.4586 C   0  0  0  0  0  0  0  0  0  0  0  0
    2.2474   -8.9123   16.6273 C   0  0  0  0  0  0  0  0  0  0  0  0
    4.4957   -9.2636   17.3041 C   0  0  0  0  0  0  0  0  0  0  0  0
   -1.8070   -5.6086   28.1920 O   0  0  0  0  0  0  0  0  0  0  0  0
   10.4296   -5.1799   28.3140 C   0  0  0  0  0  0  0  0  0  0  0  0
    6.6017   -5.9004   26.9187 C   0  0  0  0  0  0  0  0  0  0  0  0
    2.4761   -6.9940   26.4111 N   0  0  0  0  0  0  0  0  0  0  0  0
    9.1353   -5.4053   27.8239 C   0  0  0  0  0  0  0  0  0  0  0  0
    0.9922   -9.3232   16.5995 O   0  0  0  0  0  0  0  0  0  0  0  0
    1.5232   -7.6869   27.1182 C   0  0  0  0  0  0  0  0  0  0  0  0
    8.6878   -6.6715   27.7262 N   0  0  0  0  0  0  0  0  0  0  0  0
    6.9911   -8.2423   27.1808 C   0  0  0  0  0  0  0  0  0  0  0  0
    3.8436   -7.2758   16.0578 C   0  0  0  0  0  0  0  0  0  0  0  0
    3.1882   -9.7190   17.2566 C   0  0  0  0  0  0  0  0  0  0  0  0
    5.3488   -6.1737   26.5092 C   0  0  0  0  0  0  0  0  0  0  0  0
    7.4567   -6.9464   27.2858 C   0  0  0  0  0  0  0  0  0  0  0  0
    0.1921   -5.7592   27.1123 C   0  0  0  0  0  0  0  0  0  0  0  0
    3.5517   -7.7407   25.9711 C   0  0  0  0  0  0  0  0  0  0  0  0
  1  4  4  0
  1 22  4  0
  2 20  4  0
  2 27  4  0
  3 12  4  0
  3 23  4  0
  4 25  4  0
  4 28  1  0
  5  8  4  0
  5 17  4  0
  6  7  4  0
  6 16  4  0
  7 18  4  0
  8 27  4  0
  9 13  4  0
  9 23  4  0
 10 11  1  0
 11 14  2  0
 11 27  1  0
 12 19  1  0
 12 24  4  0
 13 24  4  0
 15 18  1  0
 16 25  4  0
 16 26  4  0
 17 20  4  0
 17 28  1  0
 18 21  4  0
 21 26  4  0
 22 26  4  0
M  END
$$$$

 Created by Python create_sdf_string function

 28 30  0  0  0  0  0  0  0  0999 V2000
    5.7174   -8.4529   26.7190 C   0  0  0  0  0  0  0  0  0  0  0  0
    0.3974   -7.0711   27.5149 C   0  0  0  0  0  0  0  0  0  0  0  0
    2.5338   -7.6891   16.0102 C   0  0  0  0  0  0  0  0  0  0  0  0
    4.8690   -7.4380   26.4151 C   0  0  0  0  0  0  0  0  0  0  0  0
    2.3021   -5.6726   26.0378 C   0  0  0  0  0  0  0  0  0  0  0  0
    7.0880   -4.6163   27.0010 C   0  0  0  0  0  0  0  0  0  0  0  0
    8.3117   -4.3698   27.4436 C   0  0  0  0  0  0  0  0  0  0  0  0
    1.1339   -5.0515   26.3541 C   0  0  0  0  0  0  0  0  0  0  0  0
    4.8080   -8.0362   16.7101 C   0  0  0  0  0  0  0  0  0  0  0  0
   -1.2173   -3.9294   26.9717 O   0  0  0  0  0  0  0  0  0  0  0  0
   -1.0025   -5.0942   27.4586 C   0  0  0  0  0  0  0  0  0  0  0  0
    2.2474   -8.9123   16.6273 C   0  0  0  0  0  0  0  0  0  0  0  0
    4.4957   -9.2636   17.3041 C   0  0  0  0  0  0  0  0  0  0  0  0
   -1.8070   -5.6086   28.1920 O   0  0  0  0  0  0  0  0  0  0  0  0
   10.4296   -5.1799   28.3140 C   0  0  0  0  0  0  0  0  0  0  0  0
    6.6017   -5.9004   26.9187 C   0  0  0  0  0  0  0  0  0  0  0  0
    2.4761   -6.9940   26.4111 N   0  0  0  0  0  0  0  0  0  0  0  0
    9.1353   -5.4053   27.8239 C   0  0  0  0  0  0  0  0  0  0  0  0
    0.9922   -9.3232   16.5995 O   0  0  0  0  0  0  0  0  0  0  0  0
    1.5232   -7.6869   27.1182 C   0  0  0  0  0  0  0  0  0  0  0  0
    8.6878   -6.6715   27.7262 N   0  0  0  0  0  0  0  0  0  0  0  0
    6.9911   -8.2423   27.1808 C   0  0  0  0  0  0  0  0  0  0  0  0
    3.8436   -7.2758   16.0578 C   0  0  0  0  0  0  0  0  0  0  0  0
    3.1882   -9.7190   17.2566 C   0  0  0  0  0  0  0  0  0  0  0  0
    5.3488   -6.1737   26.5092 C   0  0  0  0  0  0  0  0  0  0  0  0
    7.4567   -6.9464   27.2858 C   0  0  0  0  0  0  0  0  0  0  0  0
    0.1921   -5.7592   27.1123 C   0  0  0  0  0  0  0  0  0  0  0  0
    3.5517   -7.7407   25.9711 C   0  0  0  0  0  0  0  0  0  0  0  0
  1  4  4  0
  1 22  4  0
  2 20  4  0
  2 27  4  0
  3 12  4  0
  3 23  4  0
  4 25  4  0
  4 28  1  0
  5  8  4  0
  5 17  4  0
  6  7  4  0
  6 16  4  0
  7 18  4  0
  8 27  4  0
  9 13  4  0
  9 23  4  0
 10 11  1  0
 11 14  2  0
 11 27  1  0
 12 19  1  0
 12 24  4  0
 13 24  4  0
 15 18  1  0
 16 25  4  0
 16 26  4  0
 17 20  4  0
 17 28  1  0
 18 21  4  0
 21 26  4  0
 22 26  4  0
M  END
$$$$

 Created by Python create_sdf_string function

 28 30  0  0  0  0  0  0  0  0999 V2000
    5.7174   -8.4529   26.7190 C   0  0  0  0  0  0  0  0  0  0  0  0
    0.3974   -7.0711   27.5149 C   0  0  0  0  0  0  0  0  0  0  0  0
    2.5338   -7.6891   16.0102 C   0  0  0  0  0  0  0  0  0  0  0  0
    4.8690   -7.4380   26.4151 C   0  0  0  0  0  0  0  0  0  0  0  0
    2.3021   -5.6726   26.0378 C   0  0  0  0  0  0  0  0  0  0  0  0
    7.0880   -4.6163   27.0010 C   0  0  0  0  0  0  0  0  0  0  0  0
    8.3117   -4.3698   27.4436 C   0  0  0  0  0  0  0  0  0  0  0  0
    1.1339   -5.0515   26.3541 C   0  0  0  0  0  0  0  0  0  0  0  0
    4.8080   -8.0362   16.7101 C   0  0  0  0  0  0  0  0  0  0  0  0
   -1.2173   -3.9294   26.9717 O   0  0  0  0  0  0  0  0  0  0  0  0
   -1.0025   -5.0942   27.4586 C   0  0  0  0  0  0  0  0  0  0  0  0
    2.2474   -8.9123   16.6273 C   0  0  0  0  0  0  0  0  0  0  0  0
    4.4957   -9.2636   17.3041 C   0  0  0  0  0  0  0  0  0  0  0  0
   -1.8070   -5.6086   28.1920 O   0  0  0  0  0  0  0  0  0  0  0  0
   10.4296   -5.1799   28.3140 C   0  0  0  0  0  0  0  0  0  0  0  0
    6.6017   -5.9004   26.9187 C   0  0  0  0  0  0  0  0  0  0  0  0
    2.4761   -6.9940   26.4111 N   0  0  0  0  0  0  0  0  0  0  0  0
    9.1353   -5.4053   27.8239 C   0  0  0  0  0  0  0  0  0  0  0  0
    0.9922   -9.3232   16.5995 O   0  0  0  0  0  0  0  0  0  0  0  0
    1.5232   -7.6869   27.1182 C   0  0  0  0  0  0  0  0  0  0  0  0
    8.6878   -6.6715   27.7262 N   0  0  0  0  0  0  0  0  0  0  0  0
    6.9911   -8.2423   27.1808 C   0  0  0  0  0  0  0  0  0  0  0  0
    3.8436   -7.2758   16.0578 C   0  0  0  0  0  0  0  0  0  0  0  0
    3.1882   -9.7190   17.2566 C   0  0  0  0  0  0  0  0  0  0  0  0
    5.3488   -6.1737   26.5092 C   0  0  0  0  0  0  0  0  0  0  0  0
    7.4567   -6.9464   27.2858 C   0  0  0  0  0  0  0  0  0  0  0  0
    0.1921   -5.7592   27.1123 C   0  0  0  0  0  0  0  0  0  0  0  0
    3.5517   -7.7407   25.9711 C   0  0  0  0  0  0  0  0  0  0  0  0
  1  4  4  0
  1 22  4  0
  2 20  4  0
  2 27  4  0
  3 12  4  0
  3 23  4  0
  4 25  4  0
  4 28  1  0
  5  8  4  0
  5 17  4  0
  6  7  4  0
  6 16  4  0
  7 18  4  0
  8 27  4  0
  9 13  4  0
  9 23  4  0
 10 11  1  0
 11 14  2  0
 11 27  1  0
 12 19  1  0
 12 24  4  0
 13 24  4  0
 15 18  1  0
 16 25  4  0
 16 26  4  0
 17 20  4  0
 17 28  1  0
 18 21  4  0
 21 26  4  0
 22 26  4  0
M  END
$$$$

 Created by Python create_sdf_string function

 28 30  0  0  0  0  0  0  0  0999 V2000
    5.7174   -8.4529   26.7190 C   0  0  0  0  0  0  0  0  0  0  0  0
    0.3974   -7.0711   27.5149 C   0  0  0  0  0  0  0  0  0  0  0  0
    2.5338   -7.6891   16.0102 C   0  0  0  0  0  0  0  0  0  0  0  0
    4.8690   -7.4380   26.4151 C   0  0  0  0  0  0  0  0  0  0  0  0
    2.3021   -5.6726   26.0378 C   0  0  0  0  0  0  0  0  0  0  0  0
    7.0880   -4.6163   27.0010 C   0  0  0  0  0  0  0  0  0  0  0  0
    8.3117   -4.3698   27.4436 C   0  0  0  0  0  0  0  0  0  0  0  0
    1.1339   -5.0515   26.3541 C   0  0  0  0  0  0  0  0  0  0  0  0
    4.8080   -8.0362   16.7101 C   0  0  0  0  0  0  0  0  0  0  0  0
   -1.2173   -3.9294   26.9717 O   0  0  0  0  0  0  0  0  0  0  0  0
   -1.0025   -5.0942   27.4586 C   0  0  0  0  0  0  0  0  0  0  0  0
    2.2474   -8.9123   16.6273 C   0  0  0  0  0  0  0  0  0  0  0  0
    4.4957   -9.2636   17.3041 C   0  0  0  0  0  0  0  0  0  0  0  0
   -1.8070   -5.6086   28.1920 O   0  0  0  0  0  0  0  0  0  0  0  0
   10.4296   -5.1799   28.3140 C   0  0  0  0  0  0  0  0  0  0  0  0
    6.6017   -5.9004   26.9187 C   0  0  0  0  0  0  0  0  0  0  0  0
    2.4761   -6.9940   26.4111 N   0  0  0  0  0  0  0  0  0  0  0  0
    9.1353   -5.4053   27.8239 C   0  0  0  0  0  0  0  0  0  0  0  0
    0.9922   -9.3232   16.5995 O   0  0  0  0  0  0  0  0  0  0  0  0
    1.5232   -7.6869   27.1182 C   0  0  0  0  0  0  0  0  0  0  0  0
    8.6878   -6.6715   27.7262 N   0  0  0  0  0  0  0  0  0  0  0  0
    6.9911   -8.2423   27.1808 C   0  0  0  0  0  0  0  0  0  0  0  0
    3.8436   -7.2758   16.0578 C   0  0  0  0  0  0  0  0  0  0  0  0
    3.1882   -9.7190   17.2566 C   0  0  0  0  0  0  0  0  0  0  0  0
    5.3488   -6.1737   26.5092 C   0  0  0  0  0  0  0  0  0  0  0  0
    7.4567   -6.9464   27.2858 C   0  0  0  0  0  0  0  0  0  0  0  0
    0.1921   -5.7592   27.1123 C   0  0  0  0  0  0  0  0  0  0  0  0
    3.5517   -7.7407   25.9711 C   0  0  0  0  0  0  0  0  0  0  0  0
  1  4  4  0
  1 22  4  0
  2 20  4  0
  2 27  4  0
  3 12  4  0
  3 23  4  0
  4 25  4  0
  4 28  1  0
  5  8  4  0
  5 17  4  0
  6  7  4  0
  6 16  4  0
  7 18  4  0
  8 27  4  0
  9 13  4  0
  9 23  4  0
 10 11  1  0
 11 14  2  0
 11 27  1  0
 12 19  1  0
 12 24  4  0
 13 24  4  0
 15 18  1  0
 16 25  4  0
 16 26  4  0
 17 20  4  0
 17 28  1  0
 18 21  4  0
 21 26  4  0
 22 26  4  0
M  END
$$$$

 Created by Python create_sdf_string function

 28 30  0  0  0  0  0  0  0  0999 V2000
    5.7174   -8.4529   26.7190 C   0  0  0  0  0  0  0  0  0  0  0  0
    0.3974   -7.0711   27.5149 C   0  0  0  0  0  0  0  0  0  0  0  0
    2.5338   -7.6891   16.0102 C   0  0  0  0  0  0  0  0  0  0  0  0
    4.8690   -7.4380   26.4151 C   0  0  0  0  0  0  0  0  0  0  0  0
    2.3021   -5.6726   26.0378 C   0  0  0  0  0  0  0  0  0  0  0  0
    7.0880   -4.6163   27.0010 C   0  0  0  0  0  0  0  0  0  0  0  0
    8.3117   -4.3698   27.4436 C   0  0  0  0  0  0  0  0  0  0  0  0
    1.1339   -5.0515   26.3541 C   0  0  0  0  0  0  0  0  0  0  0  0
    4.8080   -8.0362   16.7101 C   0  0  0  0  0  0  0  0  0  0  0  0
   -1.2173   -3.9294   26.9717 O   0  0  0  0  0  0  0  0  0  0  0  0
   -1.0025   -5.0942   27.4586 C   0  0  0  0  0  0  0  0  0  0  0  0
    2.2474   -8.9123   16.6273 C   0  0  0  0  0  0  0  0  0  0  0  0
    4.4957   -9.2636   17.3041 C   0  0  0  0  0  0  0  0  0  0  0  0
   -1.8070   -5.6086   28.1920 O   0  0  0  0  0  0  0  0  0  0  0  0
   10.4296   -5.1799   28.3140 C   0  0  0  0  0  0  0  0  0  0  0  0
    6.6017   -5.9004   26.9187 C   0  0  0  0  0  0  0  0  0  0  0  0
    2.4761   -6.9940   26.4111 N   0  0  0  0  0  0  0  0  0  0  0  0
    9.1353   -5.4053   27.8239 C   0  0  0  0  0  0  0  0  0  0  0  0
    0.9922   -9.3232   16.5995 O   0  0  0  0  0  0  0  0  0  0  0  0
    1.5232   -7.6869   27.1182 C   0  0  0  0  0  0  0  0  0  0  0  0
    8.6878   -6.6715   27.7262 N   0  0  0  0  0  0  0  0  0  0  0  0
    6.9911   -8.2423   27.1808 C   0  0  0  0  0  0  0  0  0  0  0  0
    3.8436   -7.2758   16.0578 C   0  0  0  0  0  0  0  0  0  0  0  0
    3.1882   -9.7190   17.2566 C   0  0  0  0  0  0  0  0  0  0  0  0
    5.3488   -6.1737   26.5092 C   0  0  0  0  0  0  0  0  0  0  0  0
    7.4567   -6.9464   27.2858 C   0  0  0  0  0  0  0  0  0  0  0  0
    0.1921   -5.7592   27.1123 C   0  0  0  0  0  0  0  0  0  0  0  0
    3.5517   -7.7407   25.9711 C   0  0  0  0  0  0  0  0  0  0  0  0
  1  4  4  0
  1 22  4  0
  2 20  4  0
  2 27  4  0
  3 12  4  0
  3 23  4  0
  4 25  4  0
  4 28  1  0
  5  8  4  0
  5 17  4  0
  6  7  4  0
  6 16  4  0
  7 18  4  0
  8 27  4  0
  9 13  4  0
  9 23  4  0
 10 11  1  0
 11 14  2  0
 11 27  1  0
 12 19  1  0
 12 24  4  0
 13 24  4  0
 15 18  1  0
 16 25  4  0
 16 26  4  0
 17 20  4  0
 17 28  1  0
 18 21  4  0
 21 26  4  0
 22 26  4  0
M  END
$$$$

 Created by Python create_sdf_string function

 28 30  0  0  0  0  0  0  0  0999 V2000
    5.7174   -8.4529   26.7190 C   0  0  0  0  0  0  0  0  0  0  0  0
    0.3974   -7.0711   27.5149 C   0  0  0  0  0  0  0  0  0  0  0  0
    2.5338   -7.6891   16.0102 C   0  0  0  0  0  0  0  0  0  0  0  0
    4.8690   -7.4380   26.4151 C   0  0  0  0  0  0  0  0  0  0  0  0
    2.3021   -5.6726   26.0378 C   0  0  0  0  0  0  0  0  0  0  0  0
    7.0880   -4.6163   27.0010 C   0  0  0  0  0  0  0  0  0  0  0  0
    8.3117   -4.3698   27.4436 C   0  0  0  0  0  0  0  0  0  0  0  0
    1.1339   -5.0515   26.3541 C   0  0  0  0  0  0  0  0  0  0  0  0
    4.8080   -8.0362   16.7101 C   0  0  0  0  0  0  0  0  0  0  0  0
   -1.2173   -3.9294   26.9717 O   0  0  0  0  0  0  0  0  0  0  0  0
   -1.0025   -5.0942   27.4586 C   0  0  0  0  0  0  0  0  0  0  0  0
    2.2474   -8.9123   16.6273 C   0  0  0  0  0  0  0  0  0  0  0  0
    4.4957   -9.2636   17.3041 C   0  0  0  0  0  0  0  0  0  0  0  0
   -1.8070   -5.6086   28.1920 O   0  0  0  0  0  0  0  0  0  0  0  0
   10.4296   -5.1799   28.3140 C   0  0  0  0  0  0  0  0  0  0  0  0
    6.6017   -5.9004   26.9187 C   0  0  0  0  0  0  0  0  0  0  0  0
    2.4761   -6.9940   26.4111 N   0  0  0  0  0  0  0  0  0  0  0  0
    9.1353   -5.4053   27.8239 C   0  0  0  0  0  0  0  0  0  0  0  0
    0.9922   -9.3232   16.5995 O   0  0  0  0  0  0  0  0  0  0  0  0
    1.5232   -7.6869   27.1182 C   0  0  0  0  0  0  0  0  0  0  0  0
    8.6878   -6.6715   27.7262 N   0  0  0  0  0  0  0  0  0  0  0  0
    6.9911   -8.2423   27.1808 C   0  0  0  0  0  0  0  0  0  0  0  0
    3.8436   -7.2758   16.0578 C   0  0  0  0  0  0  0  0  0  0  0  0
    3.1882   -9.7190   17.2566 C   0  0  0  0  0  0  0  0  0  0  0  0
    5.3488   -6.1737   26.5092 C   0  0  0  0  0  0  0  0  0  0  0  0
    7.4567   -6.9464   27.2858 C   0  0  0  0  0  0  0  0  0  0  0  0
    0.1921   -5.7592   27.1123 C   0  0  0  0  0  0  0  0  0  0  0  0
    3.5517   -7.7407   25.9711 C   0  0  0  0  0  0  0  0  0  0  0  0
  1  4  4  0
  1 22  4  0
  2 20  4  0
  2 27  4  0
  3 12  4  0
  3 23  4  0
  4 25  4  0
  4 28  1  0
  5  8  4  0
  5 17  4  0
  6  7  4  0
  6 16  4  0
  7 18  4  0
  8 27  4  0
  9 13  4  0
  9 23  4  0
 10 11  1  0
 11 14  2  0
 11 27  1  0
 12 19  1  0
 12 24  4  0
 13 24  4  0
 15 18  1  0
 16 25  4  0
 16 26  4  0
 17 20  4  0
 17 28  1  0
 18 21  4  0
 21 26  4  0
 22 26  4  0
M  END
$$$$

 Created by Python create_sdf_string function

 28 30  0  0  0  0  0  0  0  0999 V2000
    5.7174   -8.4529   26.7190 C   0  0  0  0  0  0  0  0  0  0  0  0
    0.3974   -7.0711   27.5149 C   0  0  0  0  0  0  0  0  0  0  0  0
    2.5338   -7.6891   16.0102 C   0  0  0  0  0  0  0  0  0  0  0  0
    4.8690   -7.4380   26.4151 C   0  0  0  0  0  0  0  0  0  0  0  0
    2.3021   -5.6726   26.0378 C   0  0  0  0  0  0  0  0  0  0  0  0
    7.0880   -4.6163   27.0010 C   0  0  0  0  0  0  0  0  0  0  0  0
    8.3117   -4.3698   27.4436 C   0  0  0  0  0  0  0  0  0  0  0  0
    1.1339   -5.0515   26.3541 C   0  0  0  0  0  0  0  0  0  0  0  0
    4.8080   -8.0362   16.7101 C   0  0  0  0  0  0  0  0  0  0  0  0
   -1.2173   -3.9294   26.9717 O   0  0  0  0  0  0  0  0  0  0  0  0
   -1.0025   -5.0942   27.4586 C   0  0  0  0  0  0  0  0  0  0  0  0
    2.2474   -8.9123   16.6273 C   0  0  0  0  0  0  0  0  0  0  0  0
    4.4957   -9.2636   17.3041 C   0  0  0  0  0  0  0  0  0  0  0  0
   -1.8070   -5.6086   28.1920 O   0  0  0  0  0  0  0  0  0  0  0  0
   10.4296   -5.1799   28.3140 C   0  0  0  0  0  0  0  0  0  0  0  0
    6.6017   -5.9004   26.9187 C   0  0  0  0  0  0  0  0  0  0  0  0
    2.4761   -6.9940   26.4111 N   0  0  0  0  0  0  0  0  0  0  0  0
    9.1353   -5.4053   27.8239 C   0  0  0  0  0  0  0  0  0  0  0  0
    0.9922   -9.3232   16.5995 O   0  0  0  0  0  0  0  0  0  0  0  0
    1.5232   -7.6869   27.1182 C   0  0  0  0  0  0  0  0  0  0  0  0
    8.6878   -6.6715   27.7262 N   0  0  0  0  0  0  0  0  0  0  0  0
    6.9911   -8.2423   27.1808 C   0  0  0  0  0  0  0  0  0  0  0  0
    3.8436   -7.2758   16.0578 C   0  0  0  0  0  0  0  0  0  0  0  0
    3.1882   -9.7190   17.2566 C   0  0  0  0  0  0  0  0  0  0  0  0
    5.3488   -6.1737   26.5092 C   0  0  0  0  0  0  0  0  0  0  0  0
    7.4567   -6.9464   27.2858 C   0  0  0  0  0  0  0  0  0  0  0  0
    0.1921   -5.7592   27.1123 C   0  0  0  0  0  0  0  0  0  0  0  0
    3.5517   -7.7407   25.9711 C   0  0  0  0  0  0  0  0  0  0  0  0
  1  4  4  0
  1 22  4  0
  2 20  4  0
  2 27  4  0
  3 12  4  0
  3 23  4  0
  4 25  4  0
  4 28  1  0
  5  8  4  0
  5 17  4  0
  6  7  4  0
  6 16  4  0
  7 18  4  0
  8 27  4  0
  9 13  4  0
  9 23  4  0
 10 11  1  0
 11 14  2  0
 11 27  1  0
 12 19  1  0
 12 24  4  0
 13 24  4  0
 15 18  1  0
 16 25  4  0
 16 26  4  0
 17 20  4  0
 17 28  1  0
 18 21  4  0
 21 26  4  0
 22 26  4  0
M  END
$$$$

 Created by Python create_sdf_string function

 28 30  0  0  0  0  0  0  0  0999 V2000
    5.7174   -8.4529   26.7190 C   0  0  0  0  0  0  0  0  0  0  0  0
    0.3974   -7.0711   27.5149 C   0  0  0  0  0  0  0  0  0  0  0  0
    2.5338   -7.6891   16.0102 C   0  0  0  0  0  0  0  0  0  0  0  0
    4.8690   -7.4380   26.4151 C   0  0  0  0  0  0  0  0  0  0  0  0
    2.3021   -5.6726   26.0378 C   0  0  0  0  0  0  0  0  0  0  0  0
    7.0880   -4.6163   27.0010 C   0  0  0  0  0  0  0  0  0  0  0  0
    8.3117   -4.3698   27.4436 C   0  0  0  0  0  0  0  0  0  0  0  0
    1.1339   -5.0515   26.3541 C   0  0  0  0  0  0  0  0  0  0  0  0
    4.8080   -8.0362   16.7101 C   0  0  0  0  0  0  0  0  0  0  0  0
   -1.2173   -3.9294   26.9717 O   0  0  0  0  0  0  0  0  0  0  0  0
   -1.0025   -5.0942   27.4586 C   0  0  0  0  0  0  0  0  0  0  0  0
    2.2474   -8.9123   16.6273 C   0  0  0  0  0  0  0  0  0  0  0  0
    4.4957   -9.2636   17.3041 C   0  0  0  0  0  0  0  0  0  0  0  0
   -1.8070   -5.6086   28.1920 O   0  0  0  0  0  0  0  0  0  0  0  0
   10.4296   -5.1799   28.3140 C   0  0  0  0  0  0  0  0  0  0  0  0
    6.6017   -5.9004   26.9187 C   0  0  0  0  0  0  0  0  0  0  0  0
    2.4761   -6.9940   26.4111 N   0  0  0  0  0  0  0  0  0  0  0  0
    9.1353   -5.4053   27.8239 C   0  0  0  0  0  0  0  0  0  0  0  0
    0.9922   -9.3232   16.5995 O   0  0  0  0  0  0  0  0  0  0  0  0
    1.5232   -7.6869   27.1182 C   0  0  0  0  0  0  0  0  0  0  0  0
    8.6878   -6.6715   27.7262 N   0  0  0  0  0  0  0  0  0  0  0  0
    6.9911   -8.2423   27.1808 C   0  0  0  0  0  0  0  0  0  0  0  0
    3.8436   -7.2758   16.0578 C   0  0  0  0  0  0  0  0  0  0  0  0
    3.1882   -9.7190   17.2566 C   0  0  0  0  0  0  0  0  0  0  0  0
    5.3488   -6.1737   26.5092 C   0  0  0  0  0  0  0  0  0  0  0  0
    7.4567   -6.9464   27.2858 C   0  0  0  0  0  0  0  0  0  0  0  0
    0.1921   -5.7592   27.1123 C   0  0  0  0  0  0  0  0  0  0  0  0
    3.5517   -7.7407   25.9711 C   0  0  0  0  0  0  0  0  0  0  0  0
  1  4  4  0
  1 22  4  0
  2 20  4  0
  2 27  4  0
  3 12  4  0
  3 23  4  0
  4 25  4  0
  4 28  1  0
  5  8  4  0
  5 17  4  0
  6  7  4  0
  6 16  4  0
  7 18  4  0
  8 27  4  0
  9 13  4  0
  9 23  4  0
 10 11  1  0
 11 14  2  0
 11 27  1  0
 12 19  1  0
 12 24  4  0
 13 24  4  0
 15 18  1  0
 16 25  4  0
 16 26  4  0
 17 20  4  0
 17 28  1  0
 18 21  4  0
 21 26  4  0
 22 26  4  0
M  END
$$$$

 Created by Python create_sdf_string function

 28 30  0  0  0  0  0  0  0  0999 V2000
    5.7174   -8.4529   26.7190 C   0  0  0  0  0  0  0  0  0  0  0  0
    0.3974   -7.0711   27.5149 C   0  0  0  0  0  0  0  0  0  0  0  0
    2.5338   -7.6891   16.0102 C   0  0  0  0  0  0  0  0  0  0  0  0
    4.8690   -7.4380   26.4151 C   0  0  0  0  0  0  0  0  0  0  0  0
    2.3021   -5.6726   26.0378 C   0  0  0  0  0  0  0  0  0  0  0  0
    7.0880   -4.6163   27.0010 C   0  0  0  0  0  0  0  0  0  0  0  0
    8.3117   -4.3698   27.4436 C   0  0  0  0  0  0  0  0  0  0  0  0
    1.1339   -5.0515   26.3541 C   0  0  0  0  0  0  0  0  0  0  0  0
    4.8080   -8.0362   16.7101 C   0  0  0  0  0  0  0  0  0  0  0  0
   -1.2173   -3.9294   26.9717 O   0  0  0  0  0  0  0  0  0  0  0  0
   -1.0025   -5.0942   27.4586 C   0  0  0  0  0  0  0  0  0  0  0  0
    2.2474   -8.9123   16.6273 C   0  0  0  0  0  0  0  0  0  0  0  0
    4.4957   -9.2636   17.3041 C   0  0  0  0  0  0  0  0  0  0  0  0
   -1.8070   -5.6086   28.1920 O   0  0  0  0  0  0  0  0  0  0  0  0
   10.4296   -5.1799   28.3140 C   0  0  0  0  0  0  0  0  0  0  0  0
    6.6017   -5.9004   26.9187 C   0  0  0  0  0  0  0  0  0  0  0  0
    2.4761   -6.9940   26.4111 N   0  0  0  0  0  0  0  0  0  0  0  0
    9.1353   -5.4053   27.8239 C   0  0  0  0  0  0  0  0  0  0  0  0
    0.9922   -9.3232   16.5995 O   0  0  0  0  0  0  0  0  0  0  0  0
    1.5232   -7.6869   27.1182 C   0  0  0  0  0  0  0  0  0  0  0  0
    8.6878   -6.6715   27.7262 N   0  0  0  0  0  0  0  0  0  0  0  0
    6.9911   -8.2423   27.1808 C   0  0  0  0  0  0  0  0  0  0  0  0
    3.8436   -7.2758   16.0578 C   0  0  0  0  0  0  0  0  0  0  0  0
    3.1882   -9.7190   17.2566 C   0  0  0  0  0  0  0  0  0  0  0  0
    5.3488   -6.1737   26.5092 C   0  0  0  0  0  0  0  0  0  0  0  0
    7.4567   -6.9464   27.2858 C   0  0  0  0  0  0  0  0  0  0  0  0
    0.1921   -5.7592   27.1123 C   0  0  0  0  0  0  0  0  0  0  0  0
    3.5517   -7.7407   25.9711 C   0  0  0  0  0  0  0  0  0  0  0  0
  1  4  4  0
  1 22  4  0
  2 20  4  0
  2 27  4  0
  3 12  4  0
  3 23  4  0
  4 25  4  0
  4 28  1  0
  5  8  4  0
  5 17  4  0
  6  7  4  0
  6 16  4  0
  7 18  4  0
  8 27  4  0
  9 13  4  0
  9 23  4  0
 10 11  1  0
 11 14  2  0
 11 27  1  0
 12 19  1  0
 12 24  4  0
 13 24  4  0
 15 18  1  0
 16 25  4  0
 16 26  4  0
 17 20  4  0
 17 28  1  0
 18 21  4  0
 21 26  4  0
 22 26  4  0
M  END
$$$$

 Created by Python create_sdf_string function

 28 30  0  0  0  0  0  0  0  0999 V2000
    5.7174   -8.4529   26.7190 C   0  0  0  0  0  0  0  0  0  0  0  0
    0.3974   -7.0711   27.5149 C   0  0  0  0  0  0  0  0  0  0  0  0
    2.5338   -7.6891   16.0102 C   0  0  0  0  0  0  0  0  0  0  0  0
    4.8690   -7.4380   26.4151 C   0  0  0  0  0  0  0  0  0  0  0  0
    2.3021   -5.6726   26.0378 C   0  0  0  0  0  0  0  0  0  0  0  0
    7.0880   -4.6163   27.0010 C   0  0  0  0  0  0  0  0  0  0  0  0
    8.3117   -4.3698   27.4436 C   0  0  0  0  0  0  0  0  0  0  0  0
    1.1339   -5.0515   26.3541 C   0  0  0  0  0  0  0  0  0  0  0  0
    4.8080   -8.0362   16.7101 C   0  0  0  0  0  0  0  0  0  0  0  0
   -1.2173   -3.9294   26.9717 O   0  0  0  0  0  0  0  0  0  0  0  0
   -1.0025   -5.0942   27.4586 C   0  0  0  0  0  0  0  0  0  0  0  0
    2.2474   -8.9123   16.6273 C   0  0  0  0  0  0  0  0  0  0  0  0
    4.4957   -9.2636   17.3041 C   0  0  0  0  0  0  0  0  0  0  0  0
   -1.8070   -5.6086   28.1920 O   0  0  0  0  0  0  0  0  0  0  0  0
   10.4296   -5.1799   28.3140 C   0  0  0  0  0  0  0  0  0  0  0  0
    6.6017   -5.9004   26.9187 C   0  0  0  0  0  0  0  0  0  0  0  0
    2.4761   -6.9940   26.4111 N   0  0  0  0  0  0  0  0  0  0  0  0
    9.1353   -5.4053   27.8239 C   0  0  0  0  0  0  0  0  0  0  0  0
    0.9922   -9.3232   16.5995 O   0  0  0  0  0  0  0  0  0  0  0  0
    1.5232   -7.6869   27.1182 C   0  0  0  0  0  0  0  0  0  0  0  0
    8.6878   -6.6715   27.7262 N   0  0  0  0  0  0  0  0  0  0  0  0
    6.9911   -8.2423   27.1808 C   0  0  0  0  0  0  0  0  0  0  0  0
    3.8436   -7.2758   16.0578 C   0  0  0  0  0  0  0  0  0  0  0  0
    3.1882   -9.7190   17.2566 C   0  0  0  0  0  0  0  0  0  0  0  0
    5.3488   -6.1737   26.5092 C   0  0  0  0  0  0  0  0  0  0  0  0
    7.4567   -6.9464   27.2858 C   0  0  0  0  0  0  0  0  0  0  0  0
    0.1921   -5.7592   27.1123 C   0  0  0  0  0  0  0  0  0  0  0  0
    3.5517   -7.7407   25.9711 C   0  0  0  0  0  0  0  0  0  0  0  0
  1  4  4  0
  1 22  4  0
  2 20  4  0
  2 27  4  0
  3 12  4  0
  3 23  4  0
  4 25  4  0
  4 28  1  0
  5  8  4  0
  5 17  4  0
  6  7  4  0
  6 16  4  0
  7 18  4  0
  8 27  4  0
  9 13  4  0
  9 23  4  0
 10 11  1  0
 11 14  2  0
 11 27  1  0
 12 19  1  0
 12 24  4  0
 13 24  4  0
 15 18  1  0
 16 25  4  0
 16 26  4  0
 17 20  4  0
 17 28  1  0
 18 21  4  0
 21 26  4  0
 22 26  4  0
M  END
$$$$

 Created by Python create_sdf_string function

 28 30  0  0  0  0  0  0  0  0999 V2000
    5.7174   -8.4529   26.7190 C   0  0  0  0  0  0  0  0  0  0  0  0
    0.3974   -7.0711   27.5149 C   0  0  0  0  0  0  0  0  0  0  0  0
    2.5338   -7.6891   16.0102 C   0  0  0  0  0  0  0  0  0  0  0  0
    4.8690   -7.4380   26.4151 C   0  0  0  0  0  0  0  0  0  0  0  0
    2.3021   -5.6726   26.0378 C   0  0  0  0  0  0  0  0  0  0  0  0
    7.0880   -4.6163   27.0010 C   0  0  0  0  0  0  0  0  0  0  0  0
    8.3117   -4.3698   27.4436 C   0  0  0  0  0  0  0  0  0  0  0  0
    1.1339   -5.0515   26.3541 C   0  0  0  0  0  0  0  0  0  0  0  0
    4.8080   -8.0362   16.7101 C   0  0  0  0  0  0  0  0  0  0  0  0
   -1.2173   -3.9294   26.9717 O   0  0  0  0  0  0  0  0  0  0  0  0
   -1.0025   -5.0942   27.4586 C   0  0  0  0  0  0  0  0  0  0  0  0
    2.2474   -8.9123   16.6273 C   0  0  0  0  0  0  0  0  0  0  0  0
    4.4957   -9.2636   17.3041 C   0  0  0  0  0  0  0  0  0  0  0  0
   -1.8070   -5.6086   28.1920 O   0  0  0  0  0  0  0  0  0  0  0  0
   10.4296   -5.1799   28.3140 C   0  0  0  0  0  0  0  0  0  0  0  0
    6.6017   -5.9004   26.9187 C   0  0  0  0  0  0  0  0  0  0  0  0
    2.4761   -6.9940   26.4111 N   0  0  0  0  0  0  0  0  0  0  0  0
    9.1353   -5.4053   27.8239 C   0  0  0  0  0  0  0  0  0  0  0  0
    0.9922   -9.3232   16.5995 O   0  0  0  0  0  0  0  0  0  0  0  0
    1.5232   -7.6869   27.1182 C   0  0  0  0  0  0  0  0  0  0  0  0
    8.6878   -6.6715   27.7262 N   0  0  0  0  0  0  0  0  0  0  0  0
    6.9911   -8.2423   27.1808 C   0  0  0  0  0  0  0  0  0  0  0  0
    3.8436   -7.2758   16.0578 C   0  0  0  0  0  0  0  0  0  0  0  0
    3.1882   -9.7190   17.2566 C   0  0  0  0  0  0  0  0  0  0  0  0
    5.3488   -6.1737   26.5092 C   0  0  0  0  0  0  0  0  0  0  0  0
    7.4567   -6.9464   27.2858 C   0  0  0  0  0  0  0  0  0  0  0  0
    0.1921   -5.7592   27.1123 C   0  0  0  0  0  0  0  0  0  0  0  0
    3.5517   -7.7407   25.9711 C   0  0  0  0  0  0  0  0  0  0  0  0
  1  4  4  0
  1 22  4  0
  2 20  4  0
  2 27  4  0
  3 12  4  0
  3 23  4  0
  4 25  4  0
  4 28  1  0
  5  8  4  0
  5 17  4  0
  6  7  4  0
  6 16  4  0
  7 18  4  0
  8 27  4  0
  9 13  4  0
  9 23  4  0
 10 11  1  0
 11 14  2  0
 11 27  1  0
 12 19  1  0
 12 24  4  0
 13 24  4  0
 15 18  1  0
 16 25  4  0
 16 26  4  0
 17 20  4  0
 17 28  1  0
 18 21  4  0
 21 26  4  0
 22 26  4  0
M  END
$$$$

 Created by Python create_sdf_string function

 28 30  0  0  0  0  0  0  0  0999 V2000
    5.7174   -8.4529   26.7190 C   0  0  0  0  0  0  0  0  0  0  0  0
    0.3974   -7.0711   27.5149 C   0  0  0  0  0  0  0  0  0  0  0  0
    2.5338   -7.6891   16.0102 C   0  0  0  0  0  0  0  0  0  0  0  0
    4.8690   -7.4380   26.4151 C   0  0  0  0  0  0  0  0  0  0  0  0
    2.3021   -5.6726   26.0378 C   0  0  0  0  0  0  0  0  0  0  0  0
    7.0880   -4.6163   27.0010 C   0  0  0  0  0  0  0  0  0  0  0  0
    8.3117   -4.3698   27.4436 C   0  0  0  0  0  0  0  0  0  0  0  0
    1.1339   -5.0515   26.3541 C   0  0  0  0  0  0  0  0  0  0  0  0
    4.8080   -8.0362   16.7101 C   0  0  0  0  0  0  0  0  0  0  0  0
   -1.2173   -3.9294   26.9717 O   0  0  0  0  0  0  0  0  0  0  0  0
   -1.0025   -5.0942   27.4586 C   0  0  0  0  0  0  0  0  0  0  0  0
    2.2474   -8.9123   16.6273 C   0  0  0  0  0  0  0  0  0  0  0  0
    4.4957   -9.2636   17.3041 C   0  0  0  0  0  0  0  0  0  0  0  0
   -1.8070   -5.6086   28.1920 O   0  0  0  0  0  0  0  0  0  0  0  0
   10.4296   -5.1799   28.3140 C   0  0  0  0  0  0  0  0  0  0  0  0
    6.6017   -5.9004   26.9187 C   0  0  0  0  0  0  0  0  0  0  0  0
    2.4761   -6.9940   26.4111 N   0  0  0  0  0  0  0  0  0  0  0  0
    9.1353   -5.4053   27.8239 C   0  0  0  0  0  0  0  0  0  0  0  0
    0.9922   -9.3232   16.5995 O   0  0  0  0  0  0  0  0  0  0  0  0
    1.5232   -7.6869   27.1182 C   0  0  0  0  0  0  0  0  0  0  0  0
    8.6878   -6.6715   27.7262 N   0  0  0  0  0  0  0  0  0  0  0  0
    6.9911   -8.2423   27.1808 C   0  0  0  0  0  0  0  0  0  0  0  0
    3.8436   -7.2758   16.0578 C   0  0  0  0  0  0  0  0  0  0  0  0
    3.1882   -9.7190   17.2566 C   0  0  0  0  0  0  0  0  0  0  0  0
    5.3488   -6.1737   26.5092 C   0  0  0  0  0  0  0  0  0  0  0  0
    7.4567   -6.9464   27.2858 C   0  0  0  0  0  0  0  0  0  0  0  0
    0.1921   -5.7592   27.1123 C   0  0  0  0  0  0  0  0  0  0  0  0
    3.5517   -7.7407   25.9711 C   0  0  0  0  0  0  0  0  0  0  0  0
  1  4  4  0
  1 22  4  0
  2 20  4  0
  2 27  4  0
  3 12  4  0
  3 23  4  0
  4 25  4  0
  4 28  1  0
  5  8  4  0
  5 17  4  0
  6  7  4  0
  6 16  4  0
  7 18  4  0
  8 27  4  0
  9 13  4  0
  9 23  4  0
 10 11  1  0
 11 14  2  0
 11 27  1  0
 12 19  1  0
 12 24  4  0
 13 24  4  0
 15 18  1  0
 16 25  4  0
 16 26  4  0
 17 20  4  0
 17 28  1  0
 18 21  4  0
 21 26  4  0
 22 26  4  0
M  END
$$$$

 Created by Python create_sdf_string function

 28 30  0  0  0  0  0  0  0  0999 V2000
    5.7174   -8.4529   26.7190 C   0  0  0  0  0  0  0  0  0  0  0  0
    0.3974   -7.0711   27.5149 C   0  0  0  0  0  0  0  0  0  0  0  0
    2.5338   -7.6891   16.0102 C   0  0  0  0  0  0  0  0  0  0  0  0
    4.8690   -7.4380   26.4151 C   0  0  0  0  0  0  0  0  0  0  0  0
    2.3021   -5.6726   26.0378 C   0  0  0  0  0  0  0  0  0  0  0  0
    7.0880   -4.6163   27.0010 C   0  0  0  0  0  0  0  0  0  0  0  0
    8.3117   -4.3698   27.4436 C   0  0  0  0  0  0  0  0  0  0  0  0
    1.1339   -5.0515   26.3541 C   0  0  0  0  0  0  0  0  0  0  0  0
    4.8080   -8.0362   16.7101 C   0  0  0  0  0  0  0  0  0  0  0  0
   -1.2173   -3.9294   26.9717 O   0  0  0  0  0  0  0  0  0  0  0  0
   -1.0025   -5.0942   27.4586 C   0  0  0  0  0  0  0  0  0  0  0  0
    2.2474   -8.9123   16.6273 C   0  0  0  0  0  0  0  0  0  0  0  0
    4.4957   -9.2636   17.3041 C   0  0  0  0  0  0  0  0  0  0  0  0
   -1.8070   -5.6086   28.1920 O   0  0  0  0  0  0  0  0  0  0  0  0
   10.4296   -5.1799   28.3140 C   0  0  0  0  0  0  0  0  0  0  0  0
    6.6017   -5.9004   26.9187 C   0  0  0  0  0  0  0  0  0  0  0  0
    2.4761   -6.9940   26.4111 N   0  0  0  0  0  0  0  0  0  0  0  0
    9.1353   -5.4053   27.8239 C   0  0  0  0  0  0  0  0  0  0  0  0
    0.9922   -9.3232   16.5995 O   0  0  0  0  0  0  0  0  0  0  0  0
    1.5232   -7.6869   27.1182 C   0  0  0  0  0  0  0  0  0  0  0  0
    8.6878   -6.6715   27.7262 N   0  0  0  0  0  0  0  0  0  0  0  0
    6.9911   -8.2423   27.1808 C   0  0  0  0  0  0  0  0  0  0  0  0
    3.8436   -7.2758   16.0578 C   0  0  0  0  0  0  0  0  0  0  0  0
    3.1882   -9.7190   17.2566 C   0  0  0  0  0  0  0  0  0  0  0  0
    5.3488   -6.1737   26.5092 C   0  0  0  0  0  0  0  0  0  0  0  0
    7.4567   -6.9464   27.2858 C   0  0  0  0  0  0  0  0  0  0  0  0
    0.1921   -5.7592   27.1123 C   0  0  0  0  0  0  0  0  0  0  0  0
    3.5517   -7.7407   25.9711 C   0  0  0  0  0  0  0  0  0  0  0  0
  1  4  4  0
  1 22  4  0
  2 20  4  0
  2 27  4  0
  3 12  4  0
  3 23  4  0
  4 25  4  0
  4 28  1  0
  5  8  4  0
  5 17  4  0
  6  7  4  0
  6 16  4  0
  7 18  4  0
  8 27  4  0
  9 13  4  0
  9 23  4  0
 10 11  1  0
 11 14  2  0
 11 27  1  0
 12 19  1  0
 12 24  4  0
 13 24  4  0
 15 18  1  0
 16 25  4  0
 16 26  4  0
 17 20  4  0
 17 28  1  0
 18 21  4  0
 21 26  4  0
 22 26  4  0
M  END
$$$$

 Created by Python create_sdf_string function

 28 30  0  0  0  0  0  0  0  0999 V2000
    5.7174   -8.4529   26.7190 C   0  0  0  0  0  0  0  0  0  0  0  0
    0.3974   -7.0711   27.5149 C   0  0  0  0  0  0  0  0  0  0  0  0
    2.5338   -7.6891   16.0102 C   0  0  0  0  0  0  0  0  0  0  0  0
    4.8690   -7.4380   26.4151 C   0  0  0  0  0  0  0  0  0  0  0  0
    2.3021   -5.6726   26.0378 C   0  0  0  0  0  0  0  0  0  0  0  0
    7.0880   -4.6163   27.0010 C   0  0  0  0  0  0  0  0  0  0  0  0
    8.3117   -4.3698   27.4436 C   0  0  0  0  0  0  0  0  0  0  0  0
    1.1339   -5.0515   26.3541 C   0  0  0  0  0  0  0  0  0  0  0  0
    4.8080   -8.0362   16.7101 C   0  0  0  0  0  0  0  0  0  0  0  0
   -1.2173   -3.9294   26.9717 O   0  0  0  0  0  0  0  0  0  0  0  0
   -1.0025   -5.0942   27.4586 C   0  0  0  0  0  0  0  0  0  0  0  0
    2.2474   -8.9123   16.6273 C   0  0  0  0  0  0  0  0  0  0  0  0
    4.4957   -9.2636   17.3041 C   0  0  0  0  0  0  0  0  0  0  0  0
   -1.8070   -5.6086   28.1920 O   0  0  0  0  0  0  0  0  0  0  0  0
   10.4296   -5.1799   28.3140 C   0  0  0  0  0  0  0  0  0  0  0  0
    6.6017   -5.9004   26.9187 C   0  0  0  0  0  0  0  0  0  0  0  0
    2.4761   -6.9940   26.4111 N   0  0  0  0  0  0  0  0  0  0  0  0
    9.1353   -5.4053   27.8239 C   0  0  0  0  0  0  0  0  0  0  0  0
    0.9922   -9.3232   16.5995 O   0  0  0  0  0  0  0  0  0  0  0  0
    1.5232   -7.6869   27.1182 C   0  0  0  0  0  0  0  0  0  0  0  0
    8.6878   -6.6715   27.7262 N   0  0  0  0  0  0  0  0  0  0  0  0
    6.9911   -8.2423   27.1808 C   0  0  0  0  0  0  0  0  0  0  0  0
    3.8436   -7.2758   16.0578 C   0  0  0  0  0  0  0  0  0  0  0  0
    3.1882   -9.7190   17.2566 C   0  0  0  0  0  0  0  0  0  0  0  0
    5.3488   -6.1737   26.5092 C   0  0  0  0  0  0  0  0  0  0  0  0
    7.4567   -6.9464   27.2858 C   0  0  0  0  0  0  0  0  0  0  0  0
    0.1921   -5.7592   27.1123 C   0  0  0  0  0  0  0  0  0  0  0  0
    3.5517   -7.7407   25.9711 C   0  0  0  0  0  0  0  0  0  0  0  0
  1  4  4  0
  1 22  4  0
  2 20  4  0
  2 27  4  0
  3 12  4  0
  3 23  4  0
  4 25  4  0
  4 28  1  0
  5  8  4  0
  5 17  4  0
  6  7  4  0
  6 16  4  0
  7 18  4  0
  8 27  4  0
  9 13  4  0
  9 23  4  0
 10 11  1  0
 11 14  2  0
 11 27  1  0
 12 19  1  0
 12 24  4  0
 13 24  4  0
 15 18  1  0
 16 25  4  0
 16 26  4  0
 17 20  4  0
 17 28  1  0
 18 21  4  0
 21 26  4  0
 22 26  4  0
M  END
$$$$

 Created by Python create_sdf_string function

 28 30  0  0  0  0  0  0  0  0999 V2000
    5.7174   -8.4529   26.7190 C   0  0  0  0  0  0  0  0  0  0  0  0
    0.3974   -7.0711   27.5149 C   0  0  0  0  0  0  0  0  0  0  0  0
    2.5338   -7.6891   16.0102 C   0  0  0  0  0  0  0  0  0  0  0  0
    4.8690   -7.4380   26.4151 C   0  0  0  0  0  0  0  0  0  0  0  0
    2.3021   -5.6726   26.0378 C   0  0  0  0  0  0  0  0  0  0  0  0
    7.0880   -4.6163   27.0010 C   0  0  0  0  0  0  0  0  0  0  0  0
    8.3117   -4.3698   27.4436 C   0  0  0  0  0  0  0  0  0  0  0  0
    1.1339   -5.0515   26.3541 C   0  0  0  0  0  0  0  0  0  0  0  0
    4.8080   -8.0362   16.7101 C   0  0  0  0  0  0  0  0  0  0  0  0
   -1.2173   -3.9294   26.9717 O   0  0  0  0  0  0  0  0  0  0  0  0
   -1.0025   -5.0942   27.4586 C   0  0  0  0  0  0  0  0  0  0  0  0
    2.2474   -8.9123   16.6273 C   0  0  0  0  0  0  0  0  0  0  0  0
    4.4957   -9.2636   17.3041 C   0  0  0  0  0  0  0  0  0  0  0  0
   -1.8070   -5.6086   28.1920 O   0  0  0  0  0  0  0  0  0  0  0  0
   10.4296   -5.1799   28.3140 C   0  0  0  0  0  0  0  0  0  0  0  0
    6.6017   -5.9004   26.9187 C   0  0  0  0  0  0  0  0  0  0  0  0
    2.4761   -6.9940   26.4111 N   0  0  0  0  0  0  0  0  0  0  0  0
    9.1353   -5.4053   27.8239 C   0  0  0  0  0  0  0  0  0  0  0  0
    0.9922   -9.3232   16.5995 O   0  0  0  0  0  0  0  0  0  0  0  0
    1.5232   -7.6869   27.1182 C   0  0  0  0  0  0  0  0  0  0  0  0
    8.6878   -6.6715   27.7262 N   0  0  0  0  0  0  0  0  0  0  0  0
    6.9911   -8.2423   27.1808 C   0  0  0  0  0  0  0  0  0  0  0  0
    3.8436   -7.2758   16.0578 C   0  0  0  0  0  0  0  0  0  0  0  0
    3.1882   -9.7190   17.2566 C   0  0  0  0  0  0  0  0  0  0  0  0
    5.3488   -6.1737   26.5092 C   0  0  0  0  0  0  0  0  0  0  0  0
    7.4567   -6.9464   27.2858 C   0  0  0  0  0  0  0  0  0  0  0  0
    0.1921   -5.7592   27.1123 C   0  0  0  0  0  0  0  0  0  0  0  0
    3.5517   -7.7407   25.9711 C   0  0  0  0  0  0  0  0  0  0  0  0
  1  4  4  0
  1 22  4  0
  2 20  4  0
  2 27  4  0
  3 12  4  0
  3 23  4  0
  4 25  4  0
  4 28  1  0
  5  8  4  0
  5 17  4  0
  6  7  4  0
  6 16  4  0
  7 18  4  0
  8 27  4  0
  9 13  4  0
  9 23  4  0
 10 11  1  0
 11 14  2  0
 11 27  1  0
 12 19  1  0
 12 24  4  0
 13 24  4  0
 15 18  1  0
 16 25  4  0
 16 26  4  0
 17 20  4  0
 17 28  1  0
 18 21  4  0
 21 26  4  0
 22 26  4  0
M  END
$$$$

 Created by Python create_sdf_string function

 28 30  0  0  0  0  0  0  0  0999 V2000
    5.7174   -8.4529   26.7190 C   0  0  0  0  0  0  0  0  0  0  0  0
    0.3974   -7.0711   27.5149 C   0  0  0  0  0  0  0  0  0  0  0  0
    2.5338   -7.6891   16.0102 C   0  0  0  0  0  0  0  0  0  0  0  0
    4.8690   -7.4380   26.4151 C   0  0  0  0  0  0  0  0  0  0  0  0
    2.3021   -5.6726   26.0378 C   0  0  0  0  0  0  0  0  0  0  0  0
    7.0880   -4.6163   27.0010 C   0  0  0  0  0  0  0  0  0  0  0  0
    8.3117   -4.3698   27.4436 C   0  0  0  0  0  0  0  0  0  0  0  0
    1.1339   -5.0515   26.3541 C   0  0  0  0  0  0  0  0  0  0  0  0
    4.8080   -8.0362   16.7101 C   0  0  0  0  0  0  0  0  0  0  0  0
   -1.2173   -3.9294   26.9717 O   0  0  0  0  0  0  0  0  0  0  0  0
   -1.0025   -5.0942   27.4586 C   0  0  0  0  0  0  0  0  0  0  0  0
    2.2474   -8.9123   16.6273 C   0  0  0  0  0  0  0  0  0  0  0  0
    4.4957   -9.2636   17.3041 C   0  0  0  0  0  0  0  0  0  0  0  0
   -1.8070   -5.6086   28.1920 O   0  0  0  0  0  0  0  0  0  0  0  0
   10.4296   -5.1799   28.3140 C   0  0  0  0  0  0  0  0  0  0  0  0
    6.6017   -5.9004   26.9187 C   0  0  0  0  0  0  0  0  0  0  0  0
    2.4761   -6.9940   26.4111 N   0  0  0  0  0  0  0  0  0  0  0  0
    9.1353   -5.4053   27.8239 C   0  0  0  0  0  0  0  0  0  0  0  0
    0.9922   -9.3232   16.5995 O   0  0  0  0  0  0  0  0  0  0  0  0
    1.5232   -7.6869   27.1182 C   0  0  0  0  0  0  0  0  0  0  0  0
    8.6878   -6.6715   27.7262 N   0  0  0  0  0  0  0  0  0  0  0  0
    6.9911   -8.2423   27.1808 C   0  0  0  0  0  0  0  0  0  0  0  0
    3.8436   -7.2758   16.0578 C   0  0  0  0  0  0  0  0  0  0  0  0
    3.1882   -9.7190   17.2566 C   0  0  0  0  0  0  0  0  0  0  0  0
    5.3488   -6.1737   26.5092 C   0  0  0  0  0  0  0  0  0  0  0  0
    7.4567   -6.9464   27.2858 C   0  0  0  0  0  0  0  0  0  0  0  0
    0.1921   -5.7592   27.1123 C   0  0  0  0  0  0  0  0  0  0  0  0
    3.5517   -7.7407   25.9711 C   0  0  0  0  0  0  0  0  0  0  0  0
  1  4  4  0
  1 22  4  0
  2 20  4  0
  2 27  4  0
  3 12  4  0
  3 23  4  0
  4 25  4  0
  4 28  1  0
  5  8  4  0
  5 17  4  0
  6  7  4  0
  6 16  4  0
  7 18  4  0
  8 27  4  0
  9 13  4  0
  9 23  4  0
 10 11  1  0
 11 14  2  0
 11 27  1  0
 12 19  1  0
 12 24  4  0
 13 24  4  0
 15 18  1  0
 16 25  4  0
 16 26  4  0
 17 20  4  0
 17 28  1  0
 18 21  4  0
 21 26  4  0
 22 26  4  0
M  END
$$$$

 Created by Python create_sdf_string function

 28 30  0  0  0  0  0  0  0  0999 V2000
    5.7174   -8.4529   26.7190 C   0  0  0  0  0  0  0  0  0  0  0  0
    0.3974   -7.0711   27.5149 C   0  0  0  0  0  0  0  0  0  0  0  0
    2.5338   -7.6891   16.0102 C   0  0  0  0  0  0  0  0  0  0  0  0
    4.8690   -7.4380   26.4151 C   0  0  0  0  0  0  0  0  0  0  0  0
    2.3021   -5.6726   26.0378 C   0  0  0  0  0  0  0  0  0  0  0  0
    7.0880   -4.6163   27.0010 C   0  0  0  0  0  0  0  0  0  0  0  0
    8.3117   -4.3698   27.4436 C   0  0  0  0  0  0  0  0  0  0  0  0
    1.1339   -5.0515   26.3541 C   0  0  0  0  0  0  0  0  0  0  0  0
    4.8080   -8.0362   16.7101 C   0  0  0  0  0  0  0  0  0  0  0  0
   -1.2173   -3.9294   26.9717 O   0  0  0  0  0  0  0  0  0  0  0  0
   -1.0025   -5.0942   27.4586 C   0  0  0  0  0  0  0  0  0  0  0  0
    2.2474   -8.9123   16.6273 C   0  0  0  0  0  0  0  0  0  0  0  0
    4.4957   -9.2636   17.3041 C   0  0  0  0  0  0  0  0  0  0  0  0
   -1.8070   -5.6086   28.1920 O   0  0  0  0  0  0  0  0  0  0  0  0
   10.4296   -5.1799   28.3140 C   0  0  0  0  0  0  0  0  0  0  0  0
    6.6017   -5.9004   26.9187 C   0  0  0  0  0  0  0  0  0  0  0  0
    2.4761   -6.9940   26.4111 N   0  0  0  0  0  0  0  0  0  0  0  0
    9.1353   -5.4053   27.8239 C   0  0  0  0  0  0  0  0  0  0  0  0
    0.9922   -9.3232   16.5995 O   0  0  0  0  0  0  0  0  0  0  0  0
    1.5232   -7.6869   27.1182 C   0  0  0  0  0  0  0  0  0  0  0  0
    8.6878   -6.6715   27.7262 N   0  0  0  0  0  0  0  0  0  0  0  0
    6.9911   -8.2423   27.1808 C   0  0  0  0  0  0  0  0  0  0  0  0
    3.8436   -7.2758   16.0578 C   0  0  0  0  0  0  0  0  0  0  0  0
    3.1882   -9.7190   17.2566 C   0  0  0  0  0  0  0  0  0  0  0  0
    5.3488   -6.1737   26.5092 C   0  0  0  0  0  0  0  0  0  0  0  0
    7.4567   -6.9464   27.2858 C   0  0  0  0  0  0  0  0  0  0  0  0
    0.1921   -5.7592   27.1123 C   0  0  0  0  0  0  0  0  0  0  0  0
    3.5517   -7.7407   25.9711 C   0  0  0  0  0  0  0  0  0  0  0  0
  1  4  4  0
  1 22  4  0
  2 20  4  0
  2 27  4  0
  3 12  4  0
  3 23  4  0
  4 25  4  0
  4 28  1  0
  5  8  4  0
  5 17  4  0
  6  7  4  0
  6 16  4  0
  7 18  4  0
  8 27  4  0
  9 13  4  0
  9 23  4  0
 10 11  1  0
 11 14  2  0
 11 27  1  0
 12 19  1  0
 12 24  4  0
 13 24  4  0
 15 18  1  0
 16 25  4  0
 16 26  4  0
 17 20  4  0
 17 28  1  0
 18 21  4  0
 21 26  4  0
 22 26  4  0
M  END
$$$$

 Created by Python create_sdf_string function

 28 30  0  0  0  0  0  0  0  0999 V2000
    5.7174   -8.4529   26.7190 C   0  0  0  0  0  0  0  0  0  0  0  0
    0.3974   -7.0711   27.5149 C   0  0  0  0  0  0  0  0  0  0  0  0
    2.5338   -7.6891   16.0102 C   0  0  0  0  0  0  0  0  0  0  0  0
    4.8690   -7.4380   26.4151 C   0  0  0  0  0  0  0  0  0  0  0  0
    2.3021   -5.6726   26.0378 C   0  0  0  0  0  0  0  0  0  0  0  0
    7.0880   -4.6163   27.0010 C   0  0  0  0  0  0  0  0  0  0  0  0
    8.3117   -4.3698   27.4436 C   0  0  0  0  0  0  0  0  0  0  0  0
    1.1339   -5.0515   26.3541 C   0  0  0  0  0  0  0  0  0  0  0  0
    4.8080   -8.0362   16.7101 C   0  0  0  0  0  0  0  0  0  0  0  0
   -1.2173   -3.9294   26.9717 O   0  0  0  0  0  0  0  0  0  0  0  0
   -1.0025   -5.0942   27.4586 C   0  0  0  0  0  0  0  0  0  0  0  0
    2.2474   -8.9123   16.6273 C   0  0  0  0  0  0  0  0  0  0  0  0
    4.4957   -9.2636   17.3041 C   0  0  0  0  0  0  0  0  0  0  0  0
   -1.8070   -5.6086   28.1920 O   0  0  0  0  0  0  0  0  0  0  0  0
   10.4296   -5.1799   28.3140 C   0  0  0  0  0  0  0  0  0  0  0  0
    6.6017   -5.9004   26.9187 C   0  0  0  0  0  0  0  0  0  0  0  0
    2.4761   -6.9940   26.4111 N   0  0  0  0  0  0  0  0  0  0  0  0
    9.1353   -5.4053   27.8239 C   0  0  0  0  0  0  0  0  0  0  0  0
    0.9922   -9.3232   16.5995 O   0  0  0  0  0  0  0  0  0  0  0  0
    1.5232   -7.6869   27.1182 C   0  0  0  0  0  0  0  0  0  0  0  0
    8.6878   -6.6715   27.7262 N   0  0  0  0  0  0  0  0  0  0  0  0
    6.9911   -8.2423   27.1808 C   0  0  0  0  0  0  0  0  0  0  0  0
    3.8436   -7.2758   16.0578 C   0  0  0  0  0  0  0  0  0  0  0  0
    3.1882   -9.7190   17.2566 C   0  0  0  0  0  0  0  0  0  0  0  0
    5.3488   -6.1737   26.5092 C   0  0  0  0  0  0  0  0  0  0  0  0
    7.4567   -6.9464   27.2858 C   0  0  0  0  0  0  0  0  0  0  0  0
    0.1921   -5.7592   27.1123 C   0  0  0  0  0  0  0  0  0  0  0  0
    3.5517   -7.7407   25.9711 C   0  0  0  0  0  0  0  0  0  0  0  0
  1  4  4  0
  1 22  4  0
  2 20  4  0
  2 27  4  0
  3 12  4  0
  3 23  4  0
  4 25  4  0
  4 28  1  0
  5  8  4  0
  5 17  4  0
  6  7  4  0
  6 16  4  0
  7 18  4  0
  8 27  4  0
  9 13  4  0
  9 23  4  0
 10 11  1  0
 11 14  2  0
 11 27  1  0
 12 19  1  0
 12 24  4  0
 13 24  4  0
 15 18  1  0
 16 25  4  0
 16 26  4  0
 17 20  4  0
 17 28  1  0
 18 21  4  0
 21 26  4  0
 22 26  4  0
M  END
$$$$

 Created by Python create_sdf_string function

 28 30  0  0  0  0  0  0  0  0999 V2000
    5.7174   -8.4529   26.7190 C   0  0  0  0  0  0  0  0  0  0  0  0
    0.3974   -7.0711   27.5149 C   0  0  0  0  0  0  0  0  0  0  0  0
    2.5338   -7.6891   16.0102 C   0  0  0  0  0  0  0  0  0  0  0  0
    4.8690   -7.4380   26.4151 C   0  0  0  0  0  0  0  0  0  0  0  0
    2.3021   -5.6726   26.0378 C   0  0  0  0  0  0  0  0  0  0  0  0
    7.0880   -4.6163   27.0010 C   0  0  0  0  0  0  0  0  0  0  0  0
    8.3117   -4.3698   27.4436 C   0  0  0  0  0  0  0  0  0  0  0  0
    1.1339   -5.0515   26.3541 C   0  0  0  0  0  0  0  0  0  0  0  0
    4.8080   -8.0362   16.7101 C   0  0  0  0  0  0  0  0  0  0  0  0
   -1.2173   -3.9294   26.9717 O   0  0  0  0  0  0  0  0  0  0  0  0
   -1.0025   -5.0942   27.4586 C   0  0  0  0  0  0  0  0  0  0  0  0
    2.2474   -8.9123   16.6273 C   0  0  0  0  0  0  0  0  0  0  0  0
    4.4957   -9.2636   17.3041 C   0  0  0  0  0  0  0  0  0  0  0  0
   -1.8070   -5.6086   28.1920 O   0  0  0  0  0  0  0  0  0  0  0  0
   10.4296   -5.1799   28.3140 C   0  0  0  0  0  0  0  0  0  0  0  0
    6.6017   -5.9004   26.9187 C   0  0  0  0  0  0  0  0  0  0  0  0
    2.4761   -6.9940   26.4111 N   0  0  0  0  0  0  0  0  0  0  0  0
    9.1353   -5.4053   27.8239 C   0  0  0  0  0  0  0  0  0  0  0  0
    0.9922   -9.3232   16.5995 O   0  0  0  0  0  0  0  0  0  0  0  0
    1.5232   -7.6869   27.1182 C   0  0  0  0  0  0  0  0  0  0  0  0
    8.6878   -6.6715   27.7262 N   0  0  0  0  0  0  0  0  0  0  0  0
    6.9911   -8.2423   27.1808 C   0  0  0  0  0  0  0  0  0  0  0  0
    3.8436   -7.2758   16.0578 C   0  0  0  0  0  0  0  0  0  0  0  0
    3.1882   -9.7190   17.2566 C   0  0  0  0  0  0  0  0  0  0  0  0
    5.3488   -6.1737   26.5092 C   0  0  0  0  0  0  0  0  0  0  0  0
    7.4567   -6.9464   27.2858 C   0  0  0  0  0  0  0  0  0  0  0  0
    0.1921   -5.7592   27.1123 C   0  0  0  0  0  0  0  0  0  0  0  0
    3.5517   -7.7407   25.9711 C   0  0  0  0  0  0  0  0  0  0  0  0
  1  4  4  0
  1 22  4  0
  2 20  4  0
  2 27  4  0
  3 12  4  0
  3 23  4  0
  4 25  4  0
  4 28  1  0
  5  8  4  0
  5 17  4  0
  6  7  4  0
  6 16  4  0
  7 18  4  0
  8 27  4  0
  9 13  4  0
  9 23  4  0
 10 11  1  0
 11 14  2  0
 11 27  1  0
 12 19  1  0
 12 24  4  0
 13 24  4  0
 15 18  1  0
 16 25  4  0
 16 26  4  0
 17 20  4  0
 17 28  1  0
 18 21  4  0
 21 26  4  0
 22 26  4  0
M  END
$$$$

 Created by Python create_sdf_string function

 28 30  0  0  0  0  0  0  0  0999 V2000
    5.7174   -8.4529   26.7190 C   0  0  0  0  0  0  0  0  0  0  0  0
    0.3974   -7.0711   27.5149 C   0  0  0  0  0  0  0  0  0  0  0  0
    2.5338   -7.6891   16.0102 C   0  0  0  0  0  0  0  0  0  0  0  0
    4.8690   -7.4380   26.4151 C   0  0  0  0  0  0  0  0  0  0  0  0
    2.3021   -5.6726   26.0378 C   0  0  0  0  0  0  0  0  0  0  0  0
    7.0880   -4.6163   27.0010 C   0  0  0  0  0  0  0  0  0  0  0  0
    8.3117   -4.3698   27.4436 C   0  0  0  0  0  0  0  0  0  0  0  0
    1.1339   -5.0515   26.3541 C   0  0  0  0  0  0  0  0  0  0  0  0
    4.8080   -8.0362   16.7101 C   0  0  0  0  0  0  0  0  0  0  0  0
   -1.2173   -3.9294   26.9717 O   0  0  0  0  0  0  0  0  0  0  0  0
   -1.0025   -5.0942   27.4586 C   0  0  0  0  0  0  0  0  0  0  0  0
    2.2474   -8.9123   16.6273 C   0  0  0  0  0  0  0  0  0  0  0  0
    4.4957   -9.2636   17.3041 C   0  0  0  0  0  0  0  0  0  0  0  0
   -1.8070   -5.6086   28.1920 O   0  0  0  0  0  0  0  0  0  0  0  0
   10.4296   -5.1799   28.3140 C   0  0  0  0  0  0  0  0  0  0  0  0
    6.6017   -5.9004   26.9187 C   0  0  0  0  0  0  0  0  0  0  0  0
    2.4761   -6.9940   26.4111 N   0  0  0  0  0  0  0  0  0  0  0  0
    9.1353   -5.4053   27.8239 C   0  0  0  0  0  0  0  0  0  0  0  0
    0.9922   -9.3232   16.5995 O   0  0  0  0  0  0  0  0  0  0  0  0
    1.5232   -7.6869   27.1182 C   0  0  0  0  0  0  0  0  0  0  0  0
    8.6878   -6.6715   27.7262 N   0  0  0  0  0  0  0  0  0  0  0  0
    6.9911   -8.2423   27.1808 C   0  0  0  0  0  0  0  0  0  0  0  0
    3.8436   -7.2758   16.0578 C   0  0  0  0  0  0  0  0  0  0  0  0
    3.1882   -9.7190   17.2566 C   0  0  0  0  0  0  0  0  0  0  0  0
    5.3488   -6.1737   26.5092 C   0  0  0  0  0  0  0  0  0  0  0  0
    7.4567   -6.9464   27.2858 C   0  0  0  0  0  0  0  0  0  0  0  0
    0.1921   -5.7592   27.1123 C   0  0  0  0  0  0  0  0  0  0  0  0
    3.5517   -7.7407   25.9711 C   0  0  0  0  0  0  0  0  0  0  0  0
  1  4  4  0
  1 22  4  0
  2 20  4  0
  2 27  4  0
  3 12  4  0
  3 23  4  0
  4 25  4  0
  4 28  1  0
  5  8  4  0
  5 17  4  0
  6  7  4  0
  6 16  4  0
  7 18  4  0
  8 27  4  0
  9 13  4  0
  9 23  4  0
 10 11  1  0
 11 14  2  0
 11 27  1  0
 12 19  1  0
 12 24  4  0
 13 24  4  0
 15 18  1  0
 16 25  4  0
 16 26  4  0
 17 20  4  0
 17 28  1  0
 18 21  4  0
 21 26  4  0
 22 26  4  0
M  END
$$$$

 Created by Python create_sdf_string function

 28 30  0  0  0  0  0  0  0  0999 V2000
    5.7174   -8.4529   26.7190 C   0  0  0  0  0  0  0  0  0  0  0  0
    0.3974   -7.0711   27.5149 C   0  0  0  0  0  0  0  0  0  0  0  0
    2.5338   -7.6891   16.0102 C   0  0  0  0  0  0  0  0  0  0  0  0
    4.8690   -7.4380   26.4151 C   0  0  0  0  0  0  0  0  0  0  0  0
    2.3021   -5.6726   26.0378 C   0  0  0  0  0  0  0  0  0  0  0  0
    7.0880   -4.6163   27.0010 C   0  0  0  0  0  0  0  0  0  0  0  0
    8.3117   -4.3698   27.4436 C   0  0  0  0  0  0  0  0  0  0  0  0
    1.1339   -5.0515   26.3541 C   0  0  0  0  0  0  0  0  0  0  0  0
    4.8080   -8.0362   16.7101 C   0  0  0  0  0  0  0  0  0  0  0  0
   -1.2173   -3.9294   26.9717 O   0  0  0  0  0  0  0  0  0  0  0  0
   -1.0025   -5.0942   27.4586 C   0  0  0  0  0  0  0  0  0  0  0  0
    2.2474   -8.9123   16.6273 C   0  0  0  0  0  0  0  0  0  0  0  0
    4.4957   -9.2636   17.3041 C   0  0  0  0  0  0  0  0  0  0  0  0
   -1.8070   -5.6086   28.1920 O   0  0  0  0  0  0  0  0  0  0  0  0
   10.4296   -5.1799   28.3140 C   0  0  0  0  0  0  0  0  0  0  0  0
    6.6017   -5.9004   26.9187 C   0  0  0  0  0  0  0  0  0  0  0  0
    2.4761   -6.9940   26.4111 N   0  0  0  0  0  0  0  0  0  0  0  0
    9.1353   -5.4053   27.8239 C   0  0  0  0  0  0  0  0  0  0  0  0
    0.9922   -9.3232   16.5995 O   0  0  0  0  0  0  0  0  0  0  0  0
    1.5232   -7.6869   27.1182 C   0  0  0  0  0  0  0  0  0  0  0  0
    8.6878   -6.6715   27.7262 N   0  0  0  0  0  0  0  0  0  0  0  0
    6.9911   -8.2423   27.1808 C   0  0  0  0  0  0  0  0  0  0  0  0
    3.8436   -7.2758   16.0578 C   0  0  0  0  0  0  0  0  0  0  0  0
    3.1882   -9.7190   17.2566 C   0  0  0  0  0  0  0  0  0  0  0  0
    5.3488   -6.1737   26.5092 C   0  0  0  0  0  0  0  0  0  0  0  0
    7.4567   -6.9464   27.2858 C   0  0  0  0  0  0  0  0  0  0  0  0
    0.1921   -5.7592   27.1123 C   0  0  0  0  0  0  0  0  0  0  0  0
    3.5517   -7.7407   25.9711 C   0  0  0  0  0  0  0  0  0  0  0  0
  1  4  4  0
  1 22  4  0
  2 20  4  0
  2 27  4  0
  3 12  4  0
  3 23  4  0
  4 25  4  0
  4 28  1  0
  5  8  4  0
  5 17  4  0
  6  7  4  0
  6 16  4  0
  7 18  4  0
  8 27  4  0
  9 13  4  0
  9 23  4  0
 10 11  1  0
 11 14  2  0
 11 27  1  0
 12 19  1  0
 12 24  4  0
 13 24  4  0
 15 18  1  0
 16 25  4  0
 16 26  4  0
 17 20  4  0
 17 28  1  0
 18 21  4  0
 21 26  4  0
 22 26  4  0
M  END
$$$$

 Created by Python create_sdf_string function

 28 30  0  0  0  0  0  0  0  0999 V2000
    5.7174   -8.4529   26.7190 C   0  0  0  0  0  0  0  0  0  0  0  0
    0.3974   -7.0711   27.5149 C   0  0  0  0  0  0  0  0  0  0  0  0
    2.5338   -7.6891   16.0102 C   0  0  0  0  0  0  0  0  0  0  0  0
    4.8690   -7.4380   26.4151 C   0  0  0  0  0  0  0  0  0  0  0  0
    2.3021   -5.6726   26.0378 C   0  0  0  0  0  0  0  0  0  0  0  0
    7.0880   -4.6163   27.0010 C   0  0  0  0  0  0  0  0  0  0  0  0
    8.3117   -4.3698   27.4436 C   0  0  0  0  0  0  0  0  0  0  0  0
    1.1339   -5.0515   26.3541 C   0  0  0  0  0  0  0  0  0  0  0  0
    4.8080   -8.0362   16.7101 C   0  0  0  0  0  0  0  0  0  0  0  0
   -1.2173   -3.9294   26.9717 O   0  0  0  0  0  0  0  0  0  0  0  0
   -1.0025   -5.0942   27.4586 C   0  0  0  0  0  0  0  0  0  0  0  0
    2.2474   -8.9123   16.6273 C   0  0  0  0  0  0  0  0  0  0  0  0
    4.4957   -9.2636   17.3041 C   0  0  0  0  0  0  0  0  0  0  0  0
   -1.8070   -5.6086   28.1920 O   0  0  0  0  0  0  0  0  0  0  0  0
   10.4296   -5.1799   28.3140 C   0  0  0  0  0  0  0  0  0  0  0  0
    6.6017   -5.9004   26.9187 C   0  0  0  0  0  0  0  0  0  0  0  0
    2.4761   -6.9940   26.4111 N   0  0  0  0  0  0  0  0  0  0  0  0
    9.1353   -5.4053   27.8239 C   0  0  0  0  0  0  0  0  0  0  0  0
    0.9922   -9.3232   16.5995 O   0  0  0  0  0  0  0  0  0  0  0  0
    1.5232   -7.6869   27.1182 C   0  0  0  0  0  0  0  0  0  0  0  0
    8.6878   -6.6715   27.7262 N   0  0  0  0  0  0  0  0  0  0  0  0
    6.9911   -8.2423   27.1808 C   0  0  0  0  0  0  0  0  0  0  0  0
    3.8436   -7.2758   16.0578 C   0  0  0  0  0  0  0  0  0  0  0  0
    3.1882   -9.7190   17.2566 C   0  0  0  0  0  0  0  0  0  0  0  0
    5.3488   -6.1737   26.5092 C   0  0  0  0  0  0  0  0  0  0  0  0
    7.4567   -6.9464   27.2858 C   0  0  0  0  0  0  0  0  0  0  0  0
    0.1921   -5.7592   27.1123 C   0  0  0  0  0  0  0  0  0  0  0  0
    3.5517   -7.7407   25.9711 C   0  0  0  0  0  0  0  0  0  0  0  0
  1  4  4  0
  1 22  4  0
  2 20  4  0
  2 27  4  0
  3 12  4  0
  3 23  4  0
  4 25  4  0
  4 28  1  0
  5  8  4  0
  5 17  4  0
  6  7  4  0
  6 16  4  0
  7 18  4  0
  8 27  4  0
  9 13  4  0
  9 23  4  0
 10 11  1  0
 11 14  2  0
 11 27  1  0
 12 19  1  0
 12 24  4  0
 13 24  4  0
 15 18  1  0
 16 25  4  0
 16 26  4  0
 17 20  4  0
 17 28  1  0
 18 21  4  0
 21 26  4  0
 22 26  4  0
M  END
$$$$

 Created by Python create_sdf_string function

 28 30  0  0  0  0  0  0  0  0999 V2000
    5.7174   -8.4529   26.7190 C   0  0  0  0  0  0  0  0  0  0  0  0
    0.3974   -7.0711   27.5149 C   0  0  0  0  0  0  0  0  0  0  0  0
    2.5338   -7.6891   16.0102 C   0  0  0  0  0  0  0  0  0  0  0  0
    4.8690   -7.4380   26.4151 C   0  0  0  0  0  0  0  0  0  0  0  0
    2.3021   -5.6726   26.0378 C   0  0  0  0  0  0  0  0  0  0  0  0
    7.0880   -4.6163   27.0010 C   0  0  0  0  0  0  0  0  0  0  0  0
    8.3117   -4.3698   27.4436 C   0  0  0  0  0  0  0  0  0  0  0  0
    1.1339   -5.0515   26.3541 C   0  0  0  0  0  0  0  0  0  0  0  0
    4.8080   -8.0362   16.7101 C   0  0  0  0  0  0  0  0  0  0  0  0
   -1.2173   -3.9294   26.9717 O   0  0  0  0  0  0  0  0  0  0  0  0
   -1.0025   -5.0942   27.4586 C   0  0  0  0  0  0  0  0  0  0  0  0
    2.2474   -8.9123   16.6273 C   0  0  0  0  0  0  0  0  0  0  0  0
    4.4957   -9.2636   17.3041 C   0  0  0  0  0  0  0  0  0  0  0  0
   -1.8070   -5.6086   28.1920 O   0  0  0  0  0  0  0  0  0  0  0  0
   10.4296   -5.1799   28.3140 C   0  0  0  0  0  0  0  0  0  0  0  0
    6.6017   -5.9004   26.9187 C   0  0  0  0  0  0  0  0  0  0  0  0
    2.4761   -6.9940   26.4111 N   0  0  0  0  0  0  0  0  0  0  0  0
    9.1353   -5.4053   27.8239 C   0  0  0  0  0  0  0  0  0  0  0  0
    0.9922   -9.3232   16.5995 O   0  0  0  0  0  0  0  0  0  0  0  0
    1.5232   -7.6869   27.1182 C   0  0  0  0  0  0  0  0  0  0  0  0
    8.6878   -6.6715   27.7262 N   0  0  0  0  0  0  0  0  0  0  0  0
    6.9911   -8.2423   27.1808 C   0  0  0  0  0  0  0  0  0  0  0  0
    3.8436   -7.2758   16.0578 C   0  0  0  0  0  0  0  0  0  0  0  0
    3.1882   -9.7190   17.2566 C   0  0  0  0  0  0  0  0  0  0  0  0
    5.3488   -6.1737   26.5092 C   0  0  0  0  0  0  0  0  0  0  0  0
    7.4567   -6.9464   27.2858 C   0  0  0  0  0  0  0  0  0  0  0  0
    0.1921   -5.7592   27.1123 C   0  0  0  0  0  0  0  0  0  0  0  0
    3.5517   -7.7407   25.9711 C   0  0  0  0  0  0  0  0  0  0  0  0
  1  4  4  0
  1 22  4  0
  2 20  4  0
  2 27  4  0
  3 12  4  0
  3 23  4  0
  4 25  4  0
  4 28  1  0
  5  8  4  0
  5 17  4  0
  6  7  4  0
  6 16  4  0
  7 18  4  0
  8 27  4  0
  9 13  4  0
  9 23  4  0
 10 11  1  0
 11 14  2  0
 11 27  1  0
 12 19  1  0
 12 24  4  0
 13 24  4  0
 15 18  1  0
 16 25  4  0
 16 26  4  0
 17 20  4  0
 17 28  1  0
 18 21  4  0
 21 26  4  0
 22 26  4  0
M  END
$$$$

 Created by Python create_sdf_string function

 28 30  0  0  0  0  0  0  0  0999 V2000
    5.7174   -8.4529   26.7190 C   0  0  0  0  0  0  0  0  0  0  0  0
    0.3974   -7.0711   27.5149 C   0  0  0  0  0  0  0  0  0  0  0  0
    2.5338   -7.6891   16.0102 C   0  0  0  0  0  0  0  0  0  0  0  0
    4.8690   -7.4380   26.4151 C   0  0  0  0  0  0  0  0  0  0  0  0
    2.3021   -5.6726   26.0378 C   0  0  0  0  0  0  0  0  0  0  0  0
    7.0880   -4.6163   27.0010 C   0  0  0  0  0  0  0  0  0  0  0  0
    8.3117   -4.3698   27.4436 C   0  0  0  0  0  0  0  0  0  0  0  0
    1.1339   -5.0515   26.3541 C   0  0  0  0  0  0  0  0  0  0  0  0
    4.8080   -8.0362   16.7101 C   0  0  0  0  0  0  0  0  0  0  0  0
   -1.2173   -3.9294   26.9717 O   0  0  0  0  0  0  0  0  0  0  0  0
   -1.0025   -5.0942   27.4586 C   0  0  0  0  0  0  0  0  0  0  0  0
    2.2474   -8.9123   16.6273 C   0  0  0  0  0  0  0  0  0  0  0  0
    4.4957   -9.2636   17.3041 C   0  0  0  0  0  0  0  0  0  0  0  0
   -1.8070   -5.6086   28.1920 O   0  0  0  0  0  0  0  0  0  0  0  0
   10.4296   -5.1799   28.3140 C   0  0  0  0  0  0  0  0  0  0  0  0
    6.6017   -5.9004   26.9187 C   0  0  0  0  0  0  0  0  0  0  0  0
    2.4761   -6.9940   26.4111 N   0  0  0  0  0  0  0  0  0  0  0  0
    9.1353   -5.4053   27.8239 C   0  0  0  0  0  0  0  0  0  0  0  0
    0.9922   -9.3232   16.5995 O   0  0  0  0  0  0  0  0  0  0  0  0
    1.5232   -7.6869   27.1182 C   0  0  0  0  0  0  0  0  0  0  0  0
    8.6878   -6.6715   27.7262 N   0  0  0  0  0  0  0  0  0  0  0  0
    6.9911   -8.2423   27.1808 C   0  0  0  0  0  0  0  0  0  0  0  0
    3.8436   -7.2758   16.0578 C   0  0  0  0  0  0  0  0  0  0  0  0
    3.1882   -9.7190   17.2566 C   0  0  0  0  0  0  0  0  0  0  0  0
    5.3488   -6.1737   26.5092 C   0  0  0  0  0  0  0  0  0  0  0  0
    7.4567   -6.9464   27.2858 C   0  0  0  0  0  0  0  0  0  0  0  0
    0.1921   -5.7592   27.1123 C   0  0  0  0  0  0  0  0  0  0  0  0
    3.5517   -7.7407   25.9711 C   0  0  0  0  0  0  0  0  0  0  0  0
  1  4  4  0
  1 22  4  0
  2 20  4  0
  2 27  4  0
  3 12  4  0
  3 23  4  0
  4 25  4  0
  4 28  1  0
  5  8  4  0
  5 17  4  0
  6  7  4  0
  6 16  4  0
  7 18  4  0
  8 27  4  0
  9 13  4  0
  9 23  4  0
 10 11  1  0
 11 14  2  0
 11 27  1  0
 12 19  1  0
 12 24  4  0
 13 24  4  0
 15 18  1  0
 16 25  4  0
 16 26  4  0
 17 20  4  0
 17 28  1  0
 18 21  4  0
 21 26  4  0
 22 26  4  0
M  END
$$$$

 Created by Python create_sdf_string function

 28 30  0  0  0  0  0  0  0  0999 V2000
    5.7174   -8.4529   26.7190 C   0  0  0  0  0  0  0  0  0  0  0  0
    0.3974   -7.0711   27.5149 C   0  0  0  0  0  0  0  0  0  0  0  0
    2.5338   -7.6891   16.0102 C   0  0  0  0  0  0  0  0  0  0  0  0
    4.8690   -7.4380   26.4151 C   0  0  0  0  0  0  0  0  0  0  0  0
    2.3021   -5.6726   26.0378 C   0  0  0  0  0  0  0  0  0  0  0  0
    7.0880   -4.6163   27.0010 C   0  0  0  0  0  0  0  0  0  0  0  0
    8.3117   -4.3698   27.4436 C   0  0  0  0  0  0  0  0  0  0  0  0
    1.1339   -5.0515   26.3541 C   0  0  0  0  0  0  0  0  0  0  0  0
    4.8080   -8.0362   16.7101 C   0  0  0  0  0  0  0  0  0  0  0  0
   -1.2173   -3.9294   26.9717 O   0  0  0  0  0  0  0  0  0  0  0  0
   -1.0025   -5.0942   27.4586 C   0  0  0  0  0  0  0  0  0  0  0  0
    2.2474   -8.9123   16.6273 C   0  0  0  0  0  0  0  0  0  0  0  0
    4.4957   -9.2636   17.3041 C   0  0  0  0  0  0  0  0  0  0  0  0
   -1.8070   -5.6086   28.1920 O   0  0  0  0  0  0  0  0  0  0  0  0
   10.4296   -5.1799   28.3140 C   0  0  0  0  0  0  0  0  0  0  0  0
    6.6017   -5.9004   26.9187 C   0  0  0  0  0  0  0  0  0  0  0  0
    2.4761   -6.9940   26.4111 N   0  0  0  0  0  0  0  0  0  0  0  0
    9.1353   -5.4053   27.8239 C   0  0  0  0  0  0  0  0  0  0  0  0
    0.9922   -9.3232   16.5995 O   0  0  0  0  0  0  0  0  0  0  0  0
    1.5232   -7.6869   27.1182 C   0  0  0  0  0  0  0  0  0  0  0  0
    8.6878   -6.6715   27.7262 N   0  0  0  0  0  0  0  0  0  0  0  0
    6.9911   -8.2423   27.1808 C   0  0  0  0  0  0  0  0  0  0  0  0
    3.8436   -7.2758   16.0578 C   0  0  0  0  0  0  0  0  0  0  0  0
    3.1882   -9.7190   17.2566 C   0  0  0  0  0  0  0  0  0  0  0  0
    5.3488   -6.1737   26.5092 C   0  0  0  0  0  0  0  0  0  0  0  0
    7.4567   -6.9464   27.2858 C   0  0  0  0  0  0  0  0  0  0  0  0
    0.1921   -5.7592   27.1123 C   0  0  0  0  0  0  0  0  0  0  0  0
    3.5517   -7.7407   25.9711 C   0  0  0  0  0  0  0  0  0  0  0  0
  1  4  4  0
  1 22  4  0
  2 20  4  0
  2 27  4  0
  3 12  4  0
  3 23  4  0
  4 25  4  0
  4 28  1  0
  5  8  4  0
  5 17  4  0
  6  7  4  0
  6 16  4  0
  7 18  4  0
  8 27  4  0
  9 13  4  0
  9 23  4  0
 10 11  1  0
 11 14  2  0
 11 27  1  0
 12 19  1  0
 12 24  4  0
 13 24  4  0
 15 18  1  0
 16 25  4  0
 16 26  4  0
 17 20  4  0
 17 28  1  0
 18 21  4  0
 21 26  4  0
 22 26  4  0
M  END
$$$$

 Created by Python create_sdf_string function

 28 30  0  0  0  0  0  0  0  0999 V2000
    5.7174   -8.4529   26.7190 C   0  0  0  0  0  0  0  0  0  0  0  0
    0.3974   -7.0711   27.5149 C   0  0  0  0  0  0  0  0  0  0  0  0
    2.5338   -7.6891   16.0102 C   0  0  0  0  0  0  0  0  0  0  0  0
    4.8690   -7.4380   26.4151 C   0  0  0  0  0  0  0  0  0  0  0  0
    2.3021   -5.6726   26.0378 C   0  0  0  0  0  0  0  0  0  0  0  0
    7.0880   -4.6163   27.0010 C   0  0  0  0  0  0  0  0  0  0  0  0
    8.3117   -4.3698   27.4436 C   0  0  0  0  0  0  0  0  0  0  0  0
    1.1339   -5.0515   26.3541 C   0  0  0  0  0  0  0  0  0  0  0  0
    4.8080   -8.0362   16.7101 C   0  0  0  0  0  0  0  0  0  0  0  0
   -1.2173   -3.9294   26.9717 O   0  0  0  0  0  0  0  0  0  0  0  0
   -1.0025   -5.0942   27.4586 C   0  0  0  0  0  0  0  0  0  0  0  0
    2.2474   -8.9123   16.6273 C   0  0  0  0  0  0  0  0  0  0  0  0
    4.4957   -9.2636   17.3041 C   0  0  0  0  0  0  0  0  0  0  0  0
   -1.8070   -5.6086   28.1920 O   0  0  0  0  0  0  0  0  0  0  0  0
   10.4296   -5.1799   28.3140 C   0  0  0  0  0  0  0  0  0  0  0  0
    6.6017   -5.9004   26.9187 C   0  0  0  0  0  0  0  0  0  0  0  0
    2.4761   -6.9940   26.4111 N   0  0  0  0  0  0  0  0  0  0  0  0
    9.1353   -5.4053   27.8239 C   0  0  0  0  0  0  0  0  0  0  0  0
    0.9922   -9.3232   16.5995 O   0  0  0  0  0  0  0  0  0  0  0  0
    1.5232   -7.6869   27.1182 C   0  0  0  0  0  0  0  0  0  0  0  0
    8.6878   -6.6715   27.7262 N   0  0  0  0  0  0  0  0  0  0  0  0
    6.9911   -8.2423   27.1808 C   0  0  0  0  0  0  0  0  0  0  0  0
    3.8436   -7.2758   16.0578 C   0  0  0  0  0  0  0  0  0  0  0  0
    3.1882   -9.7190   17.2566 C   0  0  0  0  0  0  0  0  0  0  0  0
    5.3488   -6.1737   26.5092 C   0  0  0  0  0  0  0  0  0  0  0  0
    7.4567   -6.9464   27.2858 C   0  0  0  0  0  0  0  0  0  0  0  0
    0.1921   -5.7592   27.1123 C   0  0  0  0  0  0  0  0  0  0  0  0
    3.5517   -7.7407   25.9711 C   0  0  0  0  0  0  0  0  0  0  0  0
  1  4  4  0
  1 22  4  0
  2 20  4  0
  2 27  4  0
  3 12  4  0
  3 23  4  0
  4 25  4  0
  4 28  1  0
  5  8  4  0
  5 17  4  0
  6  7  4  0
  6 16  4  0
  7 18  4  0
  8 27  4  0
  9 13  4  0
  9 23  4  0
 10 11  1  0
 11 14  2  0
 11 27  1  0
 12 19  1  0
 12 24  4  0
 13 24  4  0
 15 18  1  0
 16 25  4  0
 16 26  4  0
 17 20  4  0
 17 28  1  0
 18 21  4  0
 21 26  4  0
 22 26  4  0
M  END
$$$$

 Created by Python create_sdf_string function

 28 30  0  0  0  0  0  0  0  0999 V2000
    5.7174   -8.4529   26.7190 C   0  0  0  0  0  0  0  0  0  0  0  0
    0.3974   -7.0711   27.5149 C   0  0  0  0  0  0  0  0  0  0  0  0
    2.5338   -7.6891   16.0102 C   0  0  0  0  0  0  0  0  0  0  0  0
    4.8690   -7.4380   26.4151 C   0  0  0  0  0  0  0  0  0  0  0  0
    2.3021   -5.6726   26.0378 C   0  0  0  0  0  0  0  0  0  0  0  0
    7.0880   -4.6163   27.0010 C   0  0  0  0  0  0  0  0  0  0  0  0
    8.3117   -4.3698   27.4436 C   0  0  0  0  0  0  0  0  0  0  0  0
    1.1339   -5.0515   26.3541 C   0  0  0  0  0  0  0  0  0  0  0  0
    4.8080   -8.0362   16.7101 C   0  0  0  0  0  0  0  0  0  0  0  0
   -1.2173   -3.9294   26.9717 O   0  0  0  0  0  0  0  0  0  0  0  0
   -1.0025   -5.0942   27.4586 C   0  0  0  0  0  0  0  0  0  0  0  0
    2.2474   -8.9123   16.6273 C   0  0  0  0  0  0  0  0  0  0  0  0
    4.4957   -9.2636   17.3041 C   0  0  0  0  0  0  0  0  0  0  0  0
   -1.8070   -5.6086   28.1920 O   0  0  0  0  0  0  0  0  0  0  0  0
   10.4296   -5.1799   28.3140 C   0  0  0  0  0  0  0  0  0  0  0  0
    6.6017   -5.9004   26.9187 C   0  0  0  0  0  0  0  0  0  0  0  0
    2.4761   -6.9940   26.4111 N   0  0  0  0  0  0  0  0  0  0  0  0
    9.1353   -5.4053   27.8239 C   0  0  0  0  0  0  0  0  0  0  0  0
    0.9922   -9.3232   16.5995 O   0  0  0  0  0  0  0  0  0  0  0  0
    1.5232   -7.6869   27.1182 C   0  0  0  0  0  0  0  0  0  0  0  0
    8.6878   -6.6715   27.7262 N   0  0  0  0  0  0  0  0  0  0  0  0
    6.9911   -8.2423   27.1808 C   0  0  0  0  0  0  0  0  0  0  0  0
    3.8436   -7.2758   16.0578 C   0  0  0  0  0  0  0  0  0  0  0  0
    3.1882   -9.7190   17.2566 C   0  0  0  0  0  0  0  0  0  0  0  0
    5.3488   -6.1737   26.5092 C   0  0  0  0  0  0  0  0  0  0  0  0
    7.4567   -6.9464   27.2858 C   0  0  0  0  0  0  0  0  0  0  0  0
    0.1921   -5.7592   27.1123 C   0  0  0  0  0  0  0  0  0  0  0  0
    3.5517   -7.7407   25.9711 C   0  0  0  0  0  0  0  0  0  0  0  0
  1  4  4  0
  1 22  4  0
  2 20  4  0
  2 27  4  0
  3 12  4  0
  3 23  4  0
  4 25  4  0
  4 28  1  0
  5  8  4  0
  5 17  4  0
  6  7  4  0
  6 16  4  0
  7 18  4  0
  8 27  4  0
  9 13  4  0
  9 23  4  0
 10 11  1  0
 11 14  2  0
 11 27  1  0
 12 19  1  0
 12 24  4  0
 13 24  4  0
 15 18  1  0
 16 25  4  0
 16 26  4  0
 17 20  4  0
 17 28  1  0
 18 21  4  0
 21 26  4  0
 22 26  4  0
M  END
$$$$

 Created by Python create_sdf_string function

 28 30  0  0  0  0  0  0  0  0999 V2000
    5.7174   -8.4529   26.7190 C   0  0  0  0  0  0  0  0  0  0  0  0
    0.3974   -7.0711   27.5149 C   0  0  0  0  0  0  0  0  0  0  0  0
    2.5338   -7.6891   16.0102 C   0  0  0  0  0  0  0  0  0  0  0  0
    4.8690   -7.4380   26.4151 C   0  0  0  0  0  0  0  0  0  0  0  0
    2.3021   -5.6726   26.0378 C   0  0  0  0  0  0  0  0  0  0  0  0
    7.0880   -4.6163   27.0010 C   0  0  0  0  0  0  0  0  0  0  0  0
    8.3117   -4.3698   27.4436 C   0  0  0  0  0  0  0  0  0  0  0  0
    1.1339   -5.0515   26.3541 C   0  0  0  0  0  0  0  0  0  0  0  0
    4.8080   -8.0362   16.7101 C   0  0  0  0  0  0  0  0  0  0  0  0
   -1.2173   -3.9294   26.9717 O   0  0  0  0  0  0  0  0  0  0  0  0
   -1.0025   -5.0942   27.4586 C   0  0  0  0  0  0  0  0  0  0  0  0
    2.2474   -8.9123   16.6273 C   0  0  0  0  0  0  0  0  0  0  0  0
    4.4957   -9.2636   17.3041 C   0  0  0  0  0  0  0  0  0  0  0  0
   -1.8070   -5.6086   28.1920 O   0  0  0  0  0  0  0  0  0  0  0  0
   10.4296   -5.1799   28.3140 C   0  0  0  0  0  0  0  0  0  0  0  0
    6.6017   -5.9004   26.9187 C   0  0  0  0  0  0  0  0  0  0  0  0
    2.4761   -6.9940   26.4111 N   0  0  0  0  0  0  0  0  0  0  0  0
    9.1353   -5.4053   27.8239 C   0  0  0  0  0  0  0  0  0  0  0  0
    0.9922   -9.3232   16.5995 O   0  0  0  0  0  0  0  0  0  0  0  0
    1.5232   -7.6869   27.1182 C   0  0  0  0  0  0  0  0  0  0  0  0
    8.6878   -6.6715   27.7262 N   0  0  0  0  0  0  0  0  0  0  0  0
    6.9911   -8.2423   27.1808 C   0  0  0  0  0  0  0  0  0  0  0  0
    3.8436   -7.2758   16.0578 C   0  0  0  0  0  0  0  0  0  0  0  0
    3.1882   -9.7190   17.2566 C   0  0  0  0  0  0  0  0  0  0  0  0
    5.3488   -6.1737   26.5092 C   0  0  0  0  0  0  0  0  0  0  0  0
    7.4567   -6.9464   27.2858 C   0  0  0  0  0  0  0  0  0  0  0  0
    0.1921   -5.7592   27.1123 C   0  0  0  0  0  0  0  0  0  0  0  0
    3.5517   -7.7407   25.9711 C   0  0  0  0  0  0  0  0  0  0  0  0
  1  4  4  0
  1 22  4  0
  2 20  4  0
  2 27  4  0
  3 12  4  0
  3 23  4  0
  4 25  4  0
  4 28  1  0
  5  8  4  0
  5 17  4  0
  6  7  4  0
  6 16  4  0
  7 18  4  0
  8 27  4  0
  9 13  4  0
  9 23  4  0
 10 11  1  0
 11 14  2  0
 11 27  1  0
 12 19  1  0
 12 24  4  0
 13 24  4  0
 15 18  1  0
 16 25  4  0
 16 26  4  0
 17 20  4  0
 17 28  1  0
 18 21  4  0
 21 26  4  0
 22 26  4  0
M  END
$$$$

 Created by Python create_sdf_string function

 28 30  0  0  0  0  0  0  0  0999 V2000
    5.7174   -8.4529   26.7190 C   0  0  0  0  0  0  0  0  0  0  0  0
    0.3974   -7.0711   27.5149 C   0  0  0  0  0  0  0  0  0  0  0  0
    2.5338   -7.6891   16.0102 C   0  0  0  0  0  0  0  0  0  0  0  0
    4.8690   -7.4380   26.4151 C   0  0  0  0  0  0  0  0  0  0  0  0
    2.3021   -5.6726   26.0378 C   0  0  0  0  0  0  0  0  0  0  0  0
    7.0880   -4.6163   27.0010 C   0  0  0  0  0  0  0  0  0  0  0  0
    8.3117   -4.3698   27.4436 C   0  0  0  0  0  0  0  0  0  0  0  0
    1.1339   -5.0515   26.3541 C   0  0  0  0  0  0  0  0  0  0  0  0
    4.8080   -8.0362   16.7101 C   0  0  0  0  0  0  0  0  0  0  0  0
   -1.2173   -3.9294   26.9717 O   0  0  0  0  0  0  0  0  0  0  0  0
   -1.0025   -5.0942   27.4586 C   0  0  0  0  0  0  0  0  0  0  0  0
    2.2474   -8.9123   16.6273 C   0  0  0  0  0  0  0  0  0  0  0  0
    4.4957   -9.2636   17.3041 C   0  0  0  0  0  0  0  0  0  0  0  0
   -1.8070   -5.6086   28.1920 O   0  0  0  0  0  0  0  0  0  0  0  0
   10.4296   -5.1799   28.3140 C   0  0  0  0  0  0  0  0  0  0  0  0
    6.6017   -5.9004   26.9187 C   0  0  0  0  0  0  0  0  0  0  0  0
    2.4761   -6.9940   26.4111 N   0  0  0  0  0  0  0  0  0  0  0  0
    9.1353   -5.4053   27.8239 C   0  0  0  0  0  0  0  0  0  0  0  0
    0.9922   -9.3232   16.5995 O   0  0  0  0  0  0  0  0  0  0  0  0
    1.5232   -7.6869   27.1182 C   0  0  0  0  0  0  0  0  0  0  0  0
    8.6878   -6.6715   27.7262 N   0  0  0  0  0  0  0  0  0  0  0  0
    6.9911   -8.2423   27.1808 C   0  0  0  0  0  0  0  0  0  0  0  0
    3.8436   -7.2758   16.0578 C   0  0  0  0  0  0  0  0  0  0  0  0
    3.1882   -9.7190   17.2566 C   0  0  0  0  0  0  0  0  0  0  0  0
    5.3488   -6.1737   26.5092 C   0  0  0  0  0  0  0  0  0  0  0  0
    7.4567   -6.9464   27.2858 C   0  0  0  0  0  0  0  0  0  0  0  0
    0.1921   -5.7592   27.1123 C   0  0  0  0  0  0  0  0  0  0  0  0
    3.5517   -7.7407   25.9711 C   0  0  0  0  0  0  0  0  0  0  0  0
  1  4  4  0
  1 22  4  0
  2 20  4  0
  2 27  4  0
  3 12  4  0
  3 23  4  0
  4 25  4  0
  4 28  1  0
  5  8  4  0
  5 17  4  0
  6  7  4  0
  6 16  4  0
  7 18  4  0
  8 27  4  0
  9 13  4  0
  9 23  4  0
 10 11  1  0
 11 14  2  0
 11 27  1  0
 12 19  1  0
 12 24  4  0
 13 24  4  0
 15 18  1  0
 16 25  4  0
 16 26  4  0
 17 20  4  0
 17 28  1  0
 18 21  4  0
 21 26  4  0
 22 26  4  0
M  END
$$$$

 Created by Python create_sdf_string function

 28 30  0  0  0  0  0  0  0  0999 V2000
    5.7174   -8.4529   26.7190 C   0  0  0  0  0  0  0  0  0  0  0  0
    0.3974   -7.0711   27.5149 C   0  0  0  0  0  0  0  0  0  0  0  0
    2.5338   -7.6891   16.0102 C   0  0  0  0  0  0  0  0  0  0  0  0
    4.8690   -7.4380   26.4151 C   0  0  0  0  0  0  0  0  0  0  0  0
    2.3021   -5.6726   26.0378 C   0  0  0  0  0  0  0  0  0  0  0  0
    7.0880   -4.6163   27.0010 C   0  0  0  0  0  0  0  0  0  0  0  0
    8.3117   -4.3698   27.4436 C   0  0  0  0  0  0  0  0  0  0  0  0
    1.1339   -5.0515   26.3541 C   0  0  0  0  0  0  0  0  0  0  0  0
    4.8080   -8.0362   16.7101 C   0  0  0  0  0  0  0  0  0  0  0  0
   -1.2173   -3.9294   26.9717 O   0  0  0  0  0  0  0  0  0  0  0  0
   -1.0025   -5.0942   27.4586 C   0  0  0  0  0  0  0  0  0  0  0  0
    2.2474   -8.9123   16.6273 C   0  0  0  0  0  0  0  0  0  0  0  0
    4.4957   -9.2636   17.3041 C   0  0  0  0  0  0  0  0  0  0  0  0
   -1.8070   -5.6086   28.1920 O   0  0  0  0  0  0  0  0  0  0  0  0
   10.4296   -5.1799   28.3140 C   0  0  0  0  0  0  0  0  0  0  0  0
    6.6017   -5.9004   26.9187 C   0  0  0  0  0  0  0  0  0  0  0  0
    2.4761   -6.9940   26.4111 N   0  0  0  0  0  0  0  0  0  0  0  0
    9.1353   -5.4053   27.8239 C   0  0  0  0  0  0  0  0  0  0  0  0
    0.9922   -9.3232   16.5995 O   0  0  0  0  0  0  0  0  0  0  0  0
    1.5232   -7.6869   27.1182 C   0  0  0  0  0  0  0  0  0  0  0  0
    8.6878   -6.6715   27.7262 N   0  0  0  0  0  0  0  0  0  0  0  0
    6.9911   -8.2423   27.1808 C   0  0  0  0  0  0  0  0  0  0  0  0
    3.8436   -7.2758   16.0578 C   0  0  0  0  0  0  0  0  0  0  0  0
    3.1882   -9.7190   17.2566 C   0  0  0  0  0  0  0  0  0  0  0  0
    5.3488   -6.1737   26.5092 C   0  0  0  0  0  0  0  0  0  0  0  0
    7.4567   -6.9464   27.2858 C   0  0  0  0  0  0  0  0  0  0  0  0
    0.1921   -5.7592   27.1123 C   0  0  0  0  0  0  0  0  0  0  0  0
    3.5517   -7.7407   25.9711 C   0  0  0  0  0  0  0  0  0  0  0  0
  1  4  4  0
  1 22  4  0
  2 20  4  0
  2 27  4  0
  3 12  4  0
  3 23  4  0
  4 25  4  0
  4 28  1  0
  5  8  4  0
  5 17  4  0
  6  7  4  0
  6 16  4  0
  7 18  4  0
  8 27  4  0
  9 13  4  0
  9 23  4  0
 10 11  1  0
 11 14  2  0
 11 27  1  0
 12 19  1  0
 12 24  4  0
 13 24  4  0
 15 18  1  0
 16 25  4  0
 16 26  4  0
 17 20  4  0
 17 28  1  0
 18 21  4  0
 21 26  4  0
 22 26  4  0
M  END
$$$$

 Created by Python create_sdf_string function

 28 30  0  0  0  0  0  0  0  0999 V2000
    5.7174   -8.4529   26.7190 C   0  0  0  0  0  0  0  0  0  0  0  0
    0.3974   -7.0711   27.5149 C   0  0  0  0  0  0  0  0  0  0  0  0
    2.5338   -7.6891   16.0102 C   0  0  0  0  0  0  0  0  0  0  0  0
    4.8690   -7.4380   26.4151 C   0  0  0  0  0  0  0  0  0  0  0  0
    2.3021   -5.6726   26.0378 C   0  0  0  0  0  0  0  0  0  0  0  0
    7.0880   -4.6163   27.0010 C   0  0  0  0  0  0  0  0  0  0  0  0
    8.3117   -4.3698   27.4436 C   0  0  0  0  0  0  0  0  0  0  0  0
    1.1339   -5.0515   26.3541 C   0  0  0  0  0  0  0  0  0  0  0  0
    4.8080   -8.0362   16.7101 C   0  0  0  0  0  0  0  0  0  0  0  0
   -1.2173   -3.9294   26.9717 O   0  0  0  0  0  0  0  0  0  0  0  0
   -1.0025   -5.0942   27.4586 C   0  0  0  0  0  0  0  0  0  0  0  0
    2.2474   -8.9123   16.6273 C   0  0  0  0  0  0  0  0  0  0  0  0
    4.4957   -9.2636   17.3041 C   0  0  0  0  0  0  0  0  0  0  0  0
   -1.8070   -5.6086   28.1920 O   0  0  0  0  0  0  0  0  0  0  0  0
   10.4296   -5.1799   28.3140 C   0  0  0  0  0  0  0  0  0  0  0  0
    6.6017   -5.9004   26.9187 C   0  0  0  0  0  0  0  0  0  0  0  0
    2.4761   -6.9940   26.4111 N   0  0  0  0  0  0  0  0  0  0  0  0
    9.1353   -5.4053   27.8239 C   0  0  0  0  0  0  0  0  0  0  0  0
    0.9922   -9.3232   16.5995 O   0  0  0  0  0  0  0  0  0  0  0  0
    1.5232   -7.6869   27.1182 C   0  0  0  0  0  0  0  0  0  0  0  0
    8.6878   -6.6715   27.7262 N   0  0  0  0  0  0  0  0  0  0  0  0
    6.9911   -8.2423   27.1808 C   0  0  0  0  0  0  0  0  0  0  0  0
    3.8436   -7.2758   16.0578 C   0  0  0  0  0  0  0  0  0  0  0  0
    3.1882   -9.7190   17.2566 C   0  0  0  0  0  0  0  0  0  0  0  0
    5.3488   -6.1737   26.5092 C   0  0  0  0  0  0  0  0  0  0  0  0
    7.4567   -6.9464   27.2858 C   0  0  0  0  0  0  0  0  0  0  0  0
    0.1921   -5.7592   27.1123 C   0  0  0  0  0  0  0  0  0  0  0  0
    3.5517   -7.7407   25.9711 C   0  0  0  0  0  0  0  0  0  0  0  0
  1  4  4  0
  1 22  4  0
  2 20  4  0
  2 27  4  0
  3 12  4  0
  3 23  4  0
  4 25  4  0
  4 28  1  0
  5  8  4  0
  5 17  4  0
  6  7  4  0
  6 16  4  0
  7 18  4  0
  8 27  4  0
  9 13  4  0
  9 23  4  0
 10 11  1  0
 11 14  2  0
 11 27  1  0
 12 19  1  0
 12 24  4  0
 13 24  4  0
 15 18  1  0
 16 25  4  0
 16 26  4  0
 17 20  4  0
 17 28  1  0
 18 21  4  0
 21 26  4  0
 22 26  4  0
M  END
$$$$

 Created by Python create_sdf_string function

 28 30  0  0  0  0  0  0  0  0999 V2000
    5.7174   -8.4529   26.7190 C   0  0  0  0  0  0  0  0  0  0  0  0
    0.3974   -7.0711   27.5149 C   0  0  0  0  0  0  0  0  0  0  0  0
    2.5338   -7.6891   16.0102 C   0  0  0  0  0  0  0  0  0  0  0  0
    4.8690   -7.4380   26.4151 C   0  0  0  0  0  0  0  0  0  0  0  0
    2.3021   -5.6726   26.0378 C   0  0  0  0  0  0  0  0  0  0  0  0
    7.0880   -4.6163   27.0010 C   0  0  0  0  0  0  0  0  0  0  0  0
    8.3117   -4.3698   27.4436 C   0  0  0  0  0  0  0  0  0  0  0  0
    1.1339   -5.0515   26.3541 C   0  0  0  0  0  0  0  0  0  0  0  0
    4.8080   -8.0362   16.7101 C   0  0  0  0  0  0  0  0  0  0  0  0
   -1.2173   -3.9294   26.9717 O   0  0  0  0  0  0  0  0  0  0  0  0
   -1.0025   -5.0942   27.4586 C   0  0  0  0  0  0  0  0  0  0  0  0
    2.2474   -8.9123   16.6273 C   0  0  0  0  0  0  0  0  0  0  0  0
    4.4957   -9.2636   17.3041 C   0  0  0  0  0  0  0  0  0  0  0  0
   -1.8070   -5.6086   28.1920 O   0  0  0  0  0  0  0  0  0  0  0  0
   10.4296   -5.1799   28.3140 C   0  0  0  0  0  0  0  0  0  0  0  0
    6.6017   -5.9004   26.9187 C   0  0  0  0  0  0  0  0  0  0  0  0
    2.4761   -6.9940   26.4111 N   0  0  0  0  0  0  0  0  0  0  0  0
    9.1353   -5.4053   27.8239 C   0  0  0  0  0  0  0  0  0  0  0  0
    0.9922   -9.3232   16.5995 O   0  0  0  0  0  0  0  0  0  0  0  0
    1.5232   -7.6869   27.1182 C   0  0  0  0  0  0  0  0  0  0  0  0
    8.6878   -6.6715   27.7262 N   0  0  0  0  0  0  0  0  0  0  0  0
    6.9911   -8.2423   27.1808 C   0  0  0  0  0  0  0  0  0  0  0  0
    3.8436   -7.2758   16.0578 C   0  0  0  0  0  0  0  0  0  0  0  0
    3.1882   -9.7190   17.2566 C   0  0  0  0  0  0  0  0  0  0  0  0
    5.3488   -6.1737   26.5092 C   0  0  0  0  0  0  0  0  0  0  0  0
    7.4567   -6.9464   27.2858 C   0  0  0  0  0  0  0  0  0  0  0  0
    0.1921   -5.7592   27.1123 C   0  0  0  0  0  0  0  0  0  0  0  0
    3.5517   -7.7407   25.9711 C   0  0  0  0  0  0  0  0  0  0  0  0
  1  4  4  0
  1 22  4  0
  2 20  4  0
  2 27  4  0
  3 12  4  0
  3 23  4  0
  4 25  4  0
  4 28  1  0
  5  8  4  0
  5 17  4  0
  6  7  4  0
  6 16  4  0
  7 18  4  0
  8 27  4  0
  9 13  4  0
  9 23  4  0
 10 11  1  0
 11 14  2  0
 11 27  1  0
 12 19  1  0
 12 24  4  0
 13 24  4  0
 15 18  1  0
 16 25  4  0
 16 26  4  0
 17 20  4  0
 17 28  1  0
 18 21  4  0
 21 26  4  0
 22 26  4  0
M  END
$$$$

 Created by Python create_sdf_string function

 28 30  0  0  0  0  0  0  0  0999 V2000
    5.7174   -8.4529   26.7190 C   0  0  0  0  0  0  0  0  0  0  0  0
    0.3974   -7.0711   27.5149 C   0  0  0  0  0  0  0  0  0  0  0  0
    2.5338   -7.6891   16.0102 C   0  0  0  0  0  0  0  0  0  0  0  0
    4.8690   -7.4380   26.4151 C   0  0  0  0  0  0  0  0  0  0  0  0
    2.3021   -5.6726   26.0378 C   0  0  0  0  0  0  0  0  0  0  0  0
    7.0880   -4.6163   27.0010 C   0  0  0  0  0  0  0  0  0  0  0  0
    8.3117   -4.3698   27.4436 C   0  0  0  0  0  0  0  0  0  0  0  0
    1.1339   -5.0515   26.3541 C   0  0  0  0  0  0  0  0  0  0  0  0
    4.8080   -8.0362   16.7101 C   0  0  0  0  0  0  0  0  0  0  0  0
   -1.2173   -3.9294   26.9717 O   0  0  0  0  0  0  0  0  0  0  0  0
   -1.0025   -5.0942   27.4586 C   0  0  0  0  0  0  0  0  0  0  0  0
    2.2474   -8.9123   16.6273 C   0  0  0  0  0  0  0  0  0  0  0  0
    4.4957   -9.2636   17.3041 C   0  0  0  0  0  0  0  0  0  0  0  0
   -1.8070   -5.6086   28.1920 O   0  0  0  0  0  0  0  0  0  0  0  0
   10.4296   -5.1799   28.3140 C   0  0  0  0  0  0  0  0  0  0  0  0
    6.6017   -5.9004   26.9187 C   0  0  0  0  0  0  0  0  0  0  0  0
    2.4761   -6.9940   26.4111 N   0  0  0  0  0  0  0  0  0  0  0  0
    9.1353   -5.4053   27.8239 C   0  0  0  0  0  0  0  0  0  0  0  0
    0.9922   -9.3232   16.5995 O   0  0  0  0  0  0  0  0  0  0  0  0
    1.5232   -7.6869   27.1182 C   0  0  0  0  0  0  0  0  0  0  0  0
    8.6878   -6.6715   27.7262 N   0  0  0  0  0  0  0  0  0  0  0  0
    6.9911   -8.2423   27.1808 C   0  0  0  0  0  0  0  0  0  0  0  0
    3.8436   -7.2758   16.0578 C   0  0  0  0  0  0  0  0  0  0  0  0
    3.1882   -9.7190   17.2566 C   0  0  0  0  0  0  0  0  0  0  0  0
    5.3488   -6.1737   26.5092 C   0  0  0  0  0  0  0  0  0  0  0  0
    7.4567   -6.9464   27.2858 C   0  0  0  0  0  0  0  0  0  0  0  0
    0.1921   -5.7592   27.1123 C   0  0  0  0  0  0  0  0  0  0  0  0
    3.5517   -7.7407   25.9711 C   0  0  0  0  0  0  0  0  0  0  0  0
  1  4  4  0
  1 22  4  0
  2 20  4  0
  2 27  4  0
  3 12  4  0
  3 23  4  0
  4 25  4  0
  4 28  1  0
  5  8  4  0
  5 17  4  0
  6  7  4  0
  6 16  4  0
  7 18  4  0
  8 27  4  0
  9 13  4  0
  9 23  4  0
 10 11  1  0
 11 14  2  0
 11 27  1  0
 12 19  1  0
 12 24  4  0
 13 24  4  0
 15 18  1  0
 16 25  4  0
 16 26  4  0
 17 20  4  0
 17 28  1  0
 18 21  4  0
 21 26  4  0
 22 26  4  0
M  END
$$$$

 Created by Python create_sdf_string function

 28 30  0  0  0  0  0  0  0  0999 V2000
    5.7174   -8.4529   26.7190 C   0  0  0  0  0  0  0  0  0  0  0  0
    0.3974   -7.0711   27.5149 C   0  0  0  0  0  0  0  0  0  0  0  0
    2.5338   -7.6891   16.0102 C   0  0  0  0  0  0  0  0  0  0  0  0
    4.8690   -7.4380   26.4151 C   0  0  0  0  0  0  0  0  0  0  0  0
    2.3021   -5.6726   26.0378 C   0  0  0  0  0  0  0  0  0  0  0  0
    7.0880   -4.6163   27.0010 C   0  0  0  0  0  0  0  0  0  0  0  0
    8.3117   -4.3698   27.4436 C   0  0  0  0  0  0  0  0  0  0  0  0
    1.1339   -5.0515   26.3541 C   0  0  0  0  0  0  0  0  0  0  0  0
    4.8080   -8.0362   16.7101 C   0  0  0  0  0  0  0  0  0  0  0  0
   -1.2173   -3.9294   26.9717 O   0  0  0  0  0  0  0  0  0  0  0  0
   -1.0025   -5.0942   27.4586 C   0  0  0  0  0  0  0  0  0  0  0  0
    2.2474   -8.9123   16.6273 C   0  0  0  0  0  0  0  0  0  0  0  0
    4.4957   -9.2636   17.3041 C   0  0  0  0  0  0  0  0  0  0  0  0
   -1.8070   -5.6086   28.1920 O   0  0  0  0  0  0  0  0  0  0  0  0
   10.4296   -5.1799   28.3140 C   0  0  0  0  0  0  0  0  0  0  0  0
    6.6017   -5.9004   26.9187 C   0  0  0  0  0  0  0  0  0  0  0  0
    2.4761   -6.9940   26.4111 N   0  0  0  0  0  0  0  0  0  0  0  0
    9.1353   -5.4053   27.8239 C   0  0  0  0  0  0  0  0  0  0  0  0
    0.9922   -9.3232   16.5995 O   0  0  0  0  0  0  0  0  0  0  0  0
    1.5232   -7.6869   27.1182 C   0  0  0  0  0  0  0  0  0  0  0  0
    8.6878   -6.6715   27.7262 N   0  0  0  0  0  0  0  0  0  0  0  0
    6.9911   -8.2423   27.1808 C   0  0  0  0  0  0  0  0  0  0  0  0
    3.8436   -7.2758   16.0578 C   0  0  0  0  0  0  0  0  0  0  0  0
    3.1882   -9.7190   17.2566 C   0  0  0  0  0  0  0  0  0  0  0  0
    5.3488   -6.1737   26.5092 C   0  0  0  0  0  0  0  0  0  0  0  0
    7.4567   -6.9464   27.2858 C   0  0  0  0  0  0  0  0  0  0  0  0
    0.1921   -5.7592   27.1123 C   0  0  0  0  0  0  0  0  0  0  0  0
    3.5517   -7.7407   25.9711 C   0  0  0  0  0  0  0  0  0  0  0  0
  1  4  4  0
  1 22  4  0
  2 20  4  0
  2 27  4  0
  3 12  4  0
  3 23  4  0
  4 25  4  0
  4 28  1  0
  5  8  4  0
  5 17  4  0
  6  7  4  0
  6 16  4  0
  7 18  4  0
  8 27  4  0
  9 13  4  0
  9 23  4  0
 10 11  1  0
 11 14  2  0
 11 27  1  0
 12 19  1  0
 12 24  4  0
 13 24  4  0
 15 18  1  0
 16 25  4  0
 16 26  4  0
 17 20  4  0
 17 28  1  0
 18 21  4  0
 21 26  4  0
 22 26  4  0
M  END
$$$$

 Created by Python create_sdf_string function

 28 30  0  0  0  0  0  0  0  0999 V2000
    5.7174   -8.4529   26.7190 C   0  0  0  0  0  0  0  0  0  0  0  0
    0.3974   -7.0711   27.5149 C   0  0  0  0  0  0  0  0  0  0  0  0
    2.5338   -7.6891   16.0102 C   0  0  0  0  0  0  0  0  0  0  0  0
    4.8690   -7.4380   26.4151 C   0  0  0  0  0  0  0  0  0  0  0  0
    2.3021   -5.6726   26.0378 C   0  0  0  0  0  0  0  0  0  0  0  0
    7.0880   -4.6163   27.0010 C   0  0  0  0  0  0  0  0  0  0  0  0
    8.3117   -4.3698   27.4436 C   0  0  0  0  0  0  0  0  0  0  0  0
    1.1339   -5.0515   26.3541 C   0  0  0  0  0  0  0  0  0  0  0  0
    4.8080   -8.0362   16.7101 C   0  0  0  0  0  0  0  0  0  0  0  0
   -1.2173   -3.9294   26.9717 O   0  0  0  0  0  0  0  0  0  0  0  0
   -1.0025   -5.0942   27.4586 C   0  0  0  0  0  0  0  0  0  0  0  0
    2.2474   -8.9123   16.6273 C   0  0  0  0  0  0  0  0  0  0  0  0
    4.4957   -9.2636   17.3041 C   0  0  0  0  0  0  0  0  0  0  0  0
   -1.8070   -5.6086   28.1920 O   0  0  0  0  0  0  0  0  0  0  0  0
   10.4296   -5.1799   28.3140 C   0  0  0  0  0  0  0  0  0  0  0  0
    6.6017   -5.9004   26.9187 C   0  0  0  0  0  0  0  0  0  0  0  0
    2.4761   -6.9940   26.4111 N   0  0  0  0  0  0  0  0  0  0  0  0
    9.1353   -5.4053   27.8239 C   0  0  0  0  0  0  0  0  0  0  0  0
    0.9922   -9.3232   16.5995 O   0  0  0  0  0  0  0  0  0  0  0  0
    1.5232   -7.6869   27.1182 C   0  0  0  0  0  0  0  0  0  0  0  0
    8.6878   -6.6715   27.7262 N   0  0  0  0  0  0  0  0  0  0  0  0
    6.9911   -8.2423   27.1808 C   0  0  0  0  0  0  0  0  0  0  0  0
    3.8436   -7.2758   16.0578 C   0  0  0  0  0  0  0  0  0  0  0  0
    3.1882   -9.7190   17.2566 C   0  0  0  0  0  0  0  0  0  0  0  0
    5.3488   -6.1737   26.5092 C   0  0  0  0  0  0  0  0  0  0  0  0
    7.4567   -6.9464   27.2858 C   0  0  0  0  0  0  0  0  0  0  0  0
    0.1921   -5.7592   27.1123 C   0  0  0  0  0  0  0  0  0  0  0  0
    3.5517   -7.7407   25.9711 C   0  0  0  0  0  0  0  0  0  0  0  0
  1  4  4  0
  1 22  4  0
  2 20  4  0
  2 27  4  0
  3 12  4  0
  3 23  4  0
  4 25  4  0
  4 28  1  0
  5  8  4  0
  5 17  4  0
  6  7  4  0
  6 16  4  0
  7 18  4  0
  8 27  4  0
  9 13  4  0
  9 23  4  0
 10 11  1  0
 11 14  2  0
 11 27  1  0
 12 19  1  0
 12 24  4  0
 13 24  4  0
 15 18  1  0
 16 25  4  0
 16 26  4  0
 17 20  4  0
 17 28  1  0
 18 21  4  0
 21 26  4  0
 22 26  4  0
M  END
$$$$

 Created by Python create_sdf_string function

 28 30  0  0  0  0  0  0  0  0999 V2000
    5.7174   -8.4529   26.7190 C   0  0  0  0  0  0  0  0  0  0  0  0
    0.3974   -7.0711   27.5149 C   0  0  0  0  0  0  0  0  0  0  0  0
    2.5338   -7.6891   16.0102 C   0  0  0  0  0  0  0  0  0  0  0  0
    4.8690   -7.4380   26.4151 C   0  0  0  0  0  0  0  0  0  0  0  0
    2.3021   -5.6726   26.0378 C   0  0  0  0  0  0  0  0  0  0  0  0
    7.0880   -4.6163   27.0010 C   0  0  0  0  0  0  0  0  0  0  0  0
    8.3117   -4.3698   27.4436 C   0  0  0  0  0  0  0  0  0  0  0  0
    1.1339   -5.0515   26.3541 C   0  0  0  0  0  0  0  0  0  0  0  0
    4.8080   -8.0362   16.7101 C   0  0  0  0  0  0  0  0  0  0  0  0
   -1.2173   -3.9294   26.9717 O   0  0  0  0  0  0  0  0  0  0  0  0
   -1.0025   -5.0942   27.4586 C   0  0  0  0  0  0  0  0  0  0  0  0
    2.2474   -8.9123   16.6273 C   0  0  0  0  0  0  0  0  0  0  0  0
    4.4957   -9.2636   17.3041 C   0  0  0  0  0  0  0  0  0  0  0  0
   -1.8070   -5.6086   28.1920 O   0  0  0  0  0  0  0  0  0  0  0  0
   10.4296   -5.1799   28.3140 C   0  0  0  0  0  0  0  0  0  0  0  0
    6.6017   -5.9004   26.9187 C   0  0  0  0  0  0  0  0  0  0  0  0
    2.4761   -6.9940   26.4111 N   0  0  0  0  0  0  0  0  0  0  0  0
    9.1353   -5.4053   27.8239 C   0  0  0  0  0  0  0  0  0  0  0  0
    0.9922   -9.3232   16.5995 O   0  0  0  0  0  0  0  0  0  0  0  0
    1.5232   -7.6869   27.1182 C   0  0  0  0  0  0  0  0  0  0  0  0
    8.6878   -6.6715   27.7262 N   0  0  0  0  0  0  0  0  0  0  0  0
    6.9911   -8.2423   27.1808 C   0  0  0  0  0  0  0  0  0  0  0  0
    3.8436   -7.2758   16.0578 C   0  0  0  0  0  0  0  0  0  0  0  0
    3.1882   -9.7190   17.2566 C   0  0  0  0  0  0  0  0  0  0  0  0
    5.3488   -6.1737   26.5092 C   0  0  0  0  0  0  0  0  0  0  0  0
    7.4567   -6.9464   27.2858 C   0  0  0  0  0  0  0  0  0  0  0  0
    0.1921   -5.7592   27.1123 C   0  0  0  0  0  0  0  0  0  0  0  0
    3.5517   -7.7407   25.9711 C   0  0  0  0  0  0  0  0  0  0  0  0
  1  4  4  0
  1 22  4  0
  2 20  4  0
  2 27  4  0
  3 12  4  0
  3 23  4  0
  4 25  4  0
  4 28  1  0
  5  8  4  0
  5 17  4  0
  6  7  4  0
  6 16  4  0
  7 18  4  0
  8 27  4  0
  9 13  4  0
  9 23  4  0
 10 11  1  0
 11 14  2  0
 11 27  1  0
 12 19  1  0
 12 24  4  0
 13 24  4  0
 15 18  1  0
 16 25  4  0
 16 26  4  0
 17 20  4  0
 17 28  1  0
 18 21  4  0
 21 26  4  0
 22 26  4  0
M  END
$$$$

 Created by Python create_sdf_string function

 28 30  0  0  0  0  0  0  0  0999 V2000
    5.7174   -8.4529   26.7190 C   0  0  0  0  0  0  0  0  0  0  0  0
    0.3974   -7.0711   27.5149 C   0  0  0  0  0  0  0  0  0  0  0  0
    2.5338   -7.6891   16.0102 C   0  0  0  0  0  0  0  0  0  0  0  0
    4.8690   -7.4380   26.4151 C   0  0  0  0  0  0  0  0  0  0  0  0
    2.3021   -5.6726   26.0378 C   0  0  0  0  0  0  0  0  0  0  0  0
    7.0880   -4.6163   27.0010 C   0  0  0  0  0  0  0  0  0  0  0  0
    8.3117   -4.3698   27.4436 C   0  0  0  0  0  0  0  0  0  0  0  0
    1.1339   -5.0515   26.3541 C   0  0  0  0  0  0  0  0  0  0  0  0
    4.8080   -8.0362   16.7101 C   0  0  0  0  0  0  0  0  0  0  0  0
   -1.2173   -3.9294   26.9717 O   0  0  0  0  0  0  0  0  0  0  0  0
   -1.0025   -5.0942   27.4586 C   0  0  0  0  0  0  0  0  0  0  0  0
    2.2474   -8.9123   16.6273 C   0  0  0  0  0  0  0  0  0  0  0  0
    4.4957   -9.2636   17.3041 C   0  0  0  0  0  0  0  0  0  0  0  0
   -1.8070   -5.6086   28.1920 O   0  0  0  0  0  0  0  0  0  0  0  0
   10.4296   -5.1799   28.3140 C   0  0  0  0  0  0  0  0  0  0  0  0
    6.6017   -5.9004   26.9187 C   0  0  0  0  0  0  0  0  0  0  0  0
    2.4761   -6.9940   26.4111 N   0  0  0  0  0  0  0  0  0  0  0  0
    9.1353   -5.4053   27.8239 C   0  0  0  0  0  0  0  0  0  0  0  0
    0.9922   -9.3232   16.5995 O   0  0  0  0  0  0  0  0  0  0  0  0
    1.5232   -7.6869   27.1182 C   0  0  0  0  0  0  0  0  0  0  0  0
    8.6878   -6.6715   27.7262 N   0  0  0  0  0  0  0  0  0  0  0  0
    6.9911   -8.2423   27.1808 C   0  0  0  0  0  0  0  0  0  0  0  0
    3.8436   -7.2758   16.0578 C   0  0  0  0  0  0  0  0  0  0  0  0
    3.1882   -9.7190   17.2566 C   0  0  0  0  0  0  0  0  0  0  0  0
    5.3488   -6.1737   26.5092 C   0  0  0  0  0  0  0  0  0  0  0  0
    7.4567   -6.9464   27.2858 C   0  0  0  0  0  0  0  0  0  0  0  0
    0.1921   -5.7592   27.1123 C   0  0  0  0  0  0  0  0  0  0  0  0
    3.5517   -7.7407   25.9711 C   0  0  0  0  0  0  0  0  0  0  0  0
  1  4  4  0
  1 22  4  0
  2 20  4  0
  2 27  4  0
  3 12  4  0
  3 23  4  0
  4 25  4  0
  4 28  1  0
  5  8  4  0
  5 17  4  0
  6  7  4  0
  6 16  4  0
  7 18  4  0
  8 27  4  0
  9 13  4  0
  9 23  4  0
 10 11  1  0
 11 14  2  0
 11 27  1  0
 12 19  1  0
 12 24  4  0
 13 24  4  0
 15 18  1  0
 16 25  4  0
 16 26  4  0
 17 20  4  0
 17 28  1  0
 18 21  4  0
 21 26  4  0
 22 26  4  0
M  END
$$$$

 Created by Python create_sdf_string function

 28 30  0  0  0  0  0  0  0  0999 V2000
    5.7174   -8.4529   26.7190 C   0  0  0  0  0  0  0  0  0  0  0  0
    0.3974   -7.0711   27.5149 C   0  0  0  0  0  0  0  0  0  0  0  0
    2.5338   -7.6891   16.0102 C   0  0  0  0  0  0  0  0  0  0  0  0
    4.8690   -7.4380   26.4151 C   0  0  0  0  0  0  0  0  0  0  0  0
    2.3021   -5.6726   26.0378 C   0  0  0  0  0  0  0  0  0  0  0  0
    7.0880   -4.6163   27.0010 C   0  0  0  0  0  0  0  0  0  0  0  0
    8.3117   -4.3698   27.4436 C   0  0  0  0  0  0  0  0  0  0  0  0
    1.1339   -5.0515   26.3541 C   0  0  0  0  0  0  0  0  0  0  0  0
    4.8080   -8.0362   16.7101 C   0  0  0  0  0  0  0  0  0  0  0  0
   -1.2173   -3.9294   26.9717 O   0  0  0  0  0  0  0  0  0  0  0  0
   -1.0025   -5.0942   27.4586 C   0  0  0  0  0  0  0  0  0  0  0  0
    2.2474   -8.9123   16.6273 C   0  0  0  0  0  0  0  0  0  0  0  0
    4.4957   -9.2636   17.3041 C   0  0  0  0  0  0  0  0  0  0  0  0
   -1.8070   -5.6086   28.1920 O   0  0  0  0  0  0  0  0  0  0  0  0
   10.4296   -5.1799   28.3140 C   0  0  0  0  0  0  0  0  0  0  0  0
    6.6017   -5.9004   26.9187 C   0  0  0  0  0  0  0  0  0  0  0  0
    2.4761   -6.9940   26.4111 N   0  0  0  0  0  0  0  0  0  0  0  0
    9.1353   -5.4053   27.8239 C   0  0  0  0  0  0  0  0  0  0  0  0
    0.9922   -9.3232   16.5995 O   0  0  0  0  0  0  0  0  0  0  0  0
    1.5232   -7.6869   27.1182 C   0  0  0  0  0  0  0  0  0  0  0  0
    8.6878   -6.6715   27.7262 N   0  0  0  0  0  0  0  0  0  0  0  0
    6.9911   -8.2423   27.1808 C   0  0  0  0  0  0  0  0  0  0  0  0
    3.8436   -7.2758   16.0578 C   0  0  0  0  0  0  0  0  0  0  0  0
    3.1882   -9.7190   17.2566 C   0  0  0  0  0  0  0  0  0  0  0  0
    5.3488   -6.1737   26.5092 C   0  0  0  0  0  0  0  0  0  0  0  0
    7.4567   -6.9464   27.2858 C   0  0  0  0  0  0  0  0  0  0  0  0
    0.1921   -5.7592   27.1123 C   0  0  0  0  0  0  0  0  0  0  0  0
    3.5517   -7.7407   25.9711 C   0  0  0  0  0  0  0  0  0  0  0  0
  1  4  4  0
  1 22  4  0
  2 20  4  0
  2 27  4  0
  3 12  4  0
  3 23  4  0
  4 25  4  0
  4 28  1  0
  5  8  4  0
  5 17  4  0
  6  7  4  0
  6 16  4  0
  7 18  4  0
  8 27  4  0
  9 13  4  0
  9 23  4  0
 10 11  1  0
 11 14  2  0
 11 27  1  0
 12 19  1  0
 12 24  4  0
 13 24  4  0
 15 18  1  0
 16 25  4  0
 16 26  4  0
 17 20  4  0
 17 28  1  0
 18 21  4  0
 21 26  4  0
 22 26  4  0
M  END
$$$$

 Created by Python create_sdf_string function

 28 30  0  0  0  0  0  0  0  0999 V2000
    5.7174   -8.4529   26.7190 C   0  0  0  0  0  0  0  0  0  0  0  0
    0.3974   -7.0711   27.5149 C   0  0  0  0  0  0  0  0  0  0  0  0
    2.5338   -7.6891   16.0102 C   0  0  0  0  0  0  0  0  0  0  0  0
    4.8690   -7.4380   26.4151 C   0  0  0  0  0  0  0  0  0  0  0  0
    2.3021   -5.6726   26.0378 C   0  0  0  0  0  0  0  0  0  0  0  0
    7.0880   -4.6163   27.0010 C   0  0  0  0  0  0  0  0  0  0  0  0
    8.3117   -4.3698   27.4436 C   0  0  0  0  0  0  0  0  0  0  0  0
    1.1339   -5.0515   26.3541 C   0  0  0  0  0  0  0  0  0  0  0  0
    4.8080   -8.0362   16.7101 C   0  0  0  0  0  0  0  0  0  0  0  0
   -1.2173   -3.9294   26.9717 O   0  0  0  0  0  0  0  0  0  0  0  0
   -1.0025   -5.0942   27.4586 C   0  0  0  0  0  0  0  0  0  0  0  0
    2.2474   -8.9123   16.6273 C   0  0  0  0  0  0  0  0  0  0  0  0
    4.4957   -9.2636   17.3041 C   0  0  0  0  0  0  0  0  0  0  0  0
   -1.8070   -5.6086   28.1920 O   0  0  0  0  0  0  0  0  0  0  0  0
   10.4296   -5.1799   28.3140 C   0  0  0  0  0  0  0  0  0  0  0  0
    6.6017   -5.9004   26.9187 C   0  0  0  0  0  0  0  0  0  0  0  0
    2.4761   -6.9940   26.4111 N   0  0  0  0  0  0  0  0  0  0  0  0
    9.1353   -5.4053   27.8239 C   0  0  0  0  0  0  0  0  0  0  0  0
    0.9922   -9.3232   16.5995 O   0  0  0  0  0  0  0  0  0  0  0  0
    1.5232   -7.6869   27.1182 C   0  0  0  0  0  0  0  0  0  0  0  0
    8.6878   -6.6715   27.7262 N   0  0  0  0  0  0  0  0  0  0  0  0
    6.9911   -8.2423   27.1808 C   0  0  0  0  0  0  0  0  0  0  0  0
    3.8436   -7.2758   16.0578 C   0  0  0  0  0  0  0  0  0  0  0  0
    3.1882   -9.7190   17.2566 C   0  0  0  0  0  0  0  0  0  0  0  0
    5.3488   -6.1737   26.5092 C   0  0  0  0  0  0  0  0  0  0  0  0
    7.4567   -6.9464   27.2858 C   0  0  0  0  0  0  0  0  0  0  0  0
    0.1921   -5.7592   27.1123 C   0  0  0  0  0  0  0  0  0  0  0  0
    3.5517   -7.7407   25.9711 C   0  0  0  0  0  0  0  0  0  0  0  0
  1  4  4  0
  1 22  4  0
  2 20  4  0
  2 27  4  0
  3 12  4  0
  3 23  4  0
  4 25  4  0
  4 28  1  0
  5  8  4  0
  5 17  4  0
  6  7  4  0
  6 16  4  0
  7 18  4  0
  8 27  4  0
  9 13  4  0
  9 23  4  0
 10 11  1  0
 11 14  2  0
 11 27  1  0
 12 19  1  0
 12 24  4  0
 13 24  4  0
 15 18  1  0
 16 25  4  0
 16 26  4  0
 17 20  4  0
 17 28  1  0
 18 21  4  0
 21 26  4  0
 22 26  4  0
M  END
$$$$

 Created by Python create_sdf_string function

 28 30  0  0  0  0  0  0  0  0999 V2000
    5.7174   -8.4529   26.7190 C   0  0  0  0  0  0  0  0  0  0  0  0
    0.3974   -7.0711   27.5149 C   0  0  0  0  0  0  0  0  0  0  0  0
    2.5338   -7.6891   16.0102 C   0  0  0  0  0  0  0  0  0  0  0  0
    4.8690   -7.4380   26.4151 C   0  0  0  0  0  0  0  0  0  0  0  0
    2.3021   -5.6726   26.0378 C   0  0  0  0  0  0  0  0  0  0  0  0
    7.0880   -4.6163   27.0010 C   0  0  0  0  0  0  0  0  0  0  0  0
    8.3117   -4.3698   27.4436 C   0  0  0  0  0  0  0  0  0  0  0  0
    1.1339   -5.0515   26.3541 C   0  0  0  0  0  0  0  0  0  0  0  0
    4.8080   -8.0362   16.7101 C   0  0  0  0  0  0  0  0  0  0  0  0
   -1.2173   -3.9294   26.9717 O   0  0  0  0  0  0  0  0  0  0  0  0
   -1.0025   -5.0942   27.4586 C   0  0  0  0  0  0  0  0  0  0  0  0
    2.2474   -8.9123   16.6273 C   0  0  0  0  0  0  0  0  0  0  0  0
    4.4957   -9.2636   17.3041 C   0  0  0  0  0  0  0  0  0  0  0  0
   -1.8070   -5.6086   28.1920 O   0  0  0  0  0  0  0  0  0  0  0  0
   10.4296   -5.1799   28.3140 C   0  0  0  0  0  0  0  0  0  0  0  0
    6.6017   -5.9004   26.9187 C   0  0  0  0  0  0  0  0  0  0  0  0
    2.4761   -6.9940   26.4111 N   0  0  0  0  0  0  0  0  0  0  0  0
    9.1353   -5.4053   27.8239 C   0  0  0  0  0  0  0  0  0  0  0  0
    0.9922   -9.3232   16.5995 O   0  0  0  0  0  0  0  0  0  0  0  0
    1.5232   -7.6869   27.1182 C   0  0  0  0  0  0  0  0  0  0  0  0
    8.6878   -6.6715   27.7262 N   0  0  0  0  0  0  0  0  0  0  0  0
    6.9911   -8.2423   27.1808 C   0  0  0  0  0  0  0  0  0  0  0  0
    3.8436   -7.2758   16.0578 C   0  0  0  0  0  0  0  0  0  0  0  0
    3.1882   -9.7190   17.2566 C   0  0  0  0  0  0  0  0  0  0  0  0
    5.3488   -6.1737   26.5092 C   0  0  0  0  0  0  0  0  0  0  0  0
    7.4567   -6.9464   27.2858 C   0  0  0  0  0  0  0  0  0  0  0  0
    0.1921   -5.7592   27.1123 C   0  0  0  0  0  0  0  0  0  0  0  0
    3.5517   -7.7407   25.9711 C   0  0  0  0  0  0  0  0  0  0  0  0
  1  4  4  0
  1 22  4  0
  2 20  4  0
  2 27  4  0
  3 12  4  0
  3 23  4  0
  4 25  4  0
  4 28  1  0
  5  8  4  0
  5 17  4  0
  6  7  4  0
  6 16  4  0
  7 18  4  0
  8 27  4  0
  9 13  4  0
  9 23  4  0
 10 11  1  0
 11 14  2  0
 11 27  1  0
 12 19  1  0
 12 24  4  0
 13 24  4  0
 15 18  1  0
 16 25  4  0
 16 26  4  0
 17 20  4  0
 17 28  1  0
 18 21  4  0
 21 26  4  0
 22 26  4  0
M  END
$$$$

 Created by Python create_sdf_string function

 28 30  0  0  0  0  0  0  0  0999 V2000
    5.7174   -8.4529   26.7190 C   0  0  0  0  0  0  0  0  0  0  0  0
    0.3974   -7.0711   27.5149 C   0  0  0  0  0  0  0  0  0  0  0  0
    2.5338   -7.6891   16.0102 C   0  0  0  0  0  0  0  0  0  0  0  0
    4.8690   -7.4380   26.4151 C   0  0  0  0  0  0  0  0  0  0  0  0
    2.3021   -5.6726   26.0378 C   0  0  0  0  0  0  0  0  0  0  0  0
    7.0880   -4.6163   27.0010 C   0  0  0  0  0  0  0  0  0  0  0  0
    8.3117   -4.3698   27.4436 C   0  0  0  0  0  0  0  0  0  0  0  0
    1.1339   -5.0515   26.3541 C   0  0  0  0  0  0  0  0  0  0  0  0
    4.8080   -8.0362   16.7101 C   0  0  0  0  0  0  0  0  0  0  0  0
   -1.2173   -3.9294   26.9717 O   0  0  0  0  0  0  0  0  0  0  0  0
   -1.0025   -5.0942   27.4586 C   0  0  0  0  0  0  0  0  0  0  0  0
    2.2474   -8.9123   16.6273 C   0  0  0  0  0  0  0  0  0  0  0  0
    4.4957   -9.2636   17.3041 C   0  0  0  0  0  0  0  0  0  0  0  0
   -1.8070   -5.6086   28.1920 O   0  0  0  0  0  0  0  0  0  0  0  0
   10.4296   -5.1799   28.3140 C   0  0  0  0  0  0  0  0  0  0  0  0
    6.6017   -5.9004   26.9187 C   0  0  0  0  0  0  0  0  0  0  0  0
    2.4761   -6.9940   26.4111 N   0  0  0  0  0  0  0  0  0  0  0  0
    9.1353   -5.4053   27.8239 C   0  0  0  0  0  0  0  0  0  0  0  0
    0.9922   -9.3232   16.5995 O   0  0  0  0  0  0  0  0  0  0  0  0
    1.5232   -7.6869   27.1182 C   0  0  0  0  0  0  0  0  0  0  0  0
    8.6878   -6.6715   27.7262 N   0  0  0  0  0  0  0  0  0  0  0  0
    6.9911   -8.2423   27.1808 C   0  0  0  0  0  0  0  0  0  0  0  0
    3.8436   -7.2758   16.0578 C   0  0  0  0  0  0  0  0  0  0  0  0
    3.1882   -9.7190   17.2566 C   0  0  0  0  0  0  0  0  0  0  0  0
    5.3488   -6.1737   26.5092 C   0  0  0  0  0  0  0  0  0  0  0  0
    7.4567   -6.9464   27.2858 C   0  0  0  0  0  0  0  0  0  0  0  0
    0.1921   -5.7592   27.1123 C   0  0  0  0  0  0  0  0  0  0  0  0
    3.5517   -7.7407   25.9711 C   0  0  0  0  0  0  0  0  0  0  0  0
  1  4  4  0
  1 22  4  0
  2 20  4  0
  2 27  4  0
  3 12  4  0
  3 23  4  0
  4 25  4  0
  4 28  1  0
  5  8  4  0
  5 17  4  0
  6  7  4  0
  6 16  4  0
  7 18  4  0
  8 27  4  0
  9 13  4  0
  9 23  4  0
 10 11  1  0
 11 14  2  0
 11 27  1  0
 12 19  1  0
 12 24  4  0
 13 24  4  0
 15 18  1  0
 16 25  4  0
 16 26  4  0
 17 20  4  0
 17 28  1  0
 18 21  4  0
 21 26  4  0
 22 26  4  0
M  END
$$$$

 Created by Python create_sdf_string function

 28 30  0  0  0  0  0  0  0  0999 V2000
    5.7174   -8.4529   26.7190 C   0  0  0  0  0  0  0  0  0  0  0  0
    0.3974   -7.0711   27.5149 C   0  0  0  0  0  0  0  0  0  0  0  0
    2.5338   -7.6891   16.0102 C   0  0  0  0  0  0  0  0  0  0  0  0
    4.8690   -7.4380   26.4151 C   0  0  0  0  0  0  0  0  0  0  0  0
    2.3021   -5.6726   26.0378 C   0  0  0  0  0  0  0  0  0  0  0  0
    7.0880   -4.6163   27.0010 C   0  0  0  0  0  0  0  0  0  0  0  0
    8.3117   -4.3698   27.4436 C   0  0  0  0  0  0  0  0  0  0  0  0
    1.1339   -5.0515   26.3541 C   0  0  0  0  0  0  0  0  0  0  0  0
    4.8080   -8.0362   16.7101 C   0  0  0  0  0  0  0  0  0  0  0  0
   -1.2173   -3.9294   26.9717 O   0  0  0  0  0  0  0  0  0  0  0  0
   -1.0025   -5.0942   27.4586 C   0  0  0  0  0  0  0  0  0  0  0  0
    2.2474   -8.9123   16.6273 C   0  0  0  0  0  0  0  0  0  0  0  0
    4.4957   -9.2636   17.3041 C   0  0  0  0  0  0  0  0  0  0  0  0
   -1.8070   -5.6086   28.1920 O   0  0  0  0  0  0  0  0  0  0  0  0
   10.4296   -5.1799   28.3140 C   0  0  0  0  0  0  0  0  0  0  0  0
    6.6017   -5.9004   26.9187 C   0  0  0  0  0  0  0  0  0  0  0  0
    2.4761   -6.9940   26.4111 N   0  0  0  0  0  0  0  0  0  0  0  0
    9.1353   -5.4053   27.8239 C   0  0  0  0  0  0  0  0  0  0  0  0
    0.9922   -9.3232   16.5995 O   0  0  0  0  0  0  0  0  0  0  0  0
    1.5232   -7.6869   27.1182 C   0  0  0  0  0  0  0  0  0  0  0  0
    8.6878   -6.6715   27.7262 N   0  0  0  0  0  0  0  0  0  0  0  0
    6.9911   -8.2423   27.1808 C   0  0  0  0  0  0  0  0  0  0  0  0
    3.8436   -7.2758   16.0578 C   0  0  0  0  0  0  0  0  0  0  0  0
    3.1882   -9.7190   17.2566 C   0  0  0  0  0  0  0  0  0  0  0  0
    5.3488   -6.1737   26.5092 C   0  0  0  0  0  0  0  0  0  0  0  0
    7.4567   -6.9464   27.2858 C   0  0  0  0  0  0  0  0  0  0  0  0
    0.1921   -5.7592   27.1123 C   0  0  0  0  0  0  0  0  0  0  0  0
    3.5517   -7.7407   25.9711 C   0  0  0  0  0  0  0  0  0  0  0  0
  1  4  4  0
  1 22  4  0
  2 20  4  0
  2 27  4  0
  3 12  4  0
  3 23  4  0
  4 25  4  0
  4 28  1  0
  5  8  4  0
  5 17  4  0
  6  7  4  0
  6 16  4  0
  7 18  4  0
  8 27  4  0
  9 13  4  0
  9 23  4  0
 10 11  1  0
 11 14  2  0
 11 27  1  0
 12 19  1  0
 12 24  4  0
 13 24  4  0
 15 18  1  0
 16 25  4  0
 16 26  4  0
 17 20  4  0
 17 28  1  0
 18 21  4  0
 21 26  4  0
 22 26  4  0
M  END
$$$$

 Created by Python create_sdf_string function

 28 30  0  0  0  0  0  0  0  0999 V2000
    5.7174   -8.4529   26.7190 C   0  0  0  0  0  0  0  0  0  0  0  0
    0.3974   -7.0711   27.5149 C   0  0  0  0  0  0  0  0  0  0  0  0
    2.5338   -7.6891   16.0102 C   0  0  0  0  0  0  0  0  0  0  0  0
    4.8690   -7.4380   26.4151 C   0  0  0  0  0  0  0  0  0  0  0  0
    2.3021   -5.6726   26.0378 C   0  0  0  0  0  0  0  0  0  0  0  0
    7.0880   -4.6163   27.0010 C   0  0  0  0  0  0  0  0  0  0  0  0
    8.3117   -4.3698   27.4436 C   0  0  0  0  0  0  0  0  0  0  0  0
    1.1339   -5.0515   26.3541 C   0  0  0  0  0  0  0  0  0  0  0  0
    4.8080   -8.0362   16.7101 C   0  0  0  0  0  0  0  0  0  0  0  0
   -1.2173   -3.9294   26.9717 O   0  0  0  0  0  0  0  0  0  0  0  0
   -1.0025   -5.0942   27.4586 C   0  0  0  0  0  0  0  0  0  0  0  0
    2.2474   -8.9123   16.6273 C   0  0  0  0  0  0  0  0  0  0  0  0
    4.4957   -9.2636   17.3041 C   0  0  0  0  0  0  0  0  0  0  0  0
   -1.8070   -5.6086   28.1920 O   0  0  0  0  0  0  0  0  0  0  0  0
   10.4296   -5.1799   28.3140 C   0  0  0  0  0  0  0  0  0  0  0  0
    6.6017   -5.9004   26.9187 C   0  0  0  0  0  0  0  0  0  0  0  0
    2.4761   -6.9940   26.4111 N   0  0  0  0  0  0  0  0  0  0  0  0
    9.1353   -5.4053   27.8239 C   0  0  0  0  0  0  0  0  0  0  0  0
    0.9922   -9.3232   16.5995 O   0  0  0  0  0  0  0  0  0  0  0  0
    1.5232   -7.6869   27.1182 C   0  0  0  0  0  0  0  0  0  0  0  0
    8.6878   -6.6715   27.7262 N   0  0  0  0  0  0  0  0  0  0  0  0
    6.9911   -8.2423   27.1808 C   0  0  0  0  0  0  0  0  0  0  0  0
    3.8436   -7.2758   16.0578 C   0  0  0  0  0  0  0  0  0  0  0  0
    3.1882   -9.7190   17.2566 C   0  0  0  0  0  0  0  0  0  0  0  0
    5.3488   -6.1737   26.5092 C   0  0  0  0  0  0  0  0  0  0  0  0
    7.4567   -6.9464   27.2858 C   0  0  0  0  0  0  0  0  0  0  0  0
    0.1921   -5.7592   27.1123 C   0  0  0  0  0  0  0  0  0  0  0  0
    3.5517   -7.7407   25.9711 C   0  0  0  0  0  0  0  0  0  0  0  0
  1  4  4  0
  1 22  4  0
  2 20  4  0
  2 27  4  0
  3 12  4  0
  3 23  4  0
  4 25  4  0
  4 28  1  0
  5  8  4  0
  5 17  4  0
  6  7  4  0
  6 16  4  0
  7 18  4  0
  8 27  4  0
  9 13  4  0
  9 23  4  0
 10 11  1  0
 11 14  2  0
 11 27  1  0
 12 19  1  0
 12 24  4  0
 13 24  4  0
 15 18  1  0
 16 25  4  0
 16 26  4  0
 17 20  4  0
 17 28  1  0
 18 21  4  0
 21 26  4  0
 22 26  4  0
M  END
$$$$

 Created by Python create_sdf_string function

 28 30  0  0  0  0  0  0  0  0999 V2000
    5.7174   -8.4529   26.7190 C   0  0  0  0  0  0  0  0  0  0  0  0
    0.3974   -7.0711   27.5149 C   0  0  0  0  0  0  0  0  0  0  0  0
    2.5338   -7.6891   16.0102 C   0  0  0  0  0  0  0  0  0  0  0  0
    4.8690   -7.4380   26.4151 C   0  0  0  0  0  0  0  0  0  0  0  0
    2.3021   -5.6726   26.0378 C   0  0  0  0  0  0  0  0  0  0  0  0
    7.0880   -4.6163   27.0010 C   0  0  0  0  0  0  0  0  0  0  0  0
    8.3117   -4.3698   27.4436 C   0  0  0  0  0  0  0  0  0  0  0  0
    1.1339   -5.0515   26.3541 C   0  0  0  0  0  0  0  0  0  0  0  0
    4.8080   -8.0362   16.7101 C   0  0  0  0  0  0  0  0  0  0  0  0
   -1.2173   -3.9294   26.9717 O   0  0  0  0  0  0  0  0  0  0  0  0
   -1.0025   -5.0942   27.4586 C   0  0  0  0  0  0  0  0  0  0  0  0
    2.2474   -8.9123   16.6273 C   0  0  0  0  0  0  0  0  0  0  0  0
    4.4957   -9.2636   17.3041 C   0  0  0  0  0  0  0  0  0  0  0  0
   -1.8070   -5.6086   28.1920 O   0  0  0  0  0  0  0  0  0  0  0  0
   10.4296   -5.1799   28.3140 C   0  0  0  0  0  0  0  0  0  0  0  0
    6.6017   -5.9004   26.9187 C   0  0  0  0  0  0  0  0  0  0  0  0
    2.4761   -6.9940   26.4111 N   0  0  0  0  0  0  0  0  0  0  0  0
    9.1353   -5.4053   27.8239 C   0  0  0  0  0  0  0  0  0  0  0  0
    0.9922   -9.3232   16.5995 O   0  0  0  0  0  0  0  0  0  0  0  0
    1.5232   -7.6869   27.1182 C   0  0  0  0  0  0  0  0  0  0  0  0
    8.6878   -6.6715   27.7262 N   0  0  0  0  0  0  0  0  0  0  0  0
    6.9911   -8.2423   27.1808 C   0  0  0  0  0  0  0  0  0  0  0  0
    3.8436   -7.2758   16.0578 C   0  0  0  0  0  0  0  0  0  0  0  0
    3.1882   -9.7190   17.2566 C   0  0  0  0  0  0  0  0  0  0  0  0
    5.3488   -6.1737   26.5092 C   0  0  0  0  0  0  0  0  0  0  0  0
    7.4567   -6.9464   27.2858 C   0  0  0  0  0  0  0  0  0  0  0  0
    0.1921   -5.7592   27.1123 C   0  0  0  0  0  0  0  0  0  0  0  0
    3.5517   -7.7407   25.9711 C   0  0  0  0  0  0  0  0  0  0  0  0
  1  4  4  0
  1 22  4  0
  2 20  4  0
  2 27  4  0
  3 12  4  0
  3 23  4  0
  4 25  4  0
  4 28  1  0
  5  8  4  0
  5 17  4  0
  6  7  4  0
  6 16  4  0
  7 18  4  0
  8 27  4  0
  9 13  4  0
  9 23  4  0
 10 11  1  0
 11 14  2  0
 11 27  1  0
 12 19  1  0
 12 24  4  0
 13 24  4  0
 15 18  1  0
 16 25  4  0
 16 26  4  0
 17 20  4  0
 17 28  1  0
 18 21  4  0
 21 26  4  0
 22 26  4  0
M  END
$$$$

 Created by Python create_sdf_string function

 28 30  0  0  0  0  0  0  0  0999 V2000
    5.7174   -8.4529   26.7190 C   0  0  0  0  0  0  0  0  0  0  0  0
    0.3974   -7.0711   27.5149 C   0  0  0  0  0  0  0  0  0  0  0  0
    2.5338   -7.6891   16.0102 C   0  0  0  0  0  0  0  0  0  0  0  0
    4.8690   -7.4380   26.4151 C   0  0  0  0  0  0  0  0  0  0  0  0
    2.3021   -5.6726   26.0378 C   0  0  0  0  0  0  0  0  0  0  0  0
    7.0880   -4.6163   27.0010 C   0  0  0  0  0  0  0  0  0  0  0  0
    8.3117   -4.3698   27.4436 C   0  0  0  0  0  0  0  0  0  0  0  0
    1.1339   -5.0515   26.3541 C   0  0  0  0  0  0  0  0  0  0  0  0
    4.8080   -8.0362   16.7101 C   0  0  0  0  0  0  0  0  0  0  0  0
   -1.2173   -3.9294   26.9717 O   0  0  0  0  0  0  0  0  0  0  0  0
   -1.0025   -5.0942   27.4586 C   0  0  0  0  0  0  0  0  0  0  0  0
    2.2474   -8.9123   16.6273 C   0  0  0  0  0  0  0  0  0  0  0  0
    4.4957   -9.2636   17.3041 C   0  0  0  0  0  0  0  0  0  0  0  0
   -1.8070   -5.6086   28.1920 O   0  0  0  0  0  0  0  0  0  0  0  0
   10.4296   -5.1799   28.3140 C   0  0  0  0  0  0  0  0  0  0  0  0
    6.6017   -5.9004   26.9187 C   0  0  0  0  0  0  0  0  0  0  0  0
    2.4761   -6.9940   26.4111 N   0  0  0  0  0  0  0  0  0  0  0  0
    9.1353   -5.4053   27.8239 C   0  0  0  0  0  0  0  0  0  0  0  0
    0.9922   -9.3232   16.5995 O   0  0  0  0  0  0  0  0  0  0  0  0
    1.5232   -7.6869   27.1182 C   0  0  0  0  0  0  0  0  0  0  0  0
    8.6878   -6.6715   27.7262 N   0  0  0  0  0  0  0  0  0  0  0  0
    6.9911   -8.2423   27.1808 C   0  0  0  0  0  0  0  0  0  0  0  0
    3.8436   -7.2758   16.0578 C   0  0  0  0  0  0  0  0  0  0  0  0
    3.1882   -9.7190   17.2566 C   0  0  0  0  0  0  0  0  0  0  0  0
    5.3488   -6.1737   26.5092 C   0  0  0  0  0  0  0  0  0  0  0  0
    7.4567   -6.9464   27.2858 C   0  0  0  0  0  0  0  0  0  0  0  0
    0.1921   -5.7592   27.1123 C   0  0  0  0  0  0  0  0  0  0  0  0
    3.5517   -7.7407   25.9711 C   0  0  0  0  0  0  0  0  0  0  0  0
  1  4  4  0
  1 22  4  0
  2 20  4  0
  2 27  4  0
  3 12  4  0
  3 23  4  0
  4 25  4  0
  4 28  1  0
  5  8  4  0
  5 17  4  0
  6  7  4  0
  6 16  4  0
  7 18  4  0
  8 27  4  0
  9 13  4  0
  9 23  4  0
 10 11  1  0
 11 14  2  0
 11 27  1  0
 12 19  1  0
 12 24  4  0
 13 24  4  0
 15 18  1  0
 16 25  4  0
 16 26  4  0
 17 20  4  0
 17 28  1  0
 18 21  4  0
 21 26  4  0
 22 26  4  0
M  END
$$$$

 Created by Python create_sdf_string function

 28 30  0  0  0  0  0  0  0  0999 V2000
    5.7174   -8.4529   26.7190 C   0  0  0  0  0  0  0  0  0  0  0  0
    0.3974   -7.0711   27.5149 C   0  0  0  0  0  0  0  0  0  0  0  0
    2.5338   -7.6891   16.0102 C   0  0  0  0  0  0  0  0  0  0  0  0
    4.8690   -7.4380   26.4151 C   0  0  0  0  0  0  0  0  0  0  0  0
    2.3021   -5.6726   26.0378 C   0  0  0  0  0  0  0  0  0  0  0  0
    7.0880   -4.6163   27.0010 C   0  0  0  0  0  0  0  0  0  0  0  0
    8.3117   -4.3698   27.4436 C   0  0  0  0  0  0  0  0  0  0  0  0
    1.1339   -5.0515   26.3541 C   0  0  0  0  0  0  0  0  0  0  0  0
    4.8080   -8.0362   16.7101 C   0  0  0  0  0  0  0  0  0  0  0  0
   -1.2173   -3.9294   26.9717 O   0  0  0  0  0  0  0  0  0  0  0  0
   -1.0025   -5.0942   27.4586 C   0  0  0  0  0  0  0  0  0  0  0  0
    2.2474   -8.9123   16.6273 C   0  0  0  0  0  0  0  0  0  0  0  0
    4.4957   -9.2636   17.3041 C   0  0  0  0  0  0  0  0  0  0  0  0
   -1.8070   -5.6086   28.1920 O   0  0  0  0  0  0  0  0  0  0  0  0
   10.4296   -5.1799   28.3140 C   0  0  0  0  0  0  0  0  0  0  0  0
    6.6017   -5.9004   26.9187 C   0  0  0  0  0  0  0  0  0  0  0  0
    2.4761   -6.9940   26.4111 N   0  0  0  0  0  0  0  0  0  0  0  0
    9.1353   -5.4053   27.8239 C   0  0  0  0  0  0  0  0  0  0  0  0
    0.9922   -9.3232   16.5995 O   0  0  0  0  0  0  0  0  0  0  0  0
    1.5232   -7.6869   27.1182 C   0  0  0  0  0  0  0  0  0  0  0  0
    8.6878   -6.6715   27.7262 N   0  0  0  0  0  0  0  0  0  0  0  0
    6.9911   -8.2423   27.1808 C   0  0  0  0  0  0  0  0  0  0  0  0
    3.8436   -7.2758   16.0578 C   0  0  0  0  0  0  0  0  0  0  0  0
    3.1882   -9.7190   17.2566 C   0  0  0  0  0  0  0  0  0  0  0  0
    5.3488   -6.1737   26.5092 C   0  0  0  0  0  0  0  0  0  0  0  0
    7.4567   -6.9464   27.2858 C   0  0  0  0  0  0  0  0  0  0  0  0
    0.1921   -5.7592   27.1123 C   0  0  0  0  0  0  0  0  0  0  0  0
    3.5517   -7.7407   25.9711 C   0  0  0  0  0  0  0  0  0  0  0  0
  1  4  4  0
  1 22  4  0
  2 20  4  0
  2 27  4  0
  3 12  4  0
  3 23  4  0
  4 25  4  0
  4 28  1  0
  5  8  4  0
  5 17  4  0
  6  7  4  0
  6 16  4  0
  7 18  4  0
  8 27  4  0
  9 13  4  0
  9 23  4  0
 10 11  1  0
 11 14  2  0
 11 27  1  0
 12 19  1  0
 12 24  4  0
 13 24  4  0
 15 18  1  0
 16 25  4  0
 16 26  4  0
 17 20  4  0
 17 28  1  0
 18 21  4  0
 21 26  4  0
 22 26  4  0
M  END
$$$$

 Created by Python create_sdf_string function

 28 30  0  0  0  0  0  0  0  0999 V2000
    5.7174   -8.4529   26.7190 C   0  0  0  0  0  0  0  0  0  0  0  0
    0.3974   -7.0711   27.5149 C   0  0  0  0  0  0  0  0  0  0  0  0
    2.5338   -7.6891   16.0102 C   0  0  0  0  0  0  0  0  0  0  0  0
    4.8690   -7.4380   26.4151 C   0  0  0  0  0  0  0  0  0  0  0  0
    2.3021   -5.6726   26.0378 C   0  0  0  0  0  0  0  0  0  0  0  0
    7.0880   -4.6163   27.0010 C   0  0  0  0  0  0  0  0  0  0  0  0
    8.3117   -4.3698   27.4436 C   0  0  0  0  0  0  0  0  0  0  0  0
    1.1339   -5.0515   26.3541 C   0  0  0  0  0  0  0  0  0  0  0  0
    4.8080   -8.0362   16.7101 C   0  0  0  0  0  0  0  0  0  0  0  0
   -1.2173   -3.9294   26.9717 O   0  0  0  0  0  0  0  0  0  0  0  0
   -1.0025   -5.0942   27.4586 C   0  0  0  0  0  0  0  0  0  0  0  0
    2.2474   -8.9123   16.6273 C   0  0  0  0  0  0  0  0  0  0  0  0
    4.4957   -9.2636   17.3041 C   0  0  0  0  0  0  0  0  0  0  0  0
   -1.8070   -5.6086   28.1920 O   0  0  0  0  0  0  0  0  0  0  0  0
   10.4296   -5.1799   28.3140 C   0  0  0  0  0  0  0  0  0  0  0  0
    6.6017   -5.9004   26.9187 C   0  0  0  0  0  0  0  0  0  0  0  0
    2.4761   -6.9940   26.4111 N   0  0  0  0  0  0  0  0  0  0  0  0
    9.1353   -5.4053   27.8239 C   0  0  0  0  0  0  0  0  0  0  0  0
    0.9922   -9.3232   16.5995 O   0  0  0  0  0  0  0  0  0  0  0  0
    1.5232   -7.6869   27.1182 C   0  0  0  0  0  0  0  0  0  0  0  0
    8.6878   -6.6715   27.7262 N   0  0  0  0  0  0  0  0  0  0  0  0
    6.9911   -8.2423   27.1808 C   0  0  0  0  0  0  0  0  0  0  0  0
    3.8436   -7.2758   16.0578 C   0  0  0  0  0  0  0  0  0  0  0  0
    3.1882   -9.7190   17.2566 C   0  0  0  0  0  0  0  0  0  0  0  0
    5.3488   -6.1737   26.5092 C   0  0  0  0  0  0  0  0  0  0  0  0
    7.4567   -6.9464   27.2858 C   0  0  0  0  0  0  0  0  0  0  0  0
    0.1921   -5.7592   27.1123 C   0  0  0  0  0  0  0  0  0  0  0  0
    3.5517   -7.7407   25.9711 C   0  0  0  0  0  0  0  0  0  0  0  0
  1  4  4  0
  1 22  4  0
  2 20  4  0
  2 27  4  0
  3 12  4  0
  3 23  4  0
  4 25  4  0
  4 28  1  0
  5  8  4  0
  5 17  4  0
  6  7  4  0
  6 16  4  0
  7 18  4  0
  8 27  4  0
  9 13  4  0
  9 23  4  0
 10 11  1  0
 11 14  2  0
 11 27  1  0
 12 19  1  0
 12 24  4  0
 13 24  4  0
 15 18  1  0
 16 25  4  0
 16 26  4  0
 17 20  4  0
 17 28  1  0
 18 21  4  0
 21 26  4  0
 22 26  4  0
M  END
$$$$

 Created by Python create_sdf_string function

 28 30  0  0  0  0  0  0  0  0999 V2000
    5.7174   -8.4529   26.7190 C   0  0  0  0  0  0  0  0  0  0  0  0
    0.3974   -7.0711   27.5149 C   0  0  0  0  0  0  0  0  0  0  0  0
    2.5338   -7.6891   16.0102 C   0  0  0  0  0  0  0  0  0  0  0  0
    4.8690   -7.4380   26.4151 C   0  0  0  0  0  0  0  0  0  0  0  0
    2.3021   -5.6726   26.0378 C   0  0  0  0  0  0  0  0  0  0  0  0
    7.0880   -4.6163   27.0010 C   0  0  0  0  0  0  0  0  0  0  0  0
    8.3117   -4.3698   27.4436 C   0  0  0  0  0  0  0  0  0  0  0  0
    1.1339   -5.0515   26.3541 C   0  0  0  0  0  0  0  0  0  0  0  0
    4.8080   -8.0362   16.7101 C   0  0  0  0  0  0  0  0  0  0  0  0
   -1.2173   -3.9294   26.9717 O   0  0  0  0  0  0  0  0  0  0  0  0
   -1.0025   -5.0942   27.4586 C   0  0  0  0  0  0  0  0  0  0  0  0
    2.2474   -8.9123   16.6273 C   0  0  0  0  0  0  0  0  0  0  0  0
    4.4957   -9.2636   17.3041 C   0  0  0  0  0  0  0  0  0  0  0  0
   -1.8070   -5.6086   28.1920 O   0  0  0  0  0  0  0  0  0  0  0  0
   10.4296   -5.1799   28.3140 C   0  0  0  0  0  0  0  0  0  0  0  0
    6.6017   -5.9004   26.9187 C   0  0  0  0  0  0  0  0  0  0  0  0
    2.4761   -6.9940   26.4111 N   0  0  0  0  0  0  0  0  0  0  0  0
    9.1353   -5.4053   27.8239 C   0  0  0  0  0  0  0  0  0  0  0  0
    0.9922   -9.3232   16.5995 O   0  0  0  0  0  0  0  0  0  0  0  0
    1.5232   -7.6869   27.1182 C   0  0  0  0  0  0  0  0  0  0  0  0
    8.6878   -6.6715   27.7262 N   0  0  0  0  0  0  0  0  0  0  0  0
    6.9911   -8.2423   27.1808 C   0  0  0  0  0  0  0  0  0  0  0  0
    3.8436   -7.2758   16.0578 C   0  0  0  0  0  0  0  0  0  0  0  0
    3.1882   -9.7190   17.2566 C   0  0  0  0  0  0  0  0  0  0  0  0
    5.3488   -6.1737   26.5092 C   0  0  0  0  0  0  0  0  0  0  0  0
    7.4567   -6.9464   27.2858 C   0  0  0  0  0  0  0  0  0  0  0  0
    0.1921   -5.7592   27.1123 C   0  0  0  0  0  0  0  0  0  0  0  0
    3.5517   -7.7407   25.9711 C   0  0  0  0  0  0  0  0  0  0  0  0
  1  4  4  0
  1 22  4  0
  2 20  4  0
  2 27  4  0
  3 12  4  0
  3 23  4  0
  4 25  4  0
  4 28  1  0
  5  8  4  0
  5 17  4  0
  6  7  4  0
  6 16  4  0
  7 18  4  0
  8 27  4  0
  9 13  4  0
  9 23  4  0
 10 11  1  0
 11 14  2  0
 11 27  1  0
 12 19  1  0
 12 24  4  0
 13 24  4  0
 15 18  1  0
 16 25  4  0
 16 26  4  0
 17 20  4  0
 17 28  1  0
 18 21  4  0
 21 26  4  0
 22 26  4  0
M  END
$$$$

 Created by Python create_sdf_string function

 28 30  0  0  0  0  0  0  0  0999 V2000
    5.7174   -8.4529   26.7190 C   0  0  0  0  0  0  0  0  0  0  0  0
    0.3974   -7.0711   27.5149 C   0  0  0  0  0  0  0  0  0  0  0  0
    2.5338   -7.6891   16.0102 C   0  0  0  0  0  0  0  0  0  0  0  0
    4.8690   -7.4380   26.4151 C   0  0  0  0  0  0  0  0  0  0  0  0
    2.3021   -5.6726   26.0378 C   0  0  0  0  0  0  0  0  0  0  0  0
    7.0880   -4.6163   27.0010 C   0  0  0  0  0  0  0  0  0  0  0  0
    8.3117   -4.3698   27.4436 C   0  0  0  0  0  0  0  0  0  0  0  0
    1.1339   -5.0515   26.3541 C   0  0  0  0  0  0  0  0  0  0  0  0
    4.8080   -8.0362   16.7101 C   0  0  0  0  0  0  0  0  0  0  0  0
   -1.2173   -3.9294   26.9717 O   0  0  0  0  0  0  0  0  0  0  0  0
   -1.0025   -5.0942   27.4586 C   0  0  0  0  0  0  0  0  0  0  0  0
    2.2474   -8.9123   16.6273 C   0  0  0  0  0  0  0  0  0  0  0  0
    4.4957   -9.2636   17.3041 C   0  0  0  0  0  0  0  0  0  0  0  0
   -1.8070   -5.6086   28.1920 O   0  0  0  0  0  0  0  0  0  0  0  0
   10.4296   -5.1799   28.3140 C   0  0  0  0  0  0  0  0  0  0  0  0
    6.6017   -5.9004   26.9187 C   0  0  0  0  0  0  0  0  0  0  0  0
    2.4761   -6.9940   26.4111 N   0  0  0  0  0  0  0  0  0  0  0  0
    9.1353   -5.4053   27.8239 C   0  0  0  0  0  0  0  0  0  0  0  0
    0.9922   -9.3232   16.5995 O   0  0  0  0  0  0  0  0  0  0  0  0
    1.5232   -7.6869   27.1182 C   0  0  0  0  0  0  0  0  0  0  0  0
    8.6878   -6.6715   27.7262 N   0  0  0  0  0  0  0  0  0  0  0  0
    6.9911   -8.2423   27.1808 C   0  0  0  0  0  0  0  0  0  0  0  0
    3.8436   -7.2758   16.0578 C   0  0  0  0  0  0  0  0  0  0  0  0
    3.1882   -9.7190   17.2566 C   0  0  0  0  0  0  0  0  0  0  0  0
    5.3488   -6.1737   26.5092 C   0  0  0  0  0  0  0  0  0  0  0  0
    7.4567   -6.9464   27.2858 C   0  0  0  0  0  0  0  0  0  0  0  0
    0.1921   -5.7592   27.1123 C   0  0  0  0  0  0  0  0  0  0  0  0
    3.5517   -7.7407   25.9711 C   0  0  0  0  0  0  0  0  0  0  0  0
  1  4  4  0
  1 22  4  0
  2 20  4  0
  2 27  4  0
  3 12  4  0
  3 23  4  0
  4 25  4  0
  4 28  1  0
  5  8  4  0
  5 17  4  0
  6  7  4  0
  6 16  4  0
  7 18  4  0
  8 27  4  0
  9 13  4  0
  9 23  4  0
 10 11  1  0
 11 14  2  0
 11 27  1  0
 12 19  1  0
 12 24  4  0
 13 24  4  0
 15 18  1  0
 16 25  4  0
 16 26  4  0
 17 20  4  0
 17 28  1  0
 18 21  4  0
 21 26  4  0
 22 26  4  0
M  END
$$$$

 Created by Python create_sdf_string function

 28 30  0  0  0  0  0  0  0  0999 V2000
    5.7174   -8.4529   26.7190 C   0  0  0  0  0  0  0  0  0  0  0  0
    0.3974   -7.0711   27.5149 C   0  0  0  0  0  0  0  0  0  0  0  0
    2.5338   -7.6891   16.0102 C   0  0  0  0  0  0  0  0  0  0  0  0
    4.8690   -7.4380   26.4151 C   0  0  0  0  0  0  0  0  0  0  0  0
    2.3021   -5.6726   26.0378 C   0  0  0  0  0  0  0  0  0  0  0  0
    7.0880   -4.6163   27.0010 C   0  0  0  0  0  0  0  0  0  0  0  0
    8.3117   -4.3698   27.4436 C   0  0  0  0  0  0  0  0  0  0  0  0
    1.1339   -5.0515   26.3541 C   0  0  0  0  0  0  0  0  0  0  0  0
    4.8080   -8.0362   16.7101 C   0  0  0  0  0  0  0  0  0  0  0  0
   -1.2173   -3.9294   26.9717 O   0  0  0  0  0  0  0  0  0  0  0  0
   -1.0025   -5.0942   27.4586 C   0  0  0  0  0  0  0  0  0  0  0  0
    2.2474   -8.9123   16.6273 C   0  0  0  0  0  0  0  0  0  0  0  0
    4.4957   -9.2636   17.3041 C   0  0  0  0  0  0  0  0  0  0  0  0
   -1.8070   -5.6086   28.1920 O   0  0  0  0  0  0  0  0  0  0  0  0
   10.4296   -5.1799   28.3140 C   0  0  0  0  0  0  0  0  0  0  0  0
    6.6017   -5.9004   26.9187 C   0  0  0  0  0  0  0  0  0  0  0  0
    2.4761   -6.9940   26.4111 N   0  0  0  0  0  0  0  0  0  0  0  0
    9.1353   -5.4053   27.8239 C   0  0  0  0  0  0  0  0  0  0  0  0
    0.9922   -9.3232   16.5995 O   0  0  0  0  0  0  0  0  0  0  0  0
    1.5232   -7.6869   27.1182 C   0  0  0  0  0  0  0  0  0  0  0  0
    8.6878   -6.6715   27.7262 N   0  0  0  0  0  0  0  0  0  0  0  0
    6.9911   -8.2423   27.1808 C   0  0  0  0  0  0  0  0  0  0  0  0
    3.8436   -7.2758   16.0578 C   0  0  0  0  0  0  0  0  0  0  0  0
    3.1882   -9.7190   17.2566 C   0  0  0  0  0  0  0  0  0  0  0  0
    5.3488   -6.1737   26.5092 C   0  0  0  0  0  0  0  0  0  0  0  0
    7.4567   -6.9464   27.2858 C   0  0  0  0  0  0  0  0  0  0  0  0
    0.1921   -5.7592   27.1123 C   0  0  0  0  0  0  0  0  0  0  0  0
    3.5517   -7.7407   25.9711 C   0  0  0  0  0  0  0  0  0  0  0  0
  1  4  4  0
  1 22  4  0
  2 20  4  0
  2 27  4  0
  3 12  4  0
  3 23  4  0
  4 25  4  0
  4 28  1  0
  5  8  4  0
  5 17  4  0
  6  7  4  0
  6 16  4  0
  7 18  4  0
  8 27  4  0
  9 13  4  0
  9 23  4  0
 10 11  1  0
 11 14  2  0
 11 27  1  0
 12 19  1  0
 12 24  4  0
 13 24  4  0
 15 18  1  0
 16 25  4  0
 16 26  4  0
 17 20  4  0
 17 28  1  0
 18 21  4  0
 21 26  4  0
 22 26  4  0
M  END
$$$$

 Created by Python create_sdf_string function

 28 30  0  0  0  0  0  0  0  0999 V2000
    5.7174   -8.4529   26.7190 C   0  0  0  0  0  0  0  0  0  0  0  0
    0.3974   -7.0711   27.5149 C   0  0  0  0  0  0  0  0  0  0  0  0
    2.5338   -7.6891   16.0102 C   0  0  0  0  0  0  0  0  0  0  0  0
    4.8690   -7.4380   26.4151 C   0  0  0  0  0  0  0  0  0  0  0  0
    2.3021   -5.6726   26.0378 C   0  0  0  0  0  0  0  0  0  0  0  0
    7.0880   -4.6163   27.0010 C   0  0  0  0  0  0  0  0  0  0  0  0
    8.3117   -4.3698   27.4436 C   0  0  0  0  0  0  0  0  0  0  0  0
    1.1339   -5.0515   26.3541 C   0  0  0  0  0  0  0  0  0  0  0  0
    4.8080   -8.0362   16.7101 C   0  0  0  0  0  0  0  0  0  0  0  0
   -1.2173   -3.9294   26.9717 O   0  0  0  0  0  0  0  0  0  0  0  0
   -1.0025   -5.0942   27.4586 C   0  0  0  0  0  0  0  0  0  0  0  0
    2.2474   -8.9123   16.6273 C   0  0  0  0  0  0  0  0  0  0  0  0
    4.4957   -9.2636   17.3041 C   0  0  0  0  0  0  0  0  0  0  0  0
   -1.8070   -5.6086   28.1920 O   0  0  0  0  0  0  0  0  0  0  0  0
   10.4296   -5.1799   28.3140 C   0  0  0  0  0  0  0  0  0  0  0  0
    6.6017   -5.9004   26.9187 C   0  0  0  0  0  0  0  0  0  0  0  0
    2.4761   -6.9940   26.4111 N   0  0  0  0  0  0  0  0  0  0  0  0
    9.1353   -5.4053   27.8239 C   0  0  0  0  0  0  0  0  0  0  0  0
    0.9922   -9.3232   16.5995 O   0  0  0  0  0  0  0  0  0  0  0  0
    1.5232   -7.6869   27.1182 C   0  0  0  0  0  0  0  0  0  0  0  0
    8.6878   -6.6715   27.7262 N   0  0  0  0  0  0  0  0  0  0  0  0
    6.9911   -8.2423   27.1808 C   0  0  0  0  0  0  0  0  0  0  0  0
    3.8436   -7.2758   16.0578 C   0  0  0  0  0  0  0  0  0  0  0  0
    3.1882   -9.7190   17.2566 C   0  0  0  0  0  0  0  0  0  0  0  0
    5.3488   -6.1737   26.5092 C   0  0  0  0  0  0  0  0  0  0  0  0
    7.4567   -6.9464   27.2858 C   0  0  0  0  0  0  0  0  0  0  0  0
    0.1921   -5.7592   27.1123 C   0  0  0  0  0  0  0  0  0  0  0  0
    3.5517   -7.7407   25.9711 C   0  0  0  0  0  0  0  0  0  0  0  0
  1  4  4  0
  1 22  4  0
  2 20  4  0
  2 27  4  0
  3 12  4  0
  3 23  4  0
  4 25  4  0
  4 28  1  0
  5  8  4  0
  5 17  4  0
  6  7  4  0
  6 16  4  0
  7 18  4  0
  8 27  4  0
  9 13  4  0
  9 23  4  0
 10 11  1  0
 11 14  2  0
 11 27  1  0
 12 19  1  0
 12 24  4  0
 13 24  4  0
 15 18  1  0
 16 25  4  0
 16 26  4  0
 17 20  4  0
 17 28  1  0
 18 21  4  0
 21 26  4  0
 22 26  4  0
M  END
$$$$

 Created by Python create_sdf_string function

 28 30  0  0  0  0  0  0  0  0999 V2000
    5.7174   -8.4529   26.7190 C   0  0  0  0  0  0  0  0  0  0  0  0
    0.3974   -7.0711   27.5149 C   0  0  0  0  0  0  0  0  0  0  0  0
    2.5338   -7.6891   16.0102 C   0  0  0  0  0  0  0  0  0  0  0  0
    4.8690   -7.4380   26.4151 C   0  0  0  0  0  0  0  0  0  0  0  0
    2.3021   -5.6726   26.0378 C   0  0  0  0  0  0  0  0  0  0  0  0
    7.0880   -4.6163   27.0010 C   0  0  0  0  0  0  0  0  0  0  0  0
    8.3117   -4.3698   27.4436 C   0  0  0  0  0  0  0  0  0  0  0  0
    1.1339   -5.0515   26.3541 C   0  0  0  0  0  0  0  0  0  0  0  0
    4.8080   -8.0362   16.7101 C   0  0  0  0  0  0  0  0  0  0  0  0
   -1.2173   -3.9294   26.9717 O   0  0  0  0  0  0  0  0  0  0  0  0
   -1.0025   -5.0942   27.4586 C   0  0  0  0  0  0  0  0  0  0  0  0
    2.2474   -8.9123   16.6273 C   0  0  0  0  0  0  0  0  0  0  0  0
    4.4957   -9.2636   17.3041 C   0  0  0  0  0  0  0  0  0  0  0  0
   -1.8070   -5.6086   28.1920 O   0  0  0  0  0  0  0  0  0  0  0  0
   10.4296   -5.1799   28.3140 C   0  0  0  0  0  0  0  0  0  0  0  0
    6.6017   -5.9004   26.9187 C   0  0  0  0  0  0  0  0  0  0  0  0
    2.4761   -6.9940   26.4111 N   0  0  0  0  0  0  0  0  0  0  0  0
    9.1353   -5.4053   27.8239 C   0  0  0  0  0  0  0  0  0  0  0  0
    0.9922   -9.3232   16.5995 O   0  0  0  0  0  0  0  0  0  0  0  0
    1.5232   -7.6869   27.1182 C   0  0  0  0  0  0  0  0  0  0  0  0
    8.6878   -6.6715   27.7262 N   0  0  0  0  0  0  0  0  0  0  0  0
    6.9911   -8.2423   27.1808 C   0  0  0  0  0  0  0  0  0  0  0  0
    3.8436   -7.2758   16.0578 C   0  0  0  0  0  0  0  0  0  0  0  0
    3.1882   -9.7190   17.2566 C   0  0  0  0  0  0  0  0  0  0  0  0
    5.3488   -6.1737   26.5092 C   0  0  0  0  0  0  0  0  0  0  0  0
    7.4567   -6.9464   27.2858 C   0  0  0  0  0  0  0  0  0  0  0  0
    0.1921   -5.7592   27.1123 C   0  0  0  0  0  0  0  0  0  0  0  0
    3.5517   -7.7407   25.9711 C   0  0  0  0  0  0  0  0  0  0  0  0
  1  4  4  0
  1 22  4  0
  2 20  4  0
  2 27  4  0
  3 12  4  0
  3 23  4  0
  4 25  4  0
  4 28  1  0
  5  8  4  0
  5 17  4  0
  6  7  4  0
  6 16  4  0
  7 18  4  0
  8 27  4  0
  9 13  4  0
  9 23  4  0
 10 11  1  0
 11 14  2  0
 11 27  1  0
 12 19  1  0
 12 24  4  0
 13 24  4  0
 15 18  1  0
 16 25  4  0
 16 26  4  0
 17 20  4  0
 17 28  1  0
 18 21  4  0
 21 26  4  0
 22 26  4  0
M  END
$$$$

 Created by Python create_sdf_string function

 28 30  0  0  0  0  0  0  0  0999 V2000
    5.7174   -8.4529   26.7190 C   0  0  0  0  0  0  0  0  0  0  0  0
    0.3974   -7.0711   27.5149 C   0  0  0  0  0  0  0  0  0  0  0  0
    2.5338   -7.6891   16.0102 C   0  0  0  0  0  0  0  0  0  0  0  0
    4.8690   -7.4380   26.4151 C   0  0  0  0  0  0  0  0  0  0  0  0
    2.3021   -5.6726   26.0378 C   0  0  0  0  0  0  0  0  0  0  0  0
    7.0880   -4.6163   27.0010 C   0  0  0  0  0  0  0  0  0  0  0  0
    8.3117   -4.3698   27.4436 C   0  0  0  0  0  0  0  0  0  0  0  0
    1.1339   -5.0515   26.3541 C   0  0  0  0  0  0  0  0  0  0  0  0
    4.8080   -8.0362   16.7101 C   0  0  0  0  0  0  0  0  0  0  0  0
   -1.2173   -3.9294   26.9717 O   0  0  0  0  0  0  0  0  0  0  0  0
   -1.0025   -5.0942   27.4586 C   0  0  0  0  0  0  0  0  0  0  0  0
    2.2474   -8.9123   16.6273 C   0  0  0  0  0  0  0  0  0  0  0  0
    4.4957   -9.2636   17.3041 C   0  0  0  0  0  0  0  0  0  0  0  0
   -1.8070   -5.6086   28.1920 O   0  0  0  0  0  0  0  0  0  0  0  0
   10.4296   -5.1799   28.3140 C   0  0  0  0  0  0  0  0  0  0  0  0
    6.6017   -5.9004   26.9187 C   0  0  0  0  0  0  0  0  0  0  0  0
    2.4761   -6.9940   26.4111 N   0  0  0  0  0  0  0  0  0  0  0  0
    9.1353   -5.4053   27.8239 C   0  0  0  0  0  0  0  0  0  0  0  0
    0.9922   -9.3232   16.5995 O   0  0  0  0  0  0  0  0  0  0  0  0
    1.5232   -7.6869   27.1182 C   0  0  0  0  0  0  0  0  0  0  0  0
    8.6878   -6.6715   27.7262 N   0  0  0  0  0  0  0  0  0  0  0  0
    6.9911   -8.2423   27.1808 C   0  0  0  0  0  0  0  0  0  0  0  0
    3.8436   -7.2758   16.0578 C   0  0  0  0  0  0  0  0  0  0  0  0
    3.1882   -9.7190   17.2566 C   0  0  0  0  0  0  0  0  0  0  0  0
    5.3488   -6.1737   26.5092 C   0  0  0  0  0  0  0  0  0  0  0  0
    7.4567   -6.9464   27.2858 C   0  0  0  0  0  0  0  0  0  0  0  0
    0.1921   -5.7592   27.1123 C   0  0  0  0  0  0  0  0  0  0  0  0
    3.5517   -7.7407   25.9711 C   0  0  0  0  0  0  0  0  0  0  0  0
  1  4  4  0
  1 22  4  0
  2 20  4  0
  2 27  4  0
  3 12  4  0
  3 23  4  0
  4 25  4  0
  4 28  1  0
  5  8  4  0
  5 17  4  0
  6  7  4  0
  6 16  4  0
  7 18  4  0
  8 27  4  0
  9 13  4  0
  9 23  4  0
 10 11  1  0
 11 14  2  0
 11 27  1  0
 12 19  1  0
 12 24  4  0
 13 24  4  0
 15 18  1  0
 16 25  4  0
 16 26  4  0
 17 20  4  0
 17 28  1  0
 18 21  4  0
 21 26  4  0
 22 26  4  0
M  END
$$$$

 Created by Python create_sdf_string function

 28 30  0  0  0  0  0  0  0  0999 V2000
    5.7174   -8.4529   26.7190 C   0  0  0  0  0  0  0  0  0  0  0  0
    0.3974   -7.0711   27.5149 C   0  0  0  0  0  0  0  0  0  0  0  0
    2.5338   -7.6891   16.0102 C   0  0  0  0  0  0  0  0  0  0  0  0
    4.8690   -7.4380   26.4151 C   0  0  0  0  0  0  0  0  0  0  0  0
    2.3021   -5.6726   26.0378 C   0  0  0  0  0  0  0  0  0  0  0  0
    7.0880   -4.6163   27.0010 C   0  0  0  0  0  0  0  0  0  0  0  0
    8.3117   -4.3698   27.4436 C   0  0  0  0  0  0  0  0  0  0  0  0
    1.1339   -5.0515   26.3541 C   0  0  0  0  0  0  0  0  0  0  0  0
    4.8080   -8.0362   16.7101 C   0  0  0  0  0  0  0  0  0  0  0  0
   -1.2173   -3.9294   26.9717 O   0  0  0  0  0  0  0  0  0  0  0  0
   -1.0025   -5.0942   27.4586 C   0  0  0  0  0  0  0  0  0  0  0  0
    2.2474   -8.9123   16.6273 C   0  0  0  0  0  0  0  0  0  0  0  0
    4.4957   -9.2636   17.3041 C   0  0  0  0  0  0  0  0  0  0  0  0
   -1.8070   -5.6086   28.1920 O   0  0  0  0  0  0  0  0  0  0  0  0
   10.4296   -5.1799   28.3140 C   0  0  0  0  0  0  0  0  0  0  0  0
    6.6017   -5.9004   26.9187 C   0  0  0  0  0  0  0  0  0  0  0  0
    2.4761   -6.9940   26.4111 N   0  0  0  0  0  0  0  0  0  0  0  0
    9.1353   -5.4053   27.8239 C   0  0  0  0  0  0  0  0  0  0  0  0
    0.9922   -9.3232   16.5995 O   0  0  0  0  0  0  0  0  0  0  0  0
    1.5232   -7.6869   27.1182 C   0  0  0  0  0  0  0  0  0  0  0  0
    8.6878   -6.6715   27.7262 N   0  0  0  0  0  0  0  0  0  0  0  0
    6.9911   -8.2423   27.1808 C   0  0  0  0  0  0  0  0  0  0  0  0
    3.8436   -7.2758   16.0578 C   0  0  0  0  0  0  0  0  0  0  0  0
    3.1882   -9.7190   17.2566 C   0  0  0  0  0  0  0  0  0  0  0  0
    5.3488   -6.1737   26.5092 C   0  0  0  0  0  0  0  0  0  0  0  0
    7.4567   -6.9464   27.2858 C   0  0  0  0  0  0  0  0  0  0  0  0
    0.1921   -5.7592   27.1123 C   0  0  0  0  0  0  0  0  0  0  0  0
    3.5517   -7.7407   25.9711 C   0  0  0  0  0  0  0  0  0  0  0  0
  1  4  4  0
  1 22  4  0
  2 20  4  0
  2 27  4  0
  3 12  4  0
  3 23  4  0
  4 25  4  0
  4 28  1  0
  5  8  4  0
  5 17  4  0
  6  7  4  0
  6 16  4  0
  7 18  4  0
  8 27  4  0
  9 13  4  0
  9 23  4  0
 10 11  1  0
 11 14  2  0
 11 27  1  0
 12 19  1  0
 12 24  4  0
 13 24  4  0
 15 18  1  0
 16 25  4  0
 16 26  4  0
 17 20  4  0
 17 28  1  0
 18 21  4  0
 21 26  4  0
 22 26  4  0
M  END
$$$$

 Created by Python create_sdf_string function

 28 30  0  0  0  0  0  0  0  0999 V2000
    5.7174   -8.4529   26.7190 C   0  0  0  0  0  0  0  0  0  0  0  0
    0.3974   -7.0711   27.5149 C   0  0  0  0  0  0  0  0  0  0  0  0
    2.5338   -7.6891   16.0102 C   0  0  0  0  0  0  0  0  0  0  0  0
    4.8690   -7.4380   26.4151 C   0  0  0  0  0  0  0  0  0  0  0  0
    2.3021   -5.6726   26.0378 C   0  0  0  0  0  0  0  0  0  0  0  0
    7.0880   -4.6163   27.0010 C   0  0  0  0  0  0  0  0  0  0  0  0
    8.3117   -4.3698   27.4436 C   0  0  0  0  0  0  0  0  0  0  0  0
    1.1339   -5.0515   26.3541 C   0  0  0  0  0  0  0  0  0  0  0  0
    4.8080   -8.0362   16.7101 C   0  0  0  0  0  0  0  0  0  0  0  0
   -1.2173   -3.9294   26.9717 O   0  0  0  0  0  0  0  0  0  0  0  0
   -1.0025   -5.0942   27.4586 C   0  0  0  0  0  0  0  0  0  0  0  0
    2.2474   -8.9123   16.6273 C   0  0  0  0  0  0  0  0  0  0  0  0
    4.4957   -9.2636   17.3041 C   0  0  0  0  0  0  0  0  0  0  0  0
   -1.8070   -5.6086   28.1920 O   0  0  0  0  0  0  0  0  0  0  0  0
   10.4296   -5.1799   28.3140 C   0  0  0  0  0  0  0  0  0  0  0  0
    6.6017   -5.9004   26.9187 C   0  0  0  0  0  0  0  0  0  0  0  0
    2.4761   -6.9940   26.4111 N   0  0  0  0  0  0  0  0  0  0  0  0
    9.1353   -5.4053   27.8239 C   0  0  0  0  0  0  0  0  0  0  0  0
    0.9922   -9.3232   16.5995 O   0  0  0  0  0  0  0  0  0  0  0  0
    1.5232   -7.6869   27.1182 C   0  0  0  0  0  0  0  0  0  0  0  0
    8.6878   -6.6715   27.7262 N   0  0  0  0  0  0  0  0  0  0  0  0
    6.9911   -8.2423   27.1808 C   0  0  0  0  0  0  0  0  0  0  0  0
    3.8436   -7.2758   16.0578 C   0  0  0  0  0  0  0  0  0  0  0  0
    3.1882   -9.7190   17.2566 C   0  0  0  0  0  0  0  0  0  0  0  0
    5.3488   -6.1737   26.5092 C   0  0  0  0  0  0  0  0  0  0  0  0
    7.4567   -6.9464   27.2858 C   0  0  0  0  0  0  0  0  0  0  0  0
    0.1921   -5.7592   27.1123 C   0  0  0  0  0  0  0  0  0  0  0  0
    3.5517   -7.7407   25.9711 C   0  0  0  0  0  0  0  0  0  0  0  0
  1  4  4  0
  1 22  4  0
  2 20  4  0
  2 27  4  0
  3 12  4  0
  3 23  4  0
  4 25  4  0
  4 28  1  0
  5  8  4  0
  5 17  4  0
  6  7  4  0
  6 16  4  0
  7 18  4  0
  8 27  4  0
  9 13  4  0
  9 23  4  0
 10 11  1  0
 11 14  2  0
 11 27  1  0
 12 19  1  0
 12 24  4  0
 13 24  4  0
 15 18  1  0
 16 25  4  0
 16 26  4  0
 17 20  4  0
 17 28  1  0
 18 21  4  0
 21 26  4  0
 22 26  4  0
M  END
$$$$

 Created by Python create_sdf_string function

 28 30  0  0  0  0  0  0  0  0999 V2000
    5.7174   -8.4529   26.7190 C   0  0  0  0  0  0  0  0  0  0  0  0
    0.3974   -7.0711   27.5149 C   0  0  0  0  0  0  0  0  0  0  0  0
    2.5338   -7.6891   16.0102 C   0  0  0  0  0  0  0  0  0  0  0  0
    4.8690   -7.4380   26.4151 C   0  0  0  0  0  0  0  0  0  0  0  0
    2.3021   -5.6726   26.0378 C   0  0  0  0  0  0  0  0  0  0  0  0
    7.0880   -4.6163   27.0010 C   0  0  0  0  0  0  0  0  0  0  0  0
    8.3117   -4.3698   27.4436 C   0  0  0  0  0  0  0  0  0  0  0  0
    1.1339   -5.0515   26.3541 C   0  0  0  0  0  0  0  0  0  0  0  0
    4.8080   -8.0362   16.7101 C   0  0  0  0  0  0  0  0  0  0  0  0
   -1.2173   -3.9294   26.9717 O   0  0  0  0  0  0  0  0  0  0  0  0
   -1.0025   -5.0942   27.4586 C   0  0  0  0  0  0  0  0  0  0  0  0
    2.2474   -8.9123   16.6273 C   0  0  0  0  0  0  0  0  0  0  0  0
    4.4957   -9.2636   17.3041 C   0  0  0  0  0  0  0  0  0  0  0  0
   -1.8070   -5.6086   28.1920 O   0  0  0  0  0  0  0  0  0  0  0  0
   10.4296   -5.1799   28.3140 C   0  0  0  0  0  0  0  0  0  0  0  0
    6.6017   -5.9004   26.9187 C   0  0  0  0  0  0  0  0  0  0  0  0
    2.4761   -6.9940   26.4111 N   0  0  0  0  0  0  0  0  0  0  0  0
    9.1353   -5.4053   27.8239 C   0  0  0  0  0  0  0  0  0  0  0  0
    0.9922   -9.3232   16.5995 O   0  0  0  0  0  0  0  0  0  0  0  0
    1.5232   -7.6869   27.1182 C   0  0  0  0  0  0  0  0  0  0  0  0
    8.6878   -6.6715   27.7262 N   0  0  0  0  0  0  0  0  0  0  0  0
    6.9911   -8.2423   27.1808 C   0  0  0  0  0  0  0  0  0  0  0  0
    3.8436   -7.2758   16.0578 C   0  0  0  0  0  0  0  0  0  0  0  0
    3.1882   -9.7190   17.2566 C   0  0  0  0  0  0  0  0  0  0  0  0
    5.3488   -6.1737   26.5092 C   0  0  0  0  0  0  0  0  0  0  0  0
    7.4567   -6.9464   27.2858 C   0  0  0  0  0  0  0  0  0  0  0  0
    0.1921   -5.7592   27.1123 C   0  0  0  0  0  0  0  0  0  0  0  0
    3.5517   -7.7407   25.9711 C   0  0  0  0  0  0  0  0  0  0  0  0
  1  4  4  0
  1 22  4  0
  2 20  4  0
  2 27  4  0
  3 12  4  0
  3 23  4  0
  4 25  4  0
  4 28  1  0
  5  8  4  0
  5 17  4  0
  6  7  4  0
  6 16  4  0
  7 18  4  0
  8 27  4  0
  9 13  4  0
  9 23  4  0
 10 11  1  0
 11 14  2  0
 11 27  1  0
 12 19  1  0
 12 24  4  0
 13 24  4  0
 15 18  1  0
 16 25  4  0
 16 26  4  0
 17 20  4  0
 17 28  1  0
 18 21  4  0
 21 26  4  0
 22 26  4  0
M  END
$$$$

 Created by Python create_sdf_string function

 28 30  0  0  0  0  0  0  0  0999 V2000
    5.7174   -8.4529   26.7190 C   0  0  0  0  0  0  0  0  0  0  0  0
    0.3974   -7.0711   27.5149 C   0  0  0  0  0  0  0  0  0  0  0  0
    2.5338   -7.6891   16.0102 C   0  0  0  0  0  0  0  0  0  0  0  0
    4.8690   -7.4380   26.4151 C   0  0  0  0  0  0  0  0  0  0  0  0
    2.3021   -5.6726   26.0378 C   0  0  0  0  0  0  0  0  0  0  0  0
    7.0880   -4.6163   27.0010 C   0  0  0  0  0  0  0  0  0  0  0  0
    8.3117   -4.3698   27.4436 C   0  0  0  0  0  0  0  0  0  0  0  0
    1.1339   -5.0515   26.3541 C   0  0  0  0  0  0  0  0  0  0  0  0
    4.8080   -8.0362   16.7101 C   0  0  0  0  0  0  0  0  0  0  0  0
   -1.2173   -3.9294   26.9717 O   0  0  0  0  0  0  0  0  0  0  0  0
   -1.0025   -5.0942   27.4586 C   0  0  0  0  0  0  0  0  0  0  0  0
    2.2474   -8.9123   16.6273 C   0  0  0  0  0  0  0  0  0  0  0  0
    4.4957   -9.2636   17.3041 C   0  0  0  0  0  0  0  0  0  0  0  0
   -1.8070   -5.6086   28.1920 O   0  0  0  0  0  0  0  0  0  0  0  0
   10.4296   -5.1799   28.3140 C   0  0  0  0  0  0  0  0  0  0  0  0
    6.6017   -5.9004   26.9187 C   0  0  0  0  0  0  0  0  0  0  0  0
    2.4761   -6.9940   26.4111 N   0  0  0  0  0  0  0  0  0  0  0  0
    9.1353   -5.4053   27.8239 C   0  0  0  0  0  0  0  0  0  0  0  0
    0.9922   -9.3232   16.5995 O   0  0  0  0  0  0  0  0  0  0  0  0
    1.5232   -7.6869   27.1182 C   0  0  0  0  0  0  0  0  0  0  0  0
    8.6878   -6.6715   27.7262 N   0  0  0  0  0  0  0  0  0  0  0  0
    6.9911   -8.2423   27.1808 C   0  0  0  0  0  0  0  0  0  0  0  0
    3.8436   -7.2758   16.0578 C   0  0  0  0  0  0  0  0  0  0  0  0
    3.1882   -9.7190   17.2566 C   0  0  0  0  0  0  0  0  0  0  0  0
    5.3488   -6.1737   26.5092 C   0  0  0  0  0  0  0  0  0  0  0  0
    7.4567   -6.9464   27.2858 C   0  0  0  0  0  0  0  0  0  0  0  0
    0.1921   -5.7592   27.1123 C   0  0  0  0  0  0  0  0  0  0  0  0
    3.5517   -7.7407   25.9711 C   0  0  0  0  0  0  0  0  0  0  0  0
  1  4  4  0
  1 22  4  0
  2 20  4  0
  2 27  4  0
  3 12  4  0
  3 23  4  0
  4 25  4  0
  4 28  1  0
  5  8  4  0
  5 17  4  0
  6  7  4  0
  6 16  4  0
  7 18  4  0
  8 27  4  0
  9 13  4  0
  9 23  4  0
 10 11  1  0
 11 14  2  0
 11 27  1  0
 12 19  1  0
 12 24  4  0
 13 24  4  0
 15 18  1  0
 16 25  4  0
 16 26  4  0
 17 20  4  0
 17 28  1  0
 18 21  4  0
 21 26  4  0
 22 26  4  0
M  END
$$$$

 Created by Python create_sdf_string function

 28 30  0  0  0  0  0  0  0  0999 V2000
    5.7174   -8.4529   26.7190 C   0  0  0  0  0  0  0  0  0  0  0  0
    0.3974   -7.0711   27.5149 C   0  0  0  0  0  0  0  0  0  0  0  0
    2.5338   -7.6891   16.0102 C   0  0  0  0  0  0  0  0  0  0  0  0
    4.8690   -7.4380   26.4151 C   0  0  0  0  0  0  0  0  0  0  0  0
    2.3021   -5.6726   26.0378 C   0  0  0  0  0  0  0  0  0  0  0  0
    7.0880   -4.6163   27.0010 C   0  0  0  0  0  0  0  0  0  0  0  0
    8.3117   -4.3698   27.4436 C   0  0  0  0  0  0  0  0  0  0  0  0
    1.1339   -5.0515   26.3541 C   0  0  0  0  0  0  0  0  0  0  0  0
    4.8080   -8.0362   16.7101 C   0  0  0  0  0  0  0  0  0  0  0  0
   -1.2173   -3.9294   26.9717 O   0  0  0  0  0  0  0  0  0  0  0  0
   -1.0025   -5.0942   27.4586 C   0  0  0  0  0  0  0  0  0  0  0  0
    2.2474   -8.9123   16.6273 C   0  0  0  0  0  0  0  0  0  0  0  0
    4.4957   -9.2636   17.3041 C   0  0  0  0  0  0  0  0  0  0  0  0
   -1.8070   -5.6086   28.1920 O   0  0  0  0  0  0  0  0  0  0  0  0
   10.4296   -5.1799   28.3140 C   0  0  0  0  0  0  0  0  0  0  0  0
    6.6017   -5.9004   26.9187 C   0  0  0  0  0  0  0  0  0  0  0  0
    2.4761   -6.9940   26.4111 N   0  0  0  0  0  0  0  0  0  0  0  0
    9.1353   -5.4053   27.8239 C   0  0  0  0  0  0  0  0  0  0  0  0
    0.9922   -9.3232   16.5995 O   0  0  0  0  0  0  0  0  0  0  0  0
    1.5232   -7.6869   27.1182 C   0  0  0  0  0  0  0  0  0  0  0  0
    8.6878   -6.6715   27.7262 N   0  0  0  0  0  0  0  0  0  0  0  0
    6.9911   -8.2423   27.1808 C   0  0  0  0  0  0  0  0  0  0  0  0
    3.8436   -7.2758   16.0578 C   0  0  0  0  0  0  0  0  0  0  0  0
    3.1882   -9.7190   17.2566 C   0  0  0  0  0  0  0  0  0  0  0  0
    5.3488   -6.1737   26.5092 C   0  0  0  0  0  0  0  0  0  0  0  0
    7.4567   -6.9464   27.2858 C   0  0  0  0  0  0  0  0  0  0  0  0
    0.1921   -5.7592   27.1123 C   0  0  0  0  0  0  0  0  0  0  0  0
    3.5517   -7.7407   25.9711 C   0  0  0  0  0  0  0  0  0  0  0  0
  1  4  4  0
  1 22  4  0
  2 20  4  0
  2 27  4  0
  3 12  4  0
  3 23  4  0
  4 25  4  0
  4 28  1  0
  5  8  4  0
  5 17  4  0
  6  7  4  0
  6 16  4  0
  7 18  4  0
  8 27  4  0
  9 13  4  0
  9 23  4  0
 10 11  1  0
 11 14  2  0
 11 27  1  0
 12 19  1  0
 12 24  4  0
 13 24  4  0
 15 18  1  0
 16 25  4  0
 16 26  4  0
 17 20  4  0
 17 28  1  0
 18 21  4  0
 21 26  4  0
 22 26  4  0
M  END
$$$$

 Created by Python create_sdf_string function

 28 30  0  0  0  0  0  0  0  0999 V2000
    5.7174   -8.4529   26.7190 C   0  0  0  0  0  0  0  0  0  0  0  0
    0.3974   -7.0711   27.5149 C   0  0  0  0  0  0  0  0  0  0  0  0
    2.5338   -7.6891   16.0102 C   0  0  0  0  0  0  0  0  0  0  0  0
    4.8690   -7.4380   26.4151 C   0  0  0  0  0  0  0  0  0  0  0  0
    2.3021   -5.6726   26.0378 C   0  0  0  0  0  0  0  0  0  0  0  0
    7.0880   -4.6163   27.0010 C   0  0  0  0  0  0  0  0  0  0  0  0
    8.3117   -4.3698   27.4436 C   0  0  0  0  0  0  0  0  0  0  0  0
    1.1339   -5.0515   26.3541 C   0  0  0  0  0  0  0  0  0  0  0  0
    4.8080   -8.0362   16.7101 C   0  0  0  0  0  0  0  0  0  0  0  0
   -1.2173   -3.9294   26.9717 O   0  0  0  0  0  0  0  0  0  0  0  0
   -1.0025   -5.0942   27.4586 C   0  0  0  0  0  0  0  0  0  0  0  0
    2.2474   -8.9123   16.6273 C   0  0  0  0  0  0  0  0  0  0  0  0
    4.4957   -9.2636   17.3041 C   0  0  0  0  0  0  0  0  0  0  0  0
   -1.8070   -5.6086   28.1920 O   0  0  0  0  0  0  0  0  0  0  0  0
   10.4296   -5.1799   28.3140 C   0  0  0  0  0  0  0  0  0  0  0  0
    6.6017   -5.9004   26.9187 C   0  0  0  0  0  0  0  0  0  0  0  0
    2.4761   -6.9940   26.4111 N   0  0  0  0  0  0  0  0  0  0  0  0
    9.1353   -5.4053   27.8239 C   0  0  0  0  0  0  0  0  0  0  0  0
    0.9922   -9.3232   16.5995 O   0  0  0  0  0  0  0  0  0  0  0  0
    1.5232   -7.6869   27.1182 C   0  0  0  0  0  0  0  0  0  0  0  0
    8.6878   -6.6715   27.7262 N   0  0  0  0  0  0  0  0  0  0  0  0
    6.9911   -8.2423   27.1808 C   0  0  0  0  0  0  0  0  0  0  0  0
    3.8436   -7.2758   16.0578 C   0  0  0  0  0  0  0  0  0  0  0  0
    3.1882   -9.7190   17.2566 C   0  0  0  0  0  0  0  0  0  0  0  0
    5.3488   -6.1737   26.5092 C   0  0  0  0  0  0  0  0  0  0  0  0
    7.4567   -6.9464   27.2858 C   0  0  0  0  0  0  0  0  0  0  0  0
    0.1921   -5.7592   27.1123 C   0  0  0  0  0  0  0  0  0  0  0  0
    3.5517   -7.7407   25.9711 C   0  0  0  0  0  0  0  0  0  0  0  0
  1  4  4  0
  1 22  4  0
  2 20  4  0
  2 27  4  0
  3 12  4  0
  3 23  4  0
  4 25  4  0
  4 28  1  0
  5  8  4  0
  5 17  4  0
  6  7  4  0
  6 16  4  0
  7 18  4  0
  8 27  4  0
  9 13  4  0
  9 23  4  0
 10 11  1  0
 11 14  2  0
 11 27  1  0
 12 19  1  0
 12 24  4  0
 13 24  4  0
 15 18  1  0
 16 25  4  0
 16 26  4  0
 17 20  4  0
 17 28  1  0
 18 21  4  0
 21 26  4  0
 22 26  4  0
M  END
$$$$

 Created by Python create_sdf_string function

 28 30  0  0  0  0  0  0  0  0999 V2000
    5.7174   -8.4529   26.7190 C   0  0  0  0  0  0  0  0  0  0  0  0
    0.3974   -7.0711   27.5149 C   0  0  0  0  0  0  0  0  0  0  0  0
    2.5338   -7.6891   16.0102 C   0  0  0  0  0  0  0  0  0  0  0  0
    4.8690   -7.4380   26.4151 C   0  0  0  0  0  0  0  0  0  0  0  0
    2.3021   -5.6726   26.0378 C   0  0  0  0  0  0  0  0  0  0  0  0
    7.0880   -4.6163   27.0010 C   0  0  0  0  0  0  0  0  0  0  0  0
    8.3117   -4.3698   27.4436 C   0  0  0  0  0  0  0  0  0  0  0  0
    1.1339   -5.0515   26.3541 C   0  0  0  0  0  0  0  0  0  0  0  0
    4.8080   -8.0362   16.7101 C   0  0  0  0  0  0  0  0  0  0  0  0
   -1.2173   -3.9294   26.9717 O   0  0  0  0  0  0  0  0  0  0  0  0
   -1.0025   -5.0942   27.4586 C   0  0  0  0  0  0  0  0  0  0  0  0
    2.2474   -8.9123   16.6273 C   0  0  0  0  0  0  0  0  0  0  0  0
    4.4957   -9.2636   17.3041 C   0  0  0  0  0  0  0  0  0  0  0  0
   -1.8070   -5.6086   28.1920 O   0  0  0  0  0  0  0  0  0  0  0  0
   10.4296   -5.1799   28.3140 C   0  0  0  0  0  0  0  0  0  0  0  0
    6.6017   -5.9004   26.9187 C   0  0  0  0  0  0  0  0  0  0  0  0
    2.4761   -6.9940   26.4111 N   0  0  0  0  0  0  0  0  0  0  0  0
    9.1353   -5.4053   27.8239 C   0  0  0  0  0  0  0  0  0  0  0  0
    0.9922   -9.3232   16.5995 O   0  0  0  0  0  0  0  0  0  0  0  0
    1.5232   -7.6869   27.1182 C   0  0  0  0  0  0  0  0  0  0  0  0
    8.6878   -6.6715   27.7262 N   0  0  0  0  0  0  0  0  0  0  0  0
    6.9911   -8.2423   27.1808 C   0  0  0  0  0  0  0  0  0  0  0  0
    3.8436   -7.2758   16.0578 C   0  0  0  0  0  0  0  0  0  0  0  0
    3.1882   -9.7190   17.2566 C   0  0  0  0  0  0  0  0  0  0  0  0
    5.3488   -6.1737   26.5092 C   0  0  0  0  0  0  0  0  0  0  0  0
    7.4567   -6.9464   27.2858 C   0  0  0  0  0  0  0  0  0  0  0  0
    0.1921   -5.7592   27.1123 C   0  0  0  0  0  0  0  0  0  0  0  0
    3.5517   -7.7407   25.9711 C   0  0  0  0  0  0  0  0  0  0  0  0
  1  4  4  0
  1 22  4  0
  2 20  4  0
  2 27  4  0
  3 12  4  0
  3 23  4  0
  4 25  4  0
  4 28  1  0
  5  8  4  0
  5 17  4  0
  6  7  4  0
  6 16  4  0
  7 18  4  0
  8 27  4  0
  9 13  4  0
  9 23  4  0
 10 11  1  0
 11 14  2  0
 11 27  1  0
 12 19  1  0
 12 24  4  0
 13 24  4  0
 15 18  1  0
 16 25  4  0
 16 26  4  0
 17 20  4  0
 17 28  1  0
 18 21  4  0
 21 26  4  0
 22 26  4  0
M  END
$$$$

 Created by Python create_sdf_string function

 28 30  0  0  0  0  0  0  0  0999 V2000
    5.7174   -8.4529   26.7190 C   0  0  0  0  0  0  0  0  0  0  0  0
    0.3974   -7.0711   27.5149 C   0  0  0  0  0  0  0  0  0  0  0  0
    2.5338   -7.6891   16.0102 C   0  0  0  0  0  0  0  0  0  0  0  0
    4.8690   -7.4380   26.4151 C   0  0  0  0  0  0  0  0  0  0  0  0
    2.3021   -5.6726   26.0378 C   0  0  0  0  0  0  0  0  0  0  0  0
    7.0880   -4.6163   27.0010 C   0  0  0  0  0  0  0  0  0  0  0  0
    8.3117   -4.3698   27.4436 C   0  0  0  0  0  0  0  0  0  0  0  0
    1.1339   -5.0515   26.3541 C   0  0  0  0  0  0  0  0  0  0  0  0
    4.8080   -8.0362   16.7101 C   0  0  0  0  0  0  0  0  0  0  0  0
   -1.2173   -3.9294   26.9717 O   0  0  0  0  0  0  0  0  0  0  0  0
   -1.0025   -5.0942   27.4586 C   0  0  0  0  0  0  0  0  0  0  0  0
    2.2474   -8.9123   16.6273 C   0  0  0  0  0  0  0  0  0  0  0  0
    4.4957   -9.2636   17.3041 C   0  0  0  0  0  0  0  0  0  0  0  0
   -1.8070   -5.6086   28.1920 O   0  0  0  0  0  0  0  0  0  0  0  0
   10.4296   -5.1799   28.3140 C   0  0  0  0  0  0  0  0  0  0  0  0
    6.6017   -5.9004   26.9187 C   0  0  0  0  0  0  0  0  0  0  0  0
    2.4761   -6.9940   26.4111 N   0  0  0  0  0  0  0  0  0  0  0  0
    9.1353   -5.4053   27.8239 C   0  0  0  0  0  0  0  0  0  0  0  0
    0.9922   -9.3232   16.5995 O   0  0  0  0  0  0  0  0  0  0  0  0
    1.5232   -7.6869   27.1182 C   0  0  0  0  0  0  0  0  0  0  0  0
    8.6878   -6.6715   27.7262 N   0  0  0  0  0  0  0  0  0  0  0  0
    6.9911   -8.2423   27.1808 C   0  0  0  0  0  0  0  0  0  0  0  0
    3.8436   -7.2758   16.0578 C   0  0  0  0  0  0  0  0  0  0  0  0
    3.1882   -9.7190   17.2566 C   0  0  0  0  0  0  0  0  0  0  0  0
    5.3488   -6.1737   26.5092 C   0  0  0  0  0  0  0  0  0  0  0  0
    7.4567   -6.9464   27.2858 C   0  0  0  0  0  0  0  0  0  0  0  0
    0.1921   -5.7592   27.1123 C   0  0  0  0  0  0  0  0  0  0  0  0
    3.5517   -7.7407   25.9711 C   0  0  0  0  0  0  0  0  0  0  0  0
  1  4  4  0
  1 22  4  0
  2 20  4  0
  2 27  4  0
  3 12  4  0
  3 23  4  0
  4 25  4  0
  4 28  1  0
  5  8  4  0
  5 17  4  0
  6  7  4  0
  6 16  4  0
  7 18  4  0
  8 27  4  0
  9 13  4  0
  9 23  4  0
 10 11  1  0
 11 14  2  0
 11 27  1  0
 12 19  1  0
 12 24  4  0
 13 24  4  0
 15 18  1  0
 16 25  4  0
 16 26  4  0
 17 20  4  0
 17 28  1  0
 18 21  4  0
 21 26  4  0
 22 26  4  0
M  END
$$$$

 Created by Python create_sdf_string function

 28 30  0  0  0  0  0  0  0  0999 V2000
    5.7174   -8.4529   26.7190 C   0  0  0  0  0  0  0  0  0  0  0  0
    0.3974   -7.0711   27.5149 C   0  0  0  0  0  0  0  0  0  0  0  0
    2.5338   -7.6891   16.0102 C   0  0  0  0  0  0  0  0  0  0  0  0
    4.8690   -7.4380   26.4151 C   0  0  0  0  0  0  0  0  0  0  0  0
    2.3021   -5.6726   26.0378 C   0  0  0  0  0  0  0  0  0  0  0  0
    7.0880   -4.6163   27.0010 C   0  0  0  0  0  0  0  0  0  0  0  0
    8.3117   -4.3698   27.4436 C   0  0  0  0  0  0  0  0  0  0  0  0
    1.1339   -5.0515   26.3541 C   0  0  0  0  0  0  0  0  0  0  0  0
    4.8080   -8.0362   16.7101 C   0  0  0  0  0  0  0  0  0  0  0  0
   -1.2173   -3.9294   26.9717 O   0  0  0  0  0  0  0  0  0  0  0  0
   -1.0025   -5.0942   27.4586 C   0  0  0  0  0  0  0  0  0  0  0  0
    2.2474   -8.9123   16.6273 C   0  0  0  0  0  0  0  0  0  0  0  0
    4.4957   -9.2636   17.3041 C   0  0  0  0  0  0  0  0  0  0  0  0
   -1.8070   -5.6086   28.1920 O   0  0  0  0  0  0  0  0  0  0  0  0
   10.4296   -5.1799   28.3140 C   0  0  0  0  0  0  0  0  0  0  0  0
    6.6017   -5.9004   26.9187 C   0  0  0  0  0  0  0  0  0  0  0  0
    2.4761   -6.9940   26.4111 N   0  0  0  0  0  0  0  0  0  0  0  0
    9.1353   -5.4053   27.8239 C   0  0  0  0  0  0  0  0  0  0  0  0
    0.9922   -9.3232   16.5995 O   0  0  0  0  0  0  0  0  0  0  0  0
    1.5232   -7.6869   27.1182 C   0  0  0  0  0  0  0  0  0  0  0  0
    8.6878   -6.6715   27.7262 N   0  0  0  0  0  0  0  0  0  0  0  0
    6.9911   -8.2423   27.1808 C   0  0  0  0  0  0  0  0  0  0  0  0
    3.8436   -7.2758   16.0578 C   0  0  0  0  0  0  0  0  0  0  0  0
    3.1882   -9.7190   17.2566 C   0  0  0  0  0  0  0  0  0  0  0  0
    5.3488   -6.1737   26.5092 C   0  0  0  0  0  0  0  0  0  0  0  0
    7.4567   -6.9464   27.2858 C   0  0  0  0  0  0  0  0  0  0  0  0
    0.1921   -5.7592   27.1123 C   0  0  0  0  0  0  0  0  0  0  0  0
    3.5517   -7.7407   25.9711 C   0  0  0  0  0  0  0  0  0  0  0  0
  1  4  4  0
  1 22  4  0
  2 20  4  0
  2 27  4  0
  3 12  4  0
  3 23  4  0
  4 25  4  0
  4 28  1  0
  5  8  4  0
  5 17  4  0
  6  7  4  0
  6 16  4  0
  7 18  4  0
  8 27  4  0
  9 13  4  0
  9 23  4  0
 10 11  1  0
 11 14  2  0
 11 27  1  0
 12 19  1  0
 12 24  4  0
 13 24  4  0
 15 18  1  0
 16 25  4  0
 16 26  4  0
 17 20  4  0
 17 28  1  0
 18 21  4  0
 21 26  4  0
 22 26  4  0
M  END
$$$$

 Created by Python create_sdf_string function

 28 30  0  0  0  0  0  0  0  0999 V2000
    5.7174   -8.4529   26.7190 C   0  0  0  0  0  0  0  0  0  0  0  0
    0.3974   -7.0711   27.5149 C   0  0  0  0  0  0  0  0  0  0  0  0
    2.5338   -7.6891   16.0102 C   0  0  0  0  0  0  0  0  0  0  0  0
    4.8690   -7.4380   26.4151 C   0  0  0  0  0  0  0  0  0  0  0  0
    2.3021   -5.6726   26.0378 C   0  0  0  0  0  0  0  0  0  0  0  0
    7.0880   -4.6163   27.0010 C   0  0  0  0  0  0  0  0  0  0  0  0
    8.3117   -4.3698   27.4436 C   0  0  0  0  0  0  0  0  0  0  0  0
    1.1339   -5.0515   26.3541 C   0  0  0  0  0  0  0  0  0  0  0  0
    4.8080   -8.0362   16.7101 C   0  0  0  0  0  0  0  0  0  0  0  0
   -1.2173   -3.9294   26.9717 O   0  0  0  0  0  0  0  0  0  0  0  0
   -1.0025   -5.0942   27.4586 C   0  0  0  0  0  0  0  0  0  0  0  0
    2.2474   -8.9123   16.6273 C   0  0  0  0  0  0  0  0  0  0  0  0
    4.4957   -9.2636   17.3041 C   0  0  0  0  0  0  0  0  0  0  0  0
   -1.8070   -5.6086   28.1920 O   0  0  0  0  0  0  0  0  0  0  0  0
   10.4296   -5.1799   28.3140 C   0  0  0  0  0  0  0  0  0  0  0  0
    6.6017   -5.9004   26.9187 C   0  0  0  0  0  0  0  0  0  0  0  0
    2.4761   -6.9940   26.4111 N   0  0  0  0  0  0  0  0  0  0  0  0
    9.1353   -5.4053   27.8239 C   0  0  0  0  0  0  0  0  0  0  0  0
    0.9922   -9.3232   16.5995 O   0  0  0  0  0  0  0  0  0  0  0  0
    1.5232   -7.6869   27.1182 C   0  0  0  0  0  0  0  0  0  0  0  0
    8.6878   -6.6715   27.7262 N   0  0  0  0  0  0  0  0  0  0  0  0
    6.9911   -8.2423   27.1808 C   0  0  0  0  0  0  0  0  0  0  0  0
    3.8436   -7.2758   16.0578 C   0  0  0  0  0  0  0  0  0  0  0  0
    3.1882   -9.7190   17.2566 C   0  0  0  0  0  0  0  0  0  0  0  0
    5.3488   -6.1737   26.5092 C   0  0  0  0  0  0  0  0  0  0  0  0
    7.4567   -6.9464   27.2858 C   0  0  0  0  0  0  0  0  0  0  0  0
    0.1921   -5.7592   27.1123 C   0  0  0  0  0  0  0  0  0  0  0  0
    3.5517   -7.7407   25.9711 C   0  0  0  0  0  0  0  0  0  0  0  0
  1  4  4  0
  1 22  4  0
  2 20  4  0
  2 27  4  0
  3 12  4  0
  3 23  4  0
  4 25  4  0
  4 28  1  0
  5  8  4  0
  5 17  4  0
  6  7  4  0
  6 16  4  0
  7 18  4  0
  8 27  4  0
  9 13  4  0
  9 23  4  0
 10 11  1  0
 11 14  2  0
 11 27  1  0
 12 19  1  0
 12 24  4  0
 13 24  4  0
 15 18  1  0
 16 25  4  0
 16 26  4  0
 17 20  4  0
 17 28  1  0
 18 21  4  0
 21 26  4  0
 22 26  4  0
M  END
$$$$

 Created by Python create_sdf_string function

 28 30  0  0  0  0  0  0  0  0999 V2000
    5.7174   -8.4529   26.7190 C   0  0  0  0  0  0  0  0  0  0  0  0
    0.3974   -7.0711   27.5149 C   0  0  0  0  0  0  0  0  0  0  0  0
    2.5338   -7.6891   16.0102 C   0  0  0  0  0  0  0  0  0  0  0  0
    4.8690   -7.4380   26.4151 C   0  0  0  0  0  0  0  0  0  0  0  0
    2.3021   -5.6726   26.0378 C   0  0  0  0  0  0  0  0  0  0  0  0
    7.0880   -4.6163   27.0010 C   0  0  0  0  0  0  0  0  0  0  0  0
    8.3117   -4.3698   27.4436 C   0  0  0  0  0  0  0  0  0  0  0  0
    1.1339   -5.0515   26.3541 C   0  0  0  0  0  0  0  0  0  0  0  0
    4.8080   -8.0362   16.7101 C   0  0  0  0  0  0  0  0  0  0  0  0
   -1.2173   -3.9294   26.9717 O   0  0  0  0  0  0  0  0  0  0  0  0
   -1.0025   -5.0942   27.4586 C   0  0  0  0  0  0  0  0  0  0  0  0
    2.2474   -8.9123   16.6273 C   0  0  0  0  0  0  0  0  0  0  0  0
    4.4957   -9.2636   17.3041 C   0  0  0  0  0  0  0  0  0  0  0  0
   -1.8070   -5.6086   28.1920 O   0  0  0  0  0  0  0  0  0  0  0  0
   10.4296   -5.1799   28.3140 C   0  0  0  0  0  0  0  0  0  0  0  0
    6.6017   -5.9004   26.9187 C   0  0  0  0  0  0  0  0  0  0  0  0
    2.4761   -6.9940   26.4111 N   0  0  0  0  0  0  0  0  0  0  0  0
    9.1353   -5.4053   27.8239 C   0  0  0  0  0  0  0  0  0  0  0  0
    0.9922   -9.3232   16.5995 O   0  0  0  0  0  0  0  0  0  0  0  0
    1.5232   -7.6869   27.1182 C   0  0  0  0  0  0  0  0  0  0  0  0
    8.6878   -6.6715   27.7262 N   0  0  0  0  0  0  0  0  0  0  0  0
    6.9911   -8.2423   27.1808 C   0  0  0  0  0  0  0  0  0  0  0  0
    3.8436   -7.2758   16.0578 C   0  0  0  0  0  0  0  0  0  0  0  0
    3.1882   -9.7190   17.2566 C   0  0  0  0  0  0  0  0  0  0  0  0
    5.3488   -6.1737   26.5092 C   0  0  0  0  0  0  0  0  0  0  0  0
    7.4567   -6.9464   27.2858 C   0  0  0  0  0  0  0  0  0  0  0  0
    0.1921   -5.7592   27.1123 C   0  0  0  0  0  0  0  0  0  0  0  0
    3.5517   -7.7407   25.9711 C   0  0  0  0  0  0  0  0  0  0  0  0
  1  4  4  0
  1 22  4  0
  2 20  4  0
  2 27  4  0
  3 12  4  0
  3 23  4  0
  4 25  4  0
  4 28  1  0
  5  8  4  0
  5 17  4  0
  6  7  4  0
  6 16  4  0
  7 18  4  0
  8 27  4  0
  9 13  4  0
  9 23  4  0
 10 11  1  0
 11 14  2  0
 11 27  1  0
 12 19  1  0
 12 24  4  0
 13 24  4  0
 15 18  1  0
 16 25  4  0
 16 26  4  0
 17 20  4  0
 17 28  1  0
 18 21  4  0
 21 26  4  0
 22 26  4  0
M  END
$$$$

 Created by Python create_sdf_string function

 28 30  0  0  0  0  0  0  0  0999 V2000
    5.7174   -8.4529   26.7190 C   0  0  0  0  0  0  0  0  0  0  0  0
    0.3974   -7.0711   27.5149 C   0  0  0  0  0  0  0  0  0  0  0  0
    2.5338   -7.6891   16.0102 C   0  0  0  0  0  0  0  0  0  0  0  0
    4.8690   -7.4380   26.4151 C   0  0  0  0  0  0  0  0  0  0  0  0
    2.3021   -5.6726   26.0378 C   0  0  0  0  0  0  0  0  0  0  0  0
    7.0880   -4.6163   27.0010 C   0  0  0  0  0  0  0  0  0  0  0  0
    8.3117   -4.3698   27.4436 C   0  0  0  0  0  0  0  0  0  0  0  0
    1.1339   -5.0515   26.3541 C   0  0  0  0  0  0  0  0  0  0  0  0
    4.8080   -8.0362   16.7101 C   0  0  0  0  0  0  0  0  0  0  0  0
   -1.2173   -3.9294   26.9717 O   0  0  0  0  0  0  0  0  0  0  0  0
   -1.0025   -5.0942   27.4586 C   0  0  0  0  0  0  0  0  0  0  0  0
    2.2474   -8.9123   16.6273 C   0  0  0  0  0  0  0  0  0  0  0  0
    4.4957   -9.2636   17.3041 C   0  0  0  0  0  0  0  0  0  0  0  0
   -1.8070   -5.6086   28.1920 O   0  0  0  0  0  0  0  0  0  0  0  0
   10.4296   -5.1799   28.3140 C   0  0  0  0  0  0  0  0  0  0  0  0
    6.6017   -5.9004   26.9187 C   0  0  0  0  0  0  0  0  0  0  0  0
    2.4761   -6.9940   26.4111 N   0  0  0  0  0  0  0  0  0  0  0  0
    9.1353   -5.4053   27.8239 C   0  0  0  0  0  0  0  0  0  0  0  0
    0.9922   -9.3232   16.5995 O   0  0  0  0  0  0  0  0  0  0  0  0
    1.5232   -7.6869   27.1182 C   0  0  0  0  0  0  0  0  0  0  0  0
    8.6878   -6.6715   27.7262 N   0  0  0  0  0  0  0  0  0  0  0  0
    6.9911   -8.2423   27.1808 C   0  0  0  0  0  0  0  0  0  0  0  0
    3.8436   -7.2758   16.0578 C   0  0  0  0  0  0  0  0  0  0  0  0
    3.1882   -9.7190   17.2566 C   0  0  0  0  0  0  0  0  0  0  0  0
    5.3488   -6.1737   26.5092 C   0  0  0  0  0  0  0  0  0  0  0  0
    7.4567   -6.9464   27.2858 C   0  0  0  0  0  0  0  0  0  0  0  0
    0.1921   -5.7592   27.1123 C   0  0  0  0  0  0  0  0  0  0  0  0
    3.5517   -7.7407   25.9711 C   0  0  0  0  0  0  0  0  0  0  0  0
  1  4  4  0
  1 22  4  0
  2 20  4  0
  2 27  4  0
  3 12  4  0
  3 23  4  0
  4 25  4  0
  4 28  1  0
  5  8  4  0
  5 17  4  0
  6  7  4  0
  6 16  4  0
  7 18  4  0
  8 27  4  0
  9 13  4  0
  9 23  4  0
 10 11  1  0
 11 14  2  0
 11 27  1  0
 12 19  1  0
 12 24  4  0
 13 24  4  0
 15 18  1  0
 16 25  4  0
 16 26  4  0
 17 20  4  0
 17 28  1  0
 18 21  4  0
 21 26  4  0
 22 26  4  0
M  END
$$$$

 Created by Python create_sdf_string function

 28 30  0  0  0  0  0  0  0  0999 V2000
    5.7174   -8.4529   26.7190 C   0  0  0  0  0  0  0  0  0  0  0  0
    0.3974   -7.0711   27.5149 C   0  0  0  0  0  0  0  0  0  0  0  0
    2.5338   -7.6891   16.0102 C   0  0  0  0  0  0  0  0  0  0  0  0
    4.8690   -7.4380   26.4151 C   0  0  0  0  0  0  0  0  0  0  0  0
    2.3021   -5.6726   26.0378 C   0  0  0  0  0  0  0  0  0  0  0  0
    7.0880   -4.6163   27.0010 C   0  0  0  0  0  0  0  0  0  0  0  0
    8.3117   -4.3698   27.4436 C   0  0  0  0  0  0  0  0  0  0  0  0
    1.1339   -5.0515   26.3541 C   0  0  0  0  0  0  0  0  0  0  0  0
    4.8080   -8.0362   16.7101 C   0  0  0  0  0  0  0  0  0  0  0  0
   -1.2173   -3.9294   26.9717 O   0  0  0  0  0  0  0  0  0  0  0  0
   -1.0025   -5.0942   27.4586 C   0  0  0  0  0  0  0  0  0  0  0  0
    2.2474   -8.9123   16.6273 C   0  0  0  0  0  0  0  0  0  0  0  0
    4.4957   -9.2636   17.3041 C   0  0  0  0  0  0  0  0  0  0  0  0
   -1.8070   -5.6086   28.1920 O   0  0  0  0  0  0  0  0  0  0  0  0
   10.4296   -5.1799   28.3140 C   0  0  0  0  0  0  0  0  0  0  0  0
    6.6017   -5.9004   26.9187 C   0  0  0  0  0  0  0  0  0  0  0  0
    2.4761   -6.9940   26.4111 N   0  0  0  0  0  0  0  0  0  0  0  0
    9.1353   -5.4053   27.8239 C   0  0  0  0  0  0  0  0  0  0  0  0
    0.9922   -9.3232   16.5995 O   0  0  0  0  0  0  0  0  0  0  0  0
    1.5232   -7.6869   27.1182 C   0  0  0  0  0  0  0  0  0  0  0  0
    8.6878   -6.6715   27.7262 N   0  0  0  0  0  0  0  0  0  0  0  0
    6.9911   -8.2423   27.1808 C   0  0  0  0  0  0  0  0  0  0  0  0
    3.8436   -7.2758   16.0578 C   0  0  0  0  0  0  0  0  0  0  0  0
    3.1882   -9.7190   17.2566 C   0  0  0  0  0  0  0  0  0  0  0  0
    5.3488   -6.1737   26.5092 C   0  0  0  0  0  0  0  0  0  0  0  0
    7.4567   -6.9464   27.2858 C   0  0  0  0  0  0  0  0  0  0  0  0
    0.1921   -5.7592   27.1123 C   0  0  0  0  0  0  0  0  0  0  0  0
    3.5517   -7.7407   25.9711 C   0  0  0  0  0  0  0  0  0  0  0  0
  1  4  4  0
  1 22  4  0
  2 20  4  0
  2 27  4  0
  3 12  4  0
  3 23  4  0
  4 25  4  0
  4 28  1  0
  5  8  4  0
  5 17  4  0
  6  7  4  0
  6 16  4  0
  7 18  4  0
  8 27  4  0
  9 13  4  0
  9 23  4  0
 10 11  1  0
 11 14  2  0
 11 27  1  0
 12 19  1  0
 12 24  4  0
 13 24  4  0
 15 18  1  0
 16 25  4  0
 16 26  4  0
 17 20  4  0
 17 28  1  0
 18 21  4  0
 21 26  4  0
 22 26  4  0
M  END
$$$$

 Created by Python create_sdf_string function

 28 30  0  0  0  0  0  0  0  0999 V2000
    5.7174   -8.4529   26.7190 C   0  0  0  0  0  0  0  0  0  0  0  0
    0.3974   -7.0711   27.5149 C   0  0  0  0  0  0  0  0  0  0  0  0
    2.5338   -7.6891   16.0102 C   0  0  0  0  0  0  0  0  0  0  0  0
    4.8690   -7.4380   26.4151 C   0  0  0  0  0  0  0  0  0  0  0  0
    2.3021   -5.6726   26.0378 C   0  0  0  0  0  0  0  0  0  0  0  0
    7.0880   -4.6163   27.0010 C   0  0  0  0  0  0  0  0  0  0  0  0
    8.3117   -4.3698   27.4436 C   0  0  0  0  0  0  0  0  0  0  0  0
    1.1339   -5.0515   26.3541 C   0  0  0  0  0  0  0  0  0  0  0  0
    4.8080   -8.0362   16.7101 C   0  0  0  0  0  0  0  0  0  0  0  0
   -1.2173   -3.9294   26.9717 O   0  0  0  0  0  0  0  0  0  0  0  0
   -1.0025   -5.0942   27.4586 C   0  0  0  0  0  0  0  0  0  0  0  0
    2.2474   -8.9123   16.6273 C   0  0  0  0  0  0  0  0  0  0  0  0
    4.4957   -9.2636   17.3041 C   0  0  0  0  0  0  0  0  0  0  0  0
   -1.8070   -5.6086   28.1920 O   0  0  0  0  0  0  0  0  0  0  0  0
   10.4296   -5.1799   28.3140 C   0  0  0  0  0  0  0  0  0  0  0  0
    6.6017   -5.9004   26.9187 C   0  0  0  0  0  0  0  0  0  0  0  0
    2.4761   -6.9940   26.4111 N   0  0  0  0  0  0  0  0  0  0  0  0
    9.1353   -5.4053   27.8239 C   0  0  0  0  0  0  0  0  0  0  0  0
    0.9922   -9.3232   16.5995 O   0  0  0  0  0  0  0  0  0  0  0  0
    1.5232   -7.6869   27.1182 C   0  0  0  0  0  0  0  0  0  0  0  0
    8.6878   -6.6715   27.7262 N   0  0  0  0  0  0  0  0  0  0  0  0
    6.9911   -8.2423   27.1808 C   0  0  0  0  0  0  0  0  0  0  0  0
    3.8436   -7.2758   16.0578 C   0  0  0  0  0  0  0  0  0  0  0  0
    3.1882   -9.7190   17.2566 C   0  0  0  0  0  0  0  0  0  0  0  0
    5.3488   -6.1737   26.5092 C   0  0  0  0  0  0  0  0  0  0  0  0
    7.4567   -6.9464   27.2858 C   0  0  0  0  0  0  0  0  0  0  0  0
    0.1921   -5.7592   27.1123 C   0  0  0  0  0  0  0  0  0  0  0  0
    3.5517   -7.7407   25.9711 C   0  0  0  0  0  0  0  0  0  0  0  0
  1  4  4  0
  1 22  4  0
  2 20  4  0
  2 27  4  0
  3 12  4  0
  3 23  4  0
  4 25  4  0
  4 28  1  0
  5  8  4  0
  5 17  4  0
  6  7  4  0
  6 16  4  0
  7 18  4  0
  8 27  4  0
  9 13  4  0
  9 23  4  0
 10 11  1  0
 11 14  2  0
 11 27  1  0
 12 19  1  0
 12 24  4  0
 13 24  4  0
 15 18  1  0
 16 25  4  0
 16 26  4  0
 17 20  4  0
 17 28  1  0
 18 21  4  0
 21 26  4  0
 22 26  4  0
M  END
$$$$

 Created by Python create_sdf_string function

 28 30  0  0  0  0  0  0  0  0999 V2000
    5.7174   -8.4529   26.7190 C   0  0  0  0  0  0  0  0  0  0  0  0
    0.3974   -7.0711   27.5149 C   0  0  0  0  0  0  0  0  0  0  0  0
    2.5338   -7.6891   16.0102 C   0  0  0  0  0  0  0  0  0  0  0  0
    4.8690   -7.4380   26.4151 C   0  0  0  0  0  0  0  0  0  0  0  0
    2.3021   -5.6726   26.0378 C   0  0  0  0  0  0  0  0  0  0  0  0
    7.0880   -4.6163   27.0010 C   0  0  0  0  0  0  0  0  0  0  0  0
    8.3117   -4.3698   27.4436 C   0  0  0  0  0  0  0  0  0  0  0  0
    1.1339   -5.0515   26.3541 C   0  0  0  0  0  0  0  0  0  0  0  0
    4.8080   -8.0362   16.7101 C   0  0  0  0  0  0  0  0  0  0  0  0
   -1.2173   -3.9294   26.9717 O   0  0  0  0  0  0  0  0  0  0  0  0
   -1.0025   -5.0942   27.4586 C   0  0  0  0  0  0  0  0  0  0  0  0
    2.2474   -8.9123   16.6273 C   0  0  0  0  0  0  0  0  0  0  0  0
    4.4957   -9.2636   17.3041 C   0  0  0  0  0  0  0  0  0  0  0  0
   -1.8070   -5.6086   28.1920 O   0  0  0  0  0  0  0  0  0  0  0  0
   10.4296   -5.1799   28.3140 C   0  0  0  0  0  0  0  0  0  0  0  0
    6.6017   -5.9004   26.9187 C   0  0  0  0  0  0  0  0  0  0  0  0
    2.4761   -6.9940   26.4111 N   0  0  0  0  0  0  0  0  0  0  0  0
    9.1353   -5.4053   27.8239 C   0  0  0  0  0  0  0  0  0  0  0  0
    0.9922   -9.3232   16.5995 O   0  0  0  0  0  0  0  0  0  0  0  0
    1.5232   -7.6869   27.1182 C   0  0  0  0  0  0  0  0  0  0  0  0
    8.6878   -6.6715   27.7262 N   0  0  0  0  0  0  0  0  0  0  0  0
    6.9911   -8.2423   27.1808 C   0  0  0  0  0  0  0  0  0  0  0  0
    3.8436   -7.2758   16.0578 C   0  0  0  0  0  0  0  0  0  0  0  0
    3.1882   -9.7190   17.2566 C   0  0  0  0  0  0  0  0  0  0  0  0
    5.3488   -6.1737   26.5092 C   0  0  0  0  0  0  0  0  0  0  0  0
    7.4567   -6.9464   27.2858 C   0  0  0  0  0  0  0  0  0  0  0  0
    0.1921   -5.7592   27.1123 C   0  0  0  0  0  0  0  0  0  0  0  0
    3.5517   -7.7407   25.9711 C   0  0  0  0  0  0  0  0  0  0  0  0
  1  4  4  0
  1 22  4  0
  2 20  4  0
  2 27  4  0
  3 12  4  0
  3 23  4  0
  4 25  4  0
  4 28  1  0
  5  8  4  0
  5 17  4  0
  6  7  4  0
  6 16  4  0
  7 18  4  0
  8 27  4  0
  9 13  4  0
  9 23  4  0
 10 11  1  0
 11 14  2  0
 11 27  1  0
 12 19  1  0
 12 24  4  0
 13 24  4  0
 15 18  1  0
 16 25  4  0
 16 26  4  0
 17 20  4  0
 17 28  1  0
 18 21  4  0
 21 26  4  0
 22 26  4  0
M  END
$$$$

 Created by Python create_sdf_string function

 28 30  0  0  0  0  0  0  0  0999 V2000
    5.7174   -8.4529   26.7190 C   0  0  0  0  0  0  0  0  0  0  0  0
    0.3974   -7.0711   27.5149 C   0  0  0  0  0  0  0  0  0  0  0  0
    2.5338   -7.6891   16.0102 C   0  0  0  0  0  0  0  0  0  0  0  0
    4.8690   -7.4380   26.4151 C   0  0  0  0  0  0  0  0  0  0  0  0
    2.3021   -5.6726   26.0378 C   0  0  0  0  0  0  0  0  0  0  0  0
    7.0880   -4.6163   27.0010 C   0  0  0  0  0  0  0  0  0  0  0  0
    8.3117   -4.3698   27.4436 C   0  0  0  0  0  0  0  0  0  0  0  0
    1.1339   -5.0515   26.3541 C   0  0  0  0  0  0  0  0  0  0  0  0
    4.8080   -8.0362   16.7101 C   0  0  0  0  0  0  0  0  0  0  0  0
   -1.2173   -3.9294   26.9717 O   0  0  0  0  0  0  0  0  0  0  0  0
   -1.0025   -5.0942   27.4586 C   0  0  0  0  0  0  0  0  0  0  0  0
    2.2474   -8.9123   16.6273 C   0  0  0  0  0  0  0  0  0  0  0  0
    4.4957   -9.2636   17.3041 C   0  0  0  0  0  0  0  0  0  0  0  0
   -1.8070   -5.6086   28.1920 O   0  0  0  0  0  0  0  0  0  0  0  0
   10.4296   -5.1799   28.3140 C   0  0  0  0  0  0  0  0  0  0  0  0
    6.6017   -5.9004   26.9187 C   0  0  0  0  0  0  0  0  0  0  0  0
    2.4761   -6.9940   26.4111 N   0  0  0  0  0  0  0  0  0  0  0  0
    9.1353   -5.4053   27.8239 C   0  0  0  0  0  0  0  0  0  0  0  0
    0.9922   -9.3232   16.5995 O   0  0  0  0  0  0  0  0  0  0  0  0
    1.5232   -7.6869   27.1182 C   0  0  0  0  0  0  0  0  0  0  0  0
    8.6878   -6.6715   27.7262 N   0  0  0  0  0  0  0  0  0  0  0  0
    6.9911   -8.2423   27.1808 C   0  0  0  0  0  0  0  0  0  0  0  0
    3.8436   -7.2758   16.0578 C   0  0  0  0  0  0  0  0  0  0  0  0
    3.1882   -9.7190   17.2566 C   0  0  0  0  0  0  0  0  0  0  0  0
    5.3488   -6.1737   26.5092 C   0  0  0  0  0  0  0  0  0  0  0  0
    7.4567   -6.9464   27.2858 C   0  0  0  0  0  0  0  0  0  0  0  0
    0.1921   -5.7592   27.1123 C   0  0  0  0  0  0  0  0  0  0  0  0
    3.5517   -7.7407   25.9711 C   0  0  0  0  0  0  0  0  0  0  0  0
  1  4  4  0
  1 22  4  0
  2 20  4  0
  2 27  4  0
  3 12  4  0
  3 23  4  0
  4 25  4  0
  4 28  1  0
  5  8  4  0
  5 17  4  0
  6  7  4  0
  6 16  4  0
  7 18  4  0
  8 27  4  0
  9 13  4  0
  9 23  4  0
 10 11  1  0
 11 14  2  0
 11 27  1  0
 12 19  1  0
 12 24  4  0
 13 24  4  0
 15 18  1  0
 16 25  4  0
 16 26  4  0
 17 20  4  0
 17 28  1  0
 18 21  4  0
 21 26  4  0
 22 26  4  0
M  END
$$$$

 Created by Python create_sdf_string function

 28 30  0  0  0  0  0  0  0  0999 V2000
    5.7174   -8.4529   26.7190 C   0  0  0  0  0  0  0  0  0  0  0  0
    0.3974   -7.0711   27.5149 C   0  0  0  0  0  0  0  0  0  0  0  0
    2.5338   -7.6891   16.0102 C   0  0  0  0  0  0  0  0  0  0  0  0
    4.8690   -7.4380   26.4151 C   0  0  0  0  0  0  0  0  0  0  0  0
    2.3021   -5.6726   26.0378 C   0  0  0  0  0  0  0  0  0  0  0  0
    7.0880   -4.6163   27.0010 C   0  0  0  0  0  0  0  0  0  0  0  0
    8.3117   -4.3698   27.4436 C   0  0  0  0  0  0  0  0  0  0  0  0
    1.1339   -5.0515   26.3541 C   0  0  0  0  0  0  0  0  0  0  0  0
    4.8080   -8.0362   16.7101 C   0  0  0  0  0  0  0  0  0  0  0  0
   -1.2173   -3.9294   26.9717 O   0  0  0  0  0  0  0  0  0  0  0  0
   -1.0025   -5.0942   27.4586 C   0  0  0  0  0  0  0  0  0  0  0  0
    2.2474   -8.9123   16.6273 C   0  0  0  0  0  0  0  0  0  0  0  0
    4.4957   -9.2636   17.3041 C   0  0  0  0  0  0  0  0  0  0  0  0
   -1.8070   -5.6086   28.1920 O   0  0  0  0  0  0  0  0  0  0  0  0
   10.4296   -5.1799   28.3140 C   0  0  0  0  0  0  0  0  0  0  0  0
    6.6017   -5.9004   26.9187 C   0  0  0  0  0  0  0  0  0  0  0  0
    2.4761   -6.9940   26.4111 N   0  0  0  0  0  0  0  0  0  0  0  0
    9.1353   -5.4053   27.8239 C   0  0  0  0  0  0  0  0  0  0  0  0
    0.9922   -9.3232   16.5995 O   0  0  0  0  0  0  0  0  0  0  0  0
    1.5232   -7.6869   27.1182 C   0  0  0  0  0  0  0  0  0  0  0  0
    8.6878   -6.6715   27.7262 N   0  0  0  0  0  0  0  0  0  0  0  0
    6.9911   -8.2423   27.1808 C   0  0  0  0  0  0  0  0  0  0  0  0
    3.8436   -7.2758   16.0578 C   0  0  0  0  0  0  0  0  0  0  0  0
    3.1882   -9.7190   17.2566 C   0  0  0  0  0  0  0  0  0  0  0  0
    5.3488   -6.1737   26.5092 C   0  0  0  0  0  0  0  0  0  0  0  0
    7.4567   -6.9464   27.2858 C   0  0  0  0  0  0  0  0  0  0  0  0
    0.1921   -5.7592   27.1123 C   0  0  0  0  0  0  0  0  0  0  0  0
    3.5517   -7.7407   25.9711 C   0  0  0  0  0  0  0  0  0  0  0  0
  1  4  4  0
  1 22  4  0
  2 20  4  0
  2 27  4  0
  3 12  4  0
  3 23  4  0
  4 25  4  0
  4 28  1  0
  5  8  4  0
  5 17  4  0
  6  7  4  0
  6 16  4  0
  7 18  4  0
  8 27  4  0
  9 13  4  0
  9 23  4  0
 10 11  1  0
 11 14  2  0
 11 27  1  0
 12 19  1  0
 12 24  4  0
 13 24  4  0
 15 18  1  0
 16 25  4  0
 16 26  4  0
 17 20  4  0
 17 28  1  0
 18 21  4  0
 21 26  4  0
 22 26  4  0
M  END
$$$$

 Created by Python create_sdf_string function

 28 30  0  0  0  0  0  0  0  0999 V2000
    5.7174   -8.4529   26.7190 C   0  0  0  0  0  0  0  0  0  0  0  0
    0.3974   -7.0711   27.5149 C   0  0  0  0  0  0  0  0  0  0  0  0
    2.5338   -7.6891   16.0102 C   0  0  0  0  0  0  0  0  0  0  0  0
    4.8690   -7.4380   26.4151 C   0  0  0  0  0  0  0  0  0  0  0  0
    2.3021   -5.6726   26.0378 C   0  0  0  0  0  0  0  0  0  0  0  0
    7.0880   -4.6163   27.0010 C   0  0  0  0  0  0  0  0  0  0  0  0
    8.3117   -4.3698   27.4436 C   0  0  0  0  0  0  0  0  0  0  0  0
    1.1339   -5.0515   26.3541 C   0  0  0  0  0  0  0  0  0  0  0  0
    4.8080   -8.0362   16.7101 C   0  0  0  0  0  0  0  0  0  0  0  0
   -1.2173   -3.9294   26.9717 O   0  0  0  0  0  0  0  0  0  0  0  0
   -1.0025   -5.0942   27.4586 C   0  0  0  0  0  0  0  0  0  0  0  0
    2.2474   -8.9123   16.6273 C   0  0  0  0  0  0  0  0  0  0  0  0
    4.4957   -9.2636   17.3041 C   0  0  0  0  0  0  0  0  0  0  0  0
   -1.8070   -5.6086   28.1920 O   0  0  0  0  0  0  0  0  0  0  0  0
   10.4296   -5.1799   28.3140 C   0  0  0  0  0  0  0  0  0  0  0  0
    6.6017   -5.9004   26.9187 C   0  0  0  0  0  0  0  0  0  0  0  0
    2.4761   -6.9940   26.4111 N   0  0  0  0  0  0  0  0  0  0  0  0
    9.1353   -5.4053   27.8239 C   0  0  0  0  0  0  0  0  0  0  0  0
    0.9922   -9.3232   16.5995 O   0  0  0  0  0  0  0  0  0  0  0  0
    1.5232   -7.6869   27.1182 C   0  0  0  0  0  0  0  0  0  0  0  0
    8.6878   -6.6715   27.7262 N   0  0  0  0  0  0  0  0  0  0  0  0
    6.9911   -8.2423   27.1808 C   0  0  0  0  0  0  0  0  0  0  0  0
    3.8436   -7.2758   16.0578 C   0  0  0  0  0  0  0  0  0  0  0  0
    3.1882   -9.7190   17.2566 C   0  0  0  0  0  0  0  0  0  0  0  0
    5.3488   -6.1737   26.5092 C   0  0  0  0  0  0  0  0  0  0  0  0
    7.4567   -6.9464   27.2858 C   0  0  0  0  0  0  0  0  0  0  0  0
    0.1921   -5.7592   27.1123 C   0  0  0  0  0  0  0  0  0  0  0  0
    3.5517   -7.7407   25.9711 C   0  0  0  0  0  0  0  0  0  0  0  0
  1  4  4  0
  1 22  4  0
  2 20  4  0
  2 27  4  0
  3 12  4  0
  3 23  4  0
  4 25  4  0
  4 28  1  0
  5  8  4  0
  5 17  4  0
  6  7  4  0
  6 16  4  0
  7 18  4  0
  8 27  4  0
  9 13  4  0
  9 23  4  0
 10 11  1  0
 11 14  2  0
 11 27  1  0
 12 19  1  0
 12 24  4  0
 13 24  4  0
 15 18  1  0
 16 25  4  0
 16 26  4  0
 17 20  4  0
 17 28  1  0
 18 21  4  0
 21 26  4  0
 22 26  4  0
M  END
$$$$

 Created by Python create_sdf_string function

 28 30  0  0  0  0  0  0  0  0999 V2000
    5.7174   -8.4529   26.7190 C   0  0  0  0  0  0  0  0  0  0  0  0
    0.3974   -7.0711   27.5149 C   0  0  0  0  0  0  0  0  0  0  0  0
    2.5338   -7.6891   16.0102 C   0  0  0  0  0  0  0  0  0  0  0  0
    4.8690   -7.4380   26.4151 C   0  0  0  0  0  0  0  0  0  0  0  0
    2.3021   -5.6726   26.0378 C   0  0  0  0  0  0  0  0  0  0  0  0
    7.0880   -4.6163   27.0010 C   0  0  0  0  0  0  0  0  0  0  0  0
    8.3117   -4.3698   27.4436 C   0  0  0  0  0  0  0  0  0  0  0  0
    1.1339   -5.0515   26.3541 C   0  0  0  0  0  0  0  0  0  0  0  0
    4.8080   -8.0362   16.7101 C   0  0  0  0  0  0  0  0  0  0  0  0
   -1.2173   -3.9294   26.9717 O   0  0  0  0  0  0  0  0  0  0  0  0
   -1.0025   -5.0942   27.4586 C   0  0  0  0  0  0  0  0  0  0  0  0
    2.2474   -8.9123   16.6273 C   0  0  0  0  0  0  0  0  0  0  0  0
    4.4957   -9.2636   17.3041 C   0  0  0  0  0  0  0  0  0  0  0  0
   -1.8070   -5.6086   28.1920 O   0  0  0  0  0  0  0  0  0  0  0  0
   10.4296   -5.1799   28.3140 C   0  0  0  0  0  0  0  0  0  0  0  0
    6.6017   -5.9004   26.9187 C   0  0  0  0  0  0  0  0  0  0  0  0
    2.4761   -6.9940   26.4111 N   0  0  0  0  0  0  0  0  0  0  0  0
    9.1353   -5.4053   27.8239 C   0  0  0  0  0  0  0  0  0  0  0  0
    0.9922   -9.3232   16.5995 O   0  0  0  0  0  0  0  0  0  0  0  0
    1.5232   -7.6869   27.1182 C   0  0  0  0  0  0  0  0  0  0  0  0
    8.6878   -6.6715   27.7262 N   0  0  0  0  0  0  0  0  0  0  0  0
    6.9911   -8.2423   27.1808 C   0  0  0  0  0  0  0  0  0  0  0  0
    3.8436   -7.2758   16.0578 C   0  0  0  0  0  0  0  0  0  0  0  0
    3.1882   -9.7190   17.2566 C   0  0  0  0  0  0  0  0  0  0  0  0
    5.3488   -6.1737   26.5092 C   0  0  0  0  0  0  0  0  0  0  0  0
    7.4567   -6.9464   27.2858 C   0  0  0  0  0  0  0  0  0  0  0  0
    0.1921   -5.7592   27.1123 C   0  0  0  0  0  0  0  0  0  0  0  0
    3.5517   -7.7407   25.9711 C   0  0  0  0  0  0  0  0  0  0  0  0
  1  4  4  0
  1 22  4  0
  2 20  4  0
  2 27  4  0
  3 12  4  0
  3 23  4  0
  4 25  4  0
  4 28  1  0
  5  8  4  0
  5 17  4  0
  6  7  4  0
  6 16  4  0
  7 18  4  0
  8 27  4  0
  9 13  4  0
  9 23  4  0
 10 11  1  0
 11 14  2  0
 11 27  1  0
 12 19  1  0
 12 24  4  0
 13 24  4  0
 15 18  1  0
 16 25  4  0
 16 26  4  0
 17 20  4  0
 17 28  1  0
 18 21  4  0
 21 26  4  0
 22 26  4  0
M  END
$$$$

 Created by Python create_sdf_string function

 28 30  0  0  0  0  0  0  0  0999 V2000
    5.7174   -8.4529   26.7190 C   0  0  0  0  0  0  0  0  0  0  0  0
    0.3974   -7.0711   27.5149 C   0  0  0  0  0  0  0  0  0  0  0  0
    2.5338   -7.6891   16.0102 C   0  0  0  0  0  0  0  0  0  0  0  0
    4.8690   -7.4380   26.4151 C   0  0  0  0  0  0  0  0  0  0  0  0
    2.3021   -5.6726   26.0378 C   0  0  0  0  0  0  0  0  0  0  0  0
    7.0880   -4.6163   27.0010 C   0  0  0  0  0  0  0  0  0  0  0  0
    8.3117   -4.3698   27.4436 C   0  0  0  0  0  0  0  0  0  0  0  0
    1.1339   -5.0515   26.3541 C   0  0  0  0  0  0  0  0  0  0  0  0
    4.8080   -8.0362   16.7101 C   0  0  0  0  0  0  0  0  0  0  0  0
   -1.2173   -3.9294   26.9717 O   0  0  0  0  0  0  0  0  0  0  0  0
   -1.0025   -5.0942   27.4586 C   0  0  0  0  0  0  0  0  0  0  0  0
    2.2474   -8.9123   16.6273 C   0  0  0  0  0  0  0  0  0  0  0  0
    4.4957   -9.2636   17.3041 C   0  0  0  0  0  0  0  0  0  0  0  0
   -1.8070   -5.6086   28.1920 O   0  0  0  0  0  0  0  0  0  0  0  0
   10.4296   -5.1799   28.3140 C   0  0  0  0  0  0  0  0  0  0  0  0
    6.6017   -5.9004   26.9187 C   0  0  0  0  0  0  0  0  0  0  0  0
    2.4761   -6.9940   26.4111 N   0  0  0  0  0  0  0  0  0  0  0  0
    9.1353   -5.4053   27.8239 C   0  0  0  0  0  0  0  0  0  0  0  0
    0.9922   -9.3232   16.5995 O   0  0  0  0  0  0  0  0  0  0  0  0
    1.5232   -7.6869   27.1182 C   0  0  0  0  0  0  0  0  0  0  0  0
    8.6878   -6.6715   27.7262 N   0  0  0  0  0  0  0  0  0  0  0  0
    6.9911   -8.2423   27.1808 C   0  0  0  0  0  0  0  0  0  0  0  0
    3.8436   -7.2758   16.0578 C   0  0  0  0  0  0  0  0  0  0  0  0
    3.1882   -9.7190   17.2566 C   0  0  0  0  0  0  0  0  0  0  0  0
    5.3488   -6.1737   26.5092 C   0  0  0  0  0  0  0  0  0  0  0  0
    7.4567   -6.9464   27.2858 C   0  0  0  0  0  0  0  0  0  0  0  0
    0.1921   -5.7592   27.1123 C   0  0  0  0  0  0  0  0  0  0  0  0
    3.5517   -7.7407   25.9711 C   0  0  0  0  0  0  0  0  0  0  0  0
  1  4  4  0
  1 22  4  0
  2 20  4  0
  2 27  4  0
  3 12  4  0
  3 23  4  0
  4 25  4  0
  4 28  1  0
  5  8  4  0
  5 17  4  0
  6  7  4  0
  6 16  4  0
  7 18  4  0
  8 27  4  0
  9 13  4  0
  9 23  4  0
 10 11  1  0
 11 14  2  0
 11 27  1  0
 12 19  1  0
 12 24  4  0
 13 24  4  0
 15 18  1  0
 16 25  4  0
 16 26  4  0
 17 20  4  0
 17 28  1  0
 18 21  4  0
 21 26  4  0
 22 26  4  0
M  END
$$$$

 Created by Python create_sdf_string function

 28 30  0  0  0  0  0  0  0  0999 V2000
    5.7174   -8.4529   26.7190 C   0  0  0  0  0  0  0  0  0  0  0  0
    0.3974   -7.0711   27.5149 C   0  0  0  0  0  0  0  0  0  0  0  0
    2.5338   -7.6891   16.0102 C   0  0  0  0  0  0  0  0  0  0  0  0
    4.8690   -7.4380   26.4151 C   0  0  0  0  0  0  0  0  0  0  0  0
    2.3021   -5.6726   26.0378 C   0  0  0  0  0  0  0  0  0  0  0  0
    7.0880   -4.6163   27.0010 C   0  0  0  0  0  0  0  0  0  0  0  0
    8.3117   -4.3698   27.4436 C   0  0  0  0  0  0  0  0  0  0  0  0
    1.1339   -5.0515   26.3541 C   0  0  0  0  0  0  0  0  0  0  0  0
    4.8080   -8.0362   16.7101 C   0  0  0  0  0  0  0  0  0  0  0  0
   -1.2173   -3.9294   26.9717 O   0  0  0  0  0  0  0  0  0  0  0  0
   -1.0025   -5.0942   27.4586 C   0  0  0  0  0  0  0  0  0  0  0  0
    2.2474   -8.9123   16.6273 C   0  0  0  0  0  0  0  0  0  0  0  0
    4.4957   -9.2636   17.3041 C   0  0  0  0  0  0  0  0  0  0  0  0
   -1.8070   -5.6086   28.1920 O   0  0  0  0  0  0  0  0  0  0  0  0
   10.4296   -5.1799   28.3140 C   0  0  0  0  0  0  0  0  0  0  0  0
    6.6017   -5.9004   26.9187 C   0  0  0  0  0  0  0  0  0  0  0  0
    2.4761   -6.9940   26.4111 N   0  0  0  0  0  0  0  0  0  0  0  0
    9.1353   -5.4053   27.8239 C   0  0  0  0  0  0  0  0  0  0  0  0
    0.9922   -9.3232   16.5995 O   0  0  0  0  0  0  0  0  0  0  0  0
    1.5232   -7.6869   27.1182 C   0  0  0  0  0  0  0  0  0  0  0  0
    8.6878   -6.6715   27.7262 N   0  0  0  0  0  0  0  0  0  0  0  0
    6.9911   -8.2423   27.1808 C   0  0  0  0  0  0  0  0  0  0  0  0
    3.8436   -7.2758   16.0578 C   0  0  0  0  0  0  0  0  0  0  0  0
    3.1882   -9.7190   17.2566 C   0  0  0  0  0  0  0  0  0  0  0  0
    5.3488   -6.1737   26.5092 C   0  0  0  0  0  0  0  0  0  0  0  0
    7.4567   -6.9464   27.2858 C   0  0  0  0  0  0  0  0  0  0  0  0
    0.1921   -5.7592   27.1123 C   0  0  0  0  0  0  0  0  0  0  0  0
    3.5517   -7.7407   25.9711 C   0  0  0  0  0  0  0  0  0  0  0  0
  1  4  4  0
  1 22  4  0
  2 20  4  0
  2 27  4  0
  3 12  4  0
  3 23  4  0
  4 25  4  0
  4 28  1  0
  5  8  4  0
  5 17  4  0
  6  7  4  0
  6 16  4  0
  7 18  4  0
  8 27  4  0
  9 13  4  0
  9 23  4  0
 10 11  1  0
 11 14  2  0
 11 27  1  0
 12 19  1  0
 12 24  4  0
 13 24  4  0
 15 18  1  0
 16 25  4  0
 16 26  4  0
 17 20  4  0
 17 28  1  0
 18 21  4  0
 21 26  4  0
 22 26  4  0
M  END
$$$$

 Created by Python create_sdf_string function

 28 30  0  0  0  0  0  0  0  0999 V2000
    5.7174   -8.4529   26.7190 C   0  0  0  0  0  0  0  0  0  0  0  0
    0.3974   -7.0711   27.5149 C   0  0  0  0  0  0  0  0  0  0  0  0
    2.5338   -7.6891   16.0102 C   0  0  0  0  0  0  0  0  0  0  0  0
    4.8690   -7.4380   26.4151 C   0  0  0  0  0  0  0  0  0  0  0  0
    2.3021   -5.6726   26.0378 C   0  0  0  0  0  0  0  0  0  0  0  0
    7.0880   -4.6163   27.0010 C   0  0  0  0  0  0  0  0  0  0  0  0
    8.3117   -4.3698   27.4436 C   0  0  0  0  0  0  0  0  0  0  0  0
    1.1339   -5.0515   26.3541 C   0  0  0  0  0  0  0  0  0  0  0  0
    4.8080   -8.0362   16.7101 C   0  0  0  0  0  0  0  0  0  0  0  0
   -1.2173   -3.9294   26.9717 O   0  0  0  0  0  0  0  0  0  0  0  0
   -1.0025   -5.0942   27.4586 C   0  0  0  0  0  0  0  0  0  0  0  0
    2.2474   -8.9123   16.6273 C   0  0  0  0  0  0  0  0  0  0  0  0
    4.4957   -9.2636   17.3041 C   0  0  0  0  0  0  0  0  0  0  0  0
   -1.8070   -5.6086   28.1920 O   0  0  0  0  0  0  0  0  0  0  0  0
   10.4296   -5.1799   28.3140 C   0  0  0  0  0  0  0  0  0  0  0  0
    6.6017   -5.9004   26.9187 C   0  0  0  0  0  0  0  0  0  0  0  0
    2.4761   -6.9940   26.4111 N   0  0  0  0  0  0  0  0  0  0  0  0
    9.1353   -5.4053   27.8239 C   0  0  0  0  0  0  0  0  0  0  0  0
    0.9922   -9.3232   16.5995 O   0  0  0  0  0  0  0  0  0  0  0  0
    1.5232   -7.6869   27.1182 C   0  0  0  0  0  0  0  0  0  0  0  0
    8.6878   -6.6715   27.7262 N   0  0  0  0  0  0  0  0  0  0  0  0
    6.9911   -8.2423   27.1808 C   0  0  0  0  0  0  0  0  0  0  0  0
    3.8436   -7.2758   16.0578 C   0  0  0  0  0  0  0  0  0  0  0  0
    3.1882   -9.7190   17.2566 C   0  0  0  0  0  0  0  0  0  0  0  0
    5.3488   -6.1737   26.5092 C   0  0  0  0  0  0  0  0  0  0  0  0
    7.4567   -6.9464   27.2858 C   0  0  0  0  0  0  0  0  0  0  0  0
    0.1921   -5.7592   27.1123 C   0  0  0  0  0  0  0  0  0  0  0  0
    3.5517   -7.7407   25.9711 C   0  0  0  0  0  0  0  0  0  0  0  0
  1  4  4  0
  1 22  4  0
  2 20  4  0
  2 27  4  0
  3 12  4  0
  3 23  4  0
  4 25  4  0
  4 28  1  0
  5  8  4  0
  5 17  4  0
  6  7  4  0
  6 16  4  0
  7 18  4  0
  8 27  4  0
  9 13  4  0
  9 23  4  0
 10 11  1  0
 11 14  2  0
 11 27  1  0
 12 19  1  0
 12 24  4  0
 13 24  4  0
 15 18  1  0
 16 25  4  0
 16 26  4  0
 17 20  4  0
 17 28  1  0
 18 21  4  0
 21 26  4  0
 22 26  4  0
M  END
$$$$

 Created by Python create_sdf_string function

 28 30  0  0  0  0  0  0  0  0999 V2000
    5.7174   -8.4529   26.7190 C   0  0  0  0  0  0  0  0  0  0  0  0
    0.3974   -7.0711   27.5149 C   0  0  0  0  0  0  0  0  0  0  0  0
    2.5338   -7.6891   16.0102 C   0  0  0  0  0  0  0  0  0  0  0  0
    4.8690   -7.4380   26.4151 C   0  0  0  0  0  0  0  0  0  0  0  0
    2.3021   -5.6726   26.0378 C   0  0  0  0  0  0  0  0  0  0  0  0
    7.0880   -4.6163   27.0010 C   0  0  0  0  0  0  0  0  0  0  0  0
    8.3117   -4.3698   27.4436 C   0  0  0  0  0  0  0  0  0  0  0  0
    1.1339   -5.0515   26.3541 C   0  0  0  0  0  0  0  0  0  0  0  0
    4.8080   -8.0362   16.7101 C   0  0  0  0  0  0  0  0  0  0  0  0
   -1.2173   -3.9294   26.9717 O   0  0  0  0  0  0  0  0  0  0  0  0
   -1.0025   -5.0942   27.4586 C   0  0  0  0  0  0  0  0  0  0  0  0
    2.2474   -8.9123   16.6273 C   0  0  0  0  0  0  0  0  0  0  0  0
    4.4957   -9.2636   17.3041 C   0  0  0  0  0  0  0  0  0  0  0  0
   -1.8070   -5.6086   28.1920 O   0  0  0  0  0  0  0  0  0  0  0  0
   10.4296   -5.1799   28.3140 C   0  0  0  0  0  0  0  0  0  0  0  0
    6.6017   -5.9004   26.9187 C   0  0  0  0  0  0  0  0  0  0  0  0
    2.4761   -6.9940   26.4111 N   0  0  0  0  0  0  0  0  0  0  0  0
    9.1353   -5.4053   27.8239 C   0  0  0  0  0  0  0  0  0  0  0  0
    0.9922   -9.3232   16.5995 O   0  0  0  0  0  0  0  0  0  0  0  0
    1.5232   -7.6869   27.1182 C   0  0  0  0  0  0  0  0  0  0  0  0
    8.6878   -6.6715   27.7262 N   0  0  0  0  0  0  0  0  0  0  0  0
    6.9911   -8.2423   27.1808 C   0  0  0  0  0  0  0  0  0  0  0  0
    3.8436   -7.2758   16.0578 C   0  0  0  0  0  0  0  0  0  0  0  0
    3.1882   -9.7190   17.2566 C   0  0  0  0  0  0  0  0  0  0  0  0
    5.3488   -6.1737   26.5092 C   0  0  0  0  0  0  0  0  0  0  0  0
    7.4567   -6.9464   27.2858 C   0  0  0  0  0  0  0  0  0  0  0  0
    0.1921   -5.7592   27.1123 C   0  0  0  0  0  0  0  0  0  0  0  0
    3.5517   -7.7407   25.9711 C   0  0  0  0  0  0  0  0  0  0  0  0
  1  4  4  0
  1 22  4  0
  2 20  4  0
  2 27  4  0
  3 12  4  0
  3 23  4  0
  4 25  4  0
  4 28  1  0
  5  8  4  0
  5 17  4  0
  6  7  4  0
  6 16  4  0
  7 18  4  0
  8 27  4  0
  9 13  4  0
  9 23  4  0
 10 11  1  0
 11 14  2  0
 11 27  1  0
 12 19  1  0
 12 24  4  0
 13 24  4  0
 15 18  1  0
 16 25  4  0
 16 26  4  0
 17 20  4  0
 17 28  1  0
 18 21  4  0
 21 26  4  0
 22 26  4  0
M  END
$$$$

 Created by Python create_sdf_string function

 28 30  0  0  0  0  0  0  0  0999 V2000
    5.7174   -8.4529   26.7190 C   0  0  0  0  0  0  0  0  0  0  0  0
    0.3974   -7.0711   27.5149 C   0  0  0  0  0  0  0  0  0  0  0  0
    2.5338   -7.6891   16.0102 C   0  0  0  0  0  0  0  0  0  0  0  0
    4.8690   -7.4380   26.4151 C   0  0  0  0  0  0  0  0  0  0  0  0
    2.3021   -5.6726   26.0378 C   0  0  0  0  0  0  0  0  0  0  0  0
    7.0880   -4.6163   27.0010 C   0  0  0  0  0  0  0  0  0  0  0  0
    8.3117   -4.3698   27.4436 C   0  0  0  0  0  0  0  0  0  0  0  0
    1.1339   -5.0515   26.3541 C   0  0  0  0  0  0  0  0  0  0  0  0
    4.8080   -8.0362   16.7101 C   0  0  0  0  0  0  0  0  0  0  0  0
   -1.2173   -3.9294   26.9717 O   0  0  0  0  0  0  0  0  0  0  0  0
   -1.0025   -5.0942   27.4586 C   0  0  0  0  0  0  0  0  0  0  0  0
    2.2474   -8.9123   16.6273 C   0  0  0  0  0  0  0  0  0  0  0  0
    4.4957   -9.2636   17.3041 C   0  0  0  0  0  0  0  0  0  0  0  0
   -1.8070   -5.6086   28.1920 O   0  0  0  0  0  0  0  0  0  0  0  0
   10.4296   -5.1799   28.3140 C   0  0  0  0  0  0  0  0  0  0  0  0
    6.6017   -5.9004   26.9187 C   0  0  0  0  0  0  0  0  0  0  0  0
    2.4761   -6.9940   26.4111 N   0  0  0  0  0  0  0  0  0  0  0  0
    9.1353   -5.4053   27.8239 C   0  0  0  0  0  0  0  0  0  0  0  0
    0.9922   -9.3232   16.5995 O   0  0  0  0  0  0  0  0  0  0  0  0
    1.5232   -7.6869   27.1182 C   0  0  0  0  0  0  0  0  0  0  0  0
    8.6878   -6.6715   27.7262 N   0  0  0  0  0  0  0  0  0  0  0  0
    6.9911   -8.2423   27.1808 C   0  0  0  0  0  0  0  0  0  0  0  0
    3.8436   -7.2758   16.0578 C   0  0  0  0  0  0  0  0  0  0  0  0
    3.1882   -9.7190   17.2566 C   0  0  0  0  0  0  0  0  0  0  0  0
    5.3488   -6.1737   26.5092 C   0  0  0  0  0  0  0  0  0  0  0  0
    7.4567   -6.9464   27.2858 C   0  0  0  0  0  0  0  0  0  0  0  0
    0.1921   -5.7592   27.1123 C   0  0  0  0  0  0  0  0  0  0  0  0
    3.5517   -7.7407   25.9711 C   0  0  0  0  0  0  0  0  0  0  0  0
  1  4  4  0
  1 22  4  0
  2 20  4  0
  2 27  4  0
  3 12  4  0
  3 23  4  0
  4 25  4  0
  4 28  1  0
  5  8  4  0
  5 17  4  0
  6  7  4  0
  6 16  4  0
  7 18  4  0
  8 27  4  0
  9 13  4  0
  9 23  4  0
 10 11  1  0
 11 14  2  0
 11 27  1  0
 12 19  1  0
 12 24  4  0
 13 24  4  0
 15 18  1  0
 16 25  4  0
 16 26  4  0
 17 20  4  0
 17 28  1  0
 18 21  4  0
 21 26  4  0
 22 26  4  0
M  END
$$$$

 Created by Python create_sdf_string function

 28 30  0  0  0  0  0  0  0  0999 V2000
    5.7174   -8.4529   26.7190 C   0  0  0  0  0  0  0  0  0  0  0  0
    0.3974   -7.0711   27.5149 C   0  0  0  0  0  0  0  0  0  0  0  0
    2.5338   -7.6891   16.0102 C   0  0  0  0  0  0  0  0  0  0  0  0
    4.8690   -7.4380   26.4151 C   0  0  0  0  0  0  0  0  0  0  0  0
    2.3021   -5.6726   26.0378 C   0  0  0  0  0  0  0  0  0  0  0  0
    7.0880   -4.6163   27.0010 C   0  0  0  0  0  0  0  0  0  0  0  0
    8.3117   -4.3698   27.4436 C   0  0  0  0  0  0  0  0  0  0  0  0
    1.1339   -5.0515   26.3541 C   0  0  0  0  0  0  0  0  0  0  0  0
    4.8080   -8.0362   16.7101 C   0  0  0  0  0  0  0  0  0  0  0  0
   -1.2173   -3.9294   26.9717 O   0  0  0  0  0  0  0  0  0  0  0  0
   -1.0025   -5.0942   27.4586 C   0  0  0  0  0  0  0  0  0  0  0  0
    2.2474   -8.9123   16.6273 C   0  0  0  0  0  0  0  0  0  0  0  0
    4.4957   -9.2636   17.3041 C   0  0  0  0  0  0  0  0  0  0  0  0
   -1.8070   -5.6086   28.1920 O   0  0  0  0  0  0  0  0  0  0  0  0
   10.4296   -5.1799   28.3140 C   0  0  0  0  0  0  0  0  0  0  0  0
    6.6017   -5.9004   26.9187 C   0  0  0  0  0  0  0  0  0  0  0  0
    2.4761   -6.9940   26.4111 N   0  0  0  0  0  0  0  0  0  0  0  0
    9.1353   -5.4053   27.8239 C   0  0  0  0  0  0  0  0  0  0  0  0
    0.9922   -9.3232   16.5995 O   0  0  0  0  0  0  0  0  0  0  0  0
    1.5232   -7.6869   27.1182 C   0  0  0  0  0  0  0  0  0  0  0  0
    8.6878   -6.6715   27.7262 N   0  0  0  0  0  0  0  0  0  0  0  0
    6.9911   -8.2423   27.1808 C   0  0  0  0  0  0  0  0  0  0  0  0
    3.8436   -7.2758   16.0578 C   0  0  0  0  0  0  0  0  0  0  0  0
    3.1882   -9.7190   17.2566 C   0  0  0  0  0  0  0  0  0  0  0  0
    5.3488   -6.1737   26.5092 C   0  0  0  0  0  0  0  0  0  0  0  0
    7.4567   -6.9464   27.2858 C   0  0  0  0  0  0  0  0  0  0  0  0
    0.1921   -5.7592   27.1123 C   0  0  0  0  0  0  0  0  0  0  0  0
    3.5517   -7.7407   25.9711 C   0  0  0  0  0  0  0  0  0  0  0  0
  1  4  4  0
  1 22  4  0
  2 20  4  0
  2 27  4  0
  3 12  4  0
  3 23  4  0
  4 25  4  0
  4 28  1  0
  5  8  4  0
  5 17  4  0
  6  7  4  0
  6 16  4  0
  7 18  4  0
  8 27  4  0
  9 13  4  0
  9 23  4  0
 10 11  1  0
 11 14  2  0
 11 27  1  0
 12 19  1  0
 12 24  4  0
 13 24  4  0
 15 18  1  0
 16 25  4  0
 16 26  4  0
 17 20  4  0
 17 28  1  0
 18 21  4  0
 21 26  4  0
 22 26  4  0
M  END
$$$$

 Created by Python create_sdf_string function

 28 30  0  0  0  0  0  0  0  0999 V2000
    5.7174   -8.4529   26.7190 C   0  0  0  0  0  0  0  0  0  0  0  0
    0.3974   -7.0711   27.5149 C   0  0  0  0  0  0  0  0  0  0  0  0
    2.5338   -7.6891   16.0102 C   0  0  0  0  0  0  0  0  0  0  0  0
    4.8690   -7.4380   26.4151 C   0  0  0  0  0  0  0  0  0  0  0  0
    2.3021   -5.6726   26.0378 C   0  0  0  0  0  0  0  0  0  0  0  0
    7.0880   -4.6163   27.0010 C   0  0  0  0  0  0  0  0  0  0  0  0
    8.3117   -4.3698   27.4436 C   0  0  0  0  0  0  0  0  0  0  0  0
    1.1339   -5.0515   26.3541 C   0  0  0  0  0  0  0  0  0  0  0  0
    4.8080   -8.0362   16.7101 C   0  0  0  0  0  0  0  0  0  0  0  0
   -1.2173   -3.9294   26.9717 O   0  0  0  0  0  0  0  0  0  0  0  0
   -1.0025   -5.0942   27.4586 C   0  0  0  0  0  0  0  0  0  0  0  0
    2.2474   -8.9123   16.6273 C   0  0  0  0  0  0  0  0  0  0  0  0
    4.4957   -9.2636   17.3041 C   0  0  0  0  0  0  0  0  0  0  0  0
   -1.8070   -5.6086   28.1920 O   0  0  0  0  0  0  0  0  0  0  0  0
   10.4296   -5.1799   28.3140 C   0  0  0  0  0  0  0  0  0  0  0  0
    6.6017   -5.9004   26.9187 C   0  0  0  0  0  0  0  0  0  0  0  0
    2.4761   -6.9940   26.4111 N   0  0  0  0  0  0  0  0  0  0  0  0
    9.1353   -5.4053   27.8239 C   0  0  0  0  0  0  0  0  0  0  0  0
    0.9922   -9.3232   16.5995 O   0  0  0  0  0  0  0  0  0  0  0  0
    1.5232   -7.6869   27.1182 C   0  0  0  0  0  0  0  0  0  0  0  0
    8.6878   -6.6715   27.7262 N   0  0  0  0  0  0  0  0  0  0  0  0
    6.9911   -8.2423   27.1808 C   0  0  0  0  0  0  0  0  0  0  0  0
    3.8436   -7.2758   16.0578 C   0  0  0  0  0  0  0  0  0  0  0  0
    3.1882   -9.7190   17.2566 C   0  0  0  0  0  0  0  0  0  0  0  0
    5.3488   -6.1737   26.5092 C   0  0  0  0  0  0  0  0  0  0  0  0
    7.4567   -6.9464   27.2858 C   0  0  0  0  0  0  0  0  0  0  0  0
    0.1921   -5.7592   27.1123 C   0  0  0  0  0  0  0  0  0  0  0  0
    3.5517   -7.7407   25.9711 C   0  0  0  0  0  0  0  0  0  0  0  0
  1  4  4  0
  1 22  4  0
  2 20  4  0
  2 27  4  0
  3 12  4  0
  3 23  4  0
  4 25  4  0
  4 28  1  0
  5  8  4  0
  5 17  4  0
  6  7  4  0
  6 16  4  0
  7 18  4  0
  8 27  4  0
  9 13  4  0
  9 23  4  0
 10 11  1  0
 11 14  2  0
 11 27  1  0
 12 19  1  0
 12 24  4  0
 13 24  4  0
 15 18  1  0
 16 25  4  0
 16 26  4  0
 17 20  4  0
 17 28  1  0
 18 21  4  0
 21 26  4  0
 22 26  4  0
M  END
$$$$

 Created by Python create_sdf_string function

 28 30  0  0  0  0  0  0  0  0999 V2000
    5.7174   -8.4529   26.7190 C   0  0  0  0  0  0  0  0  0  0  0  0
    0.3974   -7.0711   27.5149 C   0  0  0  0  0  0  0  0  0  0  0  0
    2.5338   -7.6891   16.0102 C   0  0  0  0  0  0  0  0  0  0  0  0
    4.8690   -7.4380   26.4151 C   0  0  0  0  0  0  0  0  0  0  0  0
    2.3021   -5.6726   26.0378 C   0  0  0  0  0  0  0  0  0  0  0  0
    7.0880   -4.6163   27.0010 C   0  0  0  0  0  0  0  0  0  0  0  0
    8.3117   -4.3698   27.4436 C   0  0  0  0  0  0  0  0  0  0  0  0
    1.1339   -5.0515   26.3541 C   0  0  0  0  0  0  0  0  0  0  0  0
    4.8080   -8.0362   16.7101 C   0  0  0  0  0  0  0  0  0  0  0  0
   -1.2173   -3.9294   26.9717 O   0  0  0  0  0  0  0  0  0  0  0  0
   -1.0025   -5.0942   27.4586 C   0  0  0  0  0  0  0  0  0  0  0  0
    2.2474   -8.9123   16.6273 C   0  0  0  0  0  0  0  0  0  0  0  0
    4.4957   -9.2636   17.3041 C   0  0  0  0  0  0  0  0  0  0  0  0
   -1.8070   -5.6086   28.1920 O   0  0  0  0  0  0  0  0  0  0  0  0
   10.4296   -5.1799   28.3140 C   0  0  0  0  0  0  0  0  0  0  0  0
    6.6017   -5.9004   26.9187 C   0  0  0  0  0  0  0  0  0  0  0  0
    2.4761   -6.9940   26.4111 N   0  0  0  0  0  0  0  0  0  0  0  0
    9.1353   -5.4053   27.8239 C   0  0  0  0  0  0  0  0  0  0  0  0
    0.9922   -9.3232   16.5995 O   0  0  0  0  0  0  0  0  0  0  0  0
    1.5232   -7.6869   27.1182 C   0  0  0  0  0  0  0  0  0  0  0  0
    8.6878   -6.6715   27.7262 N   0  0  0  0  0  0  0  0  0  0  0  0
    6.9911   -8.2423   27.1808 C   0  0  0  0  0  0  0  0  0  0  0  0
    3.8436   -7.2758   16.0578 C   0  0  0  0  0  0  0  0  0  0  0  0
    3.1882   -9.7190   17.2566 C   0  0  0  0  0  0  0  0  0  0  0  0
    5.3488   -6.1737   26.5092 C   0  0  0  0  0  0  0  0  0  0  0  0
    7.4567   -6.9464   27.2858 C   0  0  0  0  0  0  0  0  0  0  0  0
    0.1921   -5.7592   27.1123 C   0  0  0  0  0  0  0  0  0  0  0  0
    3.5517   -7.7407   25.9711 C   0  0  0  0  0  0  0  0  0  0  0  0
  1  4  4  0
  1 22  4  0
  2 20  4  0
  2 27  4  0
  3 12  4  0
  3 23  4  0
  4 25  4  0
  4 28  1  0
  5  8  4  0
  5 17  4  0
  6  7  4  0
  6 16  4  0
  7 18  4  0
  8 27  4  0
  9 13  4  0
  9 23  4  0
 10 11  1  0
 11 14  2  0
 11 27  1  0
 12 19  1  0
 12 24  4  0
 13 24  4  0
 15 18  1  0
 16 25  4  0
 16 26  4  0
 17 20  4  0
 17 28  1  0
 18 21  4  0
 21 26  4  0
 22 26  4  0
M  END
$$$$

 Created by Python create_sdf_string function

 28 30  0  0  0  0  0  0  0  0999 V2000
    5.7174   -8.4529   26.7190 C   0  0  0  0  0  0  0  0  0  0  0  0
    0.3974   -7.0711   27.5149 C   0  0  0  0  0  0  0  0  0  0  0  0
    2.5338   -7.6891   16.0102 C   0  0  0  0  0  0  0  0  0  0  0  0
    4.8690   -7.4380   26.4151 C   0  0  0  0  0  0  0  0  0  0  0  0
    2.3021   -5.6726   26.0378 C   0  0  0  0  0  0  0  0  0  0  0  0
    7.0880   -4.6163   27.0010 C   0  0  0  0  0  0  0  0  0  0  0  0
    8.3117   -4.3698   27.4436 C   0  0  0  0  0  0  0  0  0  0  0  0
    1.1339   -5.0515   26.3541 C   0  0  0  0  0  0  0  0  0  0  0  0
    4.8080   -8.0362   16.7101 C   0  0  0  0  0  0  0  0  0  0  0  0
   -1.2173   -3.9294   26.9717 O   0  0  0  0  0  0  0  0  0  0  0  0
   -1.0025   -5.0942   27.4586 C   0  0  0  0  0  0  0  0  0  0  0  0
    2.2474   -8.9123   16.6273 C   0  0  0  0  0  0  0  0  0  0  0  0
    4.4957   -9.2636   17.3041 C   0  0  0  0  0  0  0  0  0  0  0  0
   -1.8070   -5.6086   28.1920 O   0  0  0  0  0  0  0  0  0  0  0  0
   10.4296   -5.1799   28.3140 C   0  0  0  0  0  0  0  0  0  0  0  0
    6.6017   -5.9004   26.9187 C   0  0  0  0  0  0  0  0  0  0  0  0
    2.4761   -6.9940   26.4111 N   0  0  0  0  0  0  0  0  0  0  0  0
    9.1353   -5.4053   27.8239 C   0  0  0  0  0  0  0  0  0  0  0  0
    0.9922   -9.3232   16.5995 O   0  0  0  0  0  0  0  0  0  0  0  0
    1.5232   -7.6869   27.1182 C   0  0  0  0  0  0  0  0  0  0  0  0
    8.6878   -6.6715   27.7262 N   0  0  0  0  0  0  0  0  0  0  0  0
    6.9911   -8.2423   27.1808 C   0  0  0  0  0  0  0  0  0  0  0  0
    3.8436   -7.2758   16.0578 C   0  0  0  0  0  0  0  0  0  0  0  0
    3.1882   -9.7190   17.2566 C   0  0  0  0  0  0  0  0  0  0  0  0
    5.3488   -6.1737   26.5092 C   0  0  0  0  0  0  0  0  0  0  0  0
    7.4567   -6.9464   27.2858 C   0  0  0  0  0  0  0  0  0  0  0  0
    0.1921   -5.7592   27.1123 C   0  0  0  0  0  0  0  0  0  0  0  0
    3.5517   -7.7407   25.9711 C   0  0  0  0  0  0  0  0  0  0  0  0
  1  4  4  0
  1 22  4  0
  2 20  4  0
  2 27  4  0
  3 12  4  0
  3 23  4  0
  4 25  4  0
  4 28  1  0
  5  8  4  0
  5 17  4  0
  6  7  4  0
  6 16  4  0
  7 18  4  0
  8 27  4  0
  9 13  4  0
  9 23  4  0
 10 11  1  0
 11 14  2  0
 11 27  1  0
 12 19  1  0
 12 24  4  0
 13 24  4  0
 15 18  1  0
 16 25  4  0
 16 26  4  0
 17 20  4  0
 17 28  1  0
 18 21  4  0
 21 26  4  0
 22 26  4  0
M  END
$$$$

 Created by Python create_sdf_string function

 28 30  0  0  0  0  0  0  0  0999 V2000
    5.7174   -8.4529   26.7190 C   0  0  0  0  0  0  0  0  0  0  0  0
    0.3974   -7.0711   27.5149 C   0  0  0  0  0  0  0  0  0  0  0  0
    2.5338   -7.6891   16.0102 C   0  0  0  0  0  0  0  0  0  0  0  0
    4.8690   -7.4380   26.4151 C   0  0  0  0  0  0  0  0  0  0  0  0
    2.3021   -5.6726   26.0378 C   0  0  0  0  0  0  0  0  0  0  0  0
    7.0880   -4.6163   27.0010 C   0  0  0  0  0  0  0  0  0  0  0  0
    8.3117   -4.3698   27.4436 C   0  0  0  0  0  0  0  0  0  0  0  0
    1.1339   -5.0515   26.3541 C   0  0  0  0  0  0  0  0  0  0  0  0
    4.8080   -8.0362   16.7101 C   0  0  0  0  0  0  0  0  0  0  0  0
   -1.2173   -3.9294   26.9717 O   0  0  0  0  0  0  0  0  0  0  0  0
   -1.0025   -5.0942   27.4586 C   0  0  0  0  0  0  0  0  0  0  0  0
    2.2474   -8.9123   16.6273 C   0  0  0  0  0  0  0  0  0  0  0  0
    4.4957   -9.2636   17.3041 C   0  0  0  0  0  0  0  0  0  0  0  0
   -1.8070   -5.6086   28.1920 O   0  0  0  0  0  0  0  0  0  0  0  0
   10.4296   -5.1799   28.3140 C   0  0  0  0  0  0  0  0  0  0  0  0
    6.6017   -5.9004   26.9187 C   0  0  0  0  0  0  0  0  0  0  0  0
    2.4761   -6.9940   26.4111 N   0  0  0  0  0  0  0  0  0  0  0  0
    9.1353   -5.4053   27.8239 C   0  0  0  0  0  0  0  0  0  0  0  0
    0.9922   -9.3232   16.5995 O   0  0  0  0  0  0  0  0  0  0  0  0
    1.5232   -7.6869   27.1182 C   0  0  0  0  0  0  0  0  0  0  0  0
    8.6878   -6.6715   27.7262 N   0  0  0  0  0  0  0  0  0  0  0  0
    6.9911   -8.2423   27.1808 C   0  0  0  0  0  0  0  0  0  0  0  0
    3.8436   -7.2758   16.0578 C   0  0  0  0  0  0  0  0  0  0  0  0
    3.1882   -9.7190   17.2566 C   0  0  0  0  0  0  0  0  0  0  0  0
    5.3488   -6.1737   26.5092 C   0  0  0  0  0  0  0  0  0  0  0  0
    7.4567   -6.9464   27.2858 C   0  0  0  0  0  0  0  0  0  0  0  0
    0.1921   -5.7592   27.1123 C   0  0  0  0  0  0  0  0  0  0  0  0
    3.5517   -7.7407   25.9711 C   0  0  0  0  0  0  0  0  0  0  0  0
  1  4  4  0
  1 22  4  0
  2 20  4  0
  2 27  4  0
  3 12  4  0
  3 23  4  0
  4 25  4  0
  4 28  1  0
  5  8  4  0
  5 17  4  0
  6  7  4  0
  6 16  4  0
  7 18  4  0
  8 27  4  0
  9 13  4  0
  9 23  4  0
 10 11  1  0
 11 14  2  0
 11 27  1  0
 12 19  1  0
 12 24  4  0
 13 24  4  0
 15 18  1  0
 16 25  4  0
 16 26  4  0
 17 20  4  0
 17 28  1  0
 18 21  4  0
 21 26  4  0
 22 26  4  0
M  END
$$$$

 Created by Python create_sdf_string function

 28 30  0  0  0  0  0  0  0  0999 V2000
    5.7174   -8.4529   26.7190 C   0  0  0  0  0  0  0  0  0  0  0  0
    0.3974   -7.0711   27.5149 C   0  0  0  0  0  0  0  0  0  0  0  0
    2.5338   -7.6891   16.0102 C   0  0  0  0  0  0  0  0  0  0  0  0
    4.8690   -7.4380   26.4151 C   0  0  0  0  0  0  0  0  0  0  0  0
    2.3021   -5.6726   26.0378 C   0  0  0  0  0  0  0  0  0  0  0  0
    7.0880   -4.6163   27.0010 C   0  0  0  0  0  0  0  0  0  0  0  0
    8.3117   -4.3698   27.4436 C   0  0  0  0  0  0  0  0  0  0  0  0
    1.1339   -5.0515   26.3541 C   0  0  0  0  0  0  0  0  0  0  0  0
    4.8080   -8.0362   16.7101 C   0  0  0  0  0  0  0  0  0  0  0  0
   -1.2173   -3.9294   26.9717 O   0  0  0  0  0  0  0  0  0  0  0  0
   -1.0025   -5.0942   27.4586 C   0  0  0  0  0  0  0  0  0  0  0  0
    2.2474   -8.9123   16.6273 C   0  0  0  0  0  0  0  0  0  0  0  0
    4.4957   -9.2636   17.3041 C   0  0  0  0  0  0  0  0  0  0  0  0
   -1.8070   -5.6086   28.1920 O   0  0  0  0  0  0  0  0  0  0  0  0
   10.4296   -5.1799   28.3140 C   0  0  0  0  0  0  0  0  0  0  0  0
    6.6017   -5.9004   26.9187 C   0  0  0  0  0  0  0  0  0  0  0  0
    2.4761   -6.9940   26.4111 N   0  0  0  0  0  0  0  0  0  0  0  0
    9.1353   -5.4053   27.8239 C   0  0  0  0  0  0  0  0  0  0  0  0
    0.9922   -9.3232   16.5995 O   0  0  0  0  0  0  0  0  0  0  0  0
    1.5232   -7.6869   27.1182 C   0  0  0  0  0  0  0  0  0  0  0  0
    8.6878   -6.6715   27.7262 N   0  0  0  0  0  0  0  0  0  0  0  0
    6.9911   -8.2423   27.1808 C   0  0  0  0  0  0  0  0  0  0  0  0
    3.8436   -7.2758   16.0578 C   0  0  0  0  0  0  0  0  0  0  0  0
    3.1882   -9.7190   17.2566 C   0  0  0  0  0  0  0  0  0  0  0  0
    5.3488   -6.1737   26.5092 C   0  0  0  0  0  0  0  0  0  0  0  0
    7.4567   -6.9464   27.2858 C   0  0  0  0  0  0  0  0  0  0  0  0
    0.1921   -5.7592   27.1123 C   0  0  0  0  0  0  0  0  0  0  0  0
    3.5517   -7.7407   25.9711 C   0  0  0  0  0  0  0  0  0  0  0  0
  1  4  4  0
  1 22  4  0
  2 20  4  0
  2 27  4  0
  3 12  4  0
  3 23  4  0
  4 25  4  0
  4 28  1  0
  5  8  4  0
  5 17  4  0
  6  7  4  0
  6 16  4  0
  7 18  4  0
  8 27  4  0
  9 13  4  0
  9 23  4  0
 10 11  1  0
 11 14  2  0
 11 27  1  0
 12 19  1  0
 12 24  4  0
 13 24  4  0
 15 18  1  0
 16 25  4  0
 16 26  4  0
 17 20  4  0
 17 28  1  0
 18 21  4  0
 21 26  4  0
 22 26  4  0
M  END
$$$$

 Created by Python create_sdf_string function

 28 30  0  0  0  0  0  0  0  0999 V2000
    5.7174   -8.4529   26.7190 C   0  0  0  0  0  0  0  0  0  0  0  0
    0.3974   -7.0711   27.5149 C   0  0  0  0  0  0  0  0  0  0  0  0
    2.5338   -7.6891   16.0102 C   0  0  0  0  0  0  0  0  0  0  0  0
    4.8690   -7.4380   26.4151 C   0  0  0  0  0  0  0  0  0  0  0  0
    2.3021   -5.6726   26.0378 C   0  0  0  0  0  0  0  0  0  0  0  0
    7.0880   -4.6163   27.0010 C   0  0  0  0  0  0  0  0  0  0  0  0
    8.3117   -4.3698   27.4436 C   0  0  0  0  0  0  0  0  0  0  0  0
    1.1339   -5.0515   26.3541 C   0  0  0  0  0  0  0  0  0  0  0  0
    4.8080   -8.0362   16.7101 C   0  0  0  0  0  0  0  0  0  0  0  0
   -1.2173   -3.9294   26.9717 O   0  0  0  0  0  0  0  0  0  0  0  0
   -1.0025   -5.0942   27.4586 C   0  0  0  0  0  0  0  0  0  0  0  0
    2.2474   -8.9123   16.6273 C   0  0  0  0  0  0  0  0  0  0  0  0
    4.4957   -9.2636   17.3041 C   0  0  0  0  0  0  0  0  0  0  0  0
   -1.8070   -5.6086   28.1920 O   0  0  0  0  0  0  0  0  0  0  0  0
   10.4296   -5.1799   28.3140 C   0  0  0  0  0  0  0  0  0  0  0  0
    6.6017   -5.9004   26.9187 C   0  0  0  0  0  0  0  0  0  0  0  0
    2.4761   -6.9940   26.4111 N   0  0  0  0  0  0  0  0  0  0  0  0
    9.1353   -5.4053   27.8239 C   0  0  0  0  0  0  0  0  0  0  0  0
    0.9922   -9.3232   16.5995 O   0  0  0  0  0  0  0  0  0  0  0  0
    1.5232   -7.6869   27.1182 C   0  0  0  0  0  0  0  0  0  0  0  0
    8.6878   -6.6715   27.7262 N   0  0  0  0  0  0  0  0  0  0  0  0
    6.9911   -8.2423   27.1808 C   0  0  0  0  0  0  0  0  0  0  0  0
    3.8436   -7.2758   16.0578 C   0  0  0  0  0  0  0  0  0  0  0  0
    3.1882   -9.7190   17.2566 C   0  0  0  0  0  0  0  0  0  0  0  0
    5.3488   -6.1737   26.5092 C   0  0  0  0  0  0  0  0  0  0  0  0
    7.4567   -6.9464   27.2858 C   0  0  0  0  0  0  0  0  0  0  0  0
    0.1921   -5.7592   27.1123 C   0  0  0  0  0  0  0  0  0  0  0  0
    3.5517   -7.7407   25.9711 C   0  0  0  0  0  0  0  0  0  0  0  0
  1  4  4  0
  1 22  4  0
  2 20  4  0
  2 27  4  0
  3 12  4  0
  3 23  4  0
  4 25  4  0
  4 28  1  0
  5  8  4  0
  5 17  4  0
  6  7  4  0
  6 16  4  0
  7 18  4  0
  8 27  4  0
  9 13  4  0
  9 23  4  0
 10 11  1  0
 11 14  2  0
 11 27  1  0
 12 19  1  0
 12 24  4  0
 13 24  4  0
 15 18  1  0
 16 25  4  0
 16 26  4  0
 17 20  4  0
 17 28  1  0
 18 21  4  0
 21 26  4  0
 22 26  4  0
M  END
$$$$

 Created by Python create_sdf_string function

 28 30  0  0  0  0  0  0  0  0999 V2000
    5.7174   -8.4529   26.7190 C   0  0  0  0  0  0  0  0  0  0  0  0
    0.3974   -7.0711   27.5149 C   0  0  0  0  0  0  0  0  0  0  0  0
    2.5338   -7.6891   16.0102 C   0  0  0  0  0  0  0  0  0  0  0  0
    4.8690   -7.4380   26.4151 C   0  0  0  0  0  0  0  0  0  0  0  0
    2.3021   -5.6726   26.0378 C   0  0  0  0  0  0  0  0  0  0  0  0
    7.0880   -4.6163   27.0010 C   0  0  0  0  0  0  0  0  0  0  0  0
    8.3117   -4.3698   27.4436 C   0  0  0  0  0  0  0  0  0  0  0  0
    1.1339   -5.0515   26.3541 C   0  0  0  0  0  0  0  0  0  0  0  0
    4.8080   -8.0362   16.7101 C   0  0  0  0  0  0  0  0  0  0  0  0
   -1.2173   -3.9294   26.9717 O   0  0  0  0  0  0  0  0  0  0  0  0
   -1.0025   -5.0942   27.4586 C   0  0  0  0  0  0  0  0  0  0  0  0
    2.2474   -8.9123   16.6273 C   0  0  0  0  0  0  0  0  0  0  0  0
    4.4957   -9.2636   17.3041 C   0  0  0  0  0  0  0  0  0  0  0  0
   -1.8070   -5.6086   28.1920 O   0  0  0  0  0  0  0  0  0  0  0  0
   10.4296   -5.1799   28.3140 C   0  0  0  0  0  0  0  0  0  0  0  0
    6.6017   -5.9004   26.9187 C   0  0  0  0  0  0  0  0  0  0  0  0
    2.4761   -6.9940   26.4111 N   0  0  0  0  0  0  0  0  0  0  0  0
    9.1353   -5.4053   27.8239 C   0  0  0  0  0  0  0  0  0  0  0  0
    0.9922   -9.3232   16.5995 O   0  0  0  0  0  0  0  0  0  0  0  0
    1.5232   -7.6869   27.1182 C   0  0  0  0  0  0  0  0  0  0  0  0
    8.6878   -6.6715   27.7262 N   0  0  0  0  0  0  0  0  0  0  0  0
    6.9911   -8.2423   27.1808 C   0  0  0  0  0  0  0  0  0  0  0  0
    3.8436   -7.2758   16.0578 C   0  0  0  0  0  0  0  0  0  0  0  0
    3.1882   -9.7190   17.2566 C   0  0  0  0  0  0  0  0  0  0  0  0
    5.3488   -6.1737   26.5092 C   0  0  0  0  0  0  0  0  0  0  0  0
    7.4567   -6.9464   27.2858 C   0  0  0  0  0  0  0  0  0  0  0  0
    0.1921   -5.7592   27.1123 C   0  0  0  0  0  0  0  0  0  0  0  0
    3.5517   -7.7407   25.9711 C   0  0  0  0  0  0  0  0  0  0  0  0
  1  4  4  0
  1 22  4  0
  2 20  4  0
  2 27  4  0
  3 12  4  0
  3 23  4  0
  4 25  4  0
  4 28  1  0
  5  8  4  0
  5 17  4  0
  6  7  4  0
  6 16  4  0
  7 18  4  0
  8 27  4  0
  9 13  4  0
  9 23  4  0
 10 11  1  0
 11 14  2  0
 11 27  1  0
 12 19  1  0
 12 24  4  0
 13 24  4  0
 15 18  1  0
 16 25  4  0
 16 26  4  0
 17 20  4  0
 17 28  1  0
 18 21  4  0
 21 26  4  0
 22 26  4  0
M  END
$$$$

 Created by Python create_sdf_string function

 28 30  0  0  0  0  0  0  0  0999 V2000
    5.7174   -8.4529   26.7190 C   0  0  0  0  0  0  0  0  0  0  0  0
    0.3974   -7.0711   27.5149 C   0  0  0  0  0  0  0  0  0  0  0  0
    2.5338   -7.6891   16.0102 C   0  0  0  0  0  0  0  0  0  0  0  0
    4.8690   -7.4380   26.4151 C   0  0  0  0  0  0  0  0  0  0  0  0
    2.3021   -5.6726   26.0378 C   0  0  0  0  0  0  0  0  0  0  0  0
    7.0880   -4.6163   27.0010 C   0  0  0  0  0  0  0  0  0  0  0  0
    8.3117   -4.3698   27.4436 C   0  0  0  0  0  0  0  0  0  0  0  0
    1.1339   -5.0515   26.3541 C   0  0  0  0  0  0  0  0  0  0  0  0
    4.8080   -8.0362   16.7101 C   0  0  0  0  0  0  0  0  0  0  0  0
   -1.2173   -3.9294   26.9717 O   0  0  0  0  0  0  0  0  0  0  0  0
   -1.0025   -5.0942   27.4586 C   0  0  0  0  0  0  0  0  0  0  0  0
    2.2474   -8.9123   16.6273 C   0  0  0  0  0  0  0  0  0  0  0  0
    4.4957   -9.2636   17.3041 C   0  0  0  0  0  0  0  0  0  0  0  0
   -1.8070   -5.6086   28.1920 O   0  0  0  0  0  0  0  0  0  0  0  0
   10.4296   -5.1799   28.3140 C   0  0  0  0  0  0  0  0  0  0  0  0
    6.6017   -5.9004   26.9187 C   0  0  0  0  0  0  0  0  0  0  0  0
    2.4761   -6.9940   26.4111 N   0  0  0  0  0  0  0  0  0  0  0  0
    9.1353   -5.4053   27.8239 C   0  0  0  0  0  0  0  0  0  0  0  0
    0.9922   -9.3232   16.5995 O   0  0  0  0  0  0  0  0  0  0  0  0
    1.5232   -7.6869   27.1182 C   0  0  0  0  0  0  0  0  0  0  0  0
    8.6878   -6.6715   27.7262 N   0  0  0  0  0  0  0  0  0  0  0  0
    6.9911   -8.2423   27.1808 C   0  0  0  0  0  0  0  0  0  0  0  0
    3.8436   -7.2758   16.0578 C   0  0  0  0  0  0  0  0  0  0  0  0
    3.1882   -9.7190   17.2566 C   0  0  0  0  0  0  0  0  0  0  0  0
    5.3488   -6.1737   26.5092 C   0  0  0  0  0  0  0  0  0  0  0  0
    7.4567   -6.9464   27.2858 C   0  0  0  0  0  0  0  0  0  0  0  0
    0.1921   -5.7592   27.1123 C   0  0  0  0  0  0  0  0  0  0  0  0
    3.5517   -7.7407   25.9711 C   0  0  0  0  0  0  0  0  0  0  0  0
  1  4  4  0
  1 22  4  0
  2 20  4  0
  2 27  4  0
  3 12  4  0
  3 23  4  0
  4 25  4  0
  4 28  1  0
  5  8  4  0
  5 17  4  0
  6  7  4  0
  6 16  4  0
  7 18  4  0
  8 27  4  0
  9 13  4  0
  9 23  4  0
 10 11  1  0
 11 14  2  0
 11 27  1  0
 12 19  1  0
 12 24  4  0
 13 24  4  0
 15 18  1  0
 16 25  4  0
 16 26  4  0
 17 20  4  0
 17 28  1  0
 18 21  4  0
 21 26  4  0
 22 26  4  0
M  END
$$$$

 Created by Python create_sdf_string function

 28 30  0  0  0  0  0  0  0  0999 V2000
    5.7174   -8.4529   26.7190 C   0  0  0  0  0  0  0  0  0  0  0  0
    0.3974   -7.0711   27.5149 C   0  0  0  0  0  0  0  0  0  0  0  0
    2.5338   -7.6891   16.0102 C   0  0  0  0  0  0  0  0  0  0  0  0
    4.8690   -7.4380   26.4151 C   0  0  0  0  0  0  0  0  0  0  0  0
    2.3021   -5.6726   26.0378 C   0  0  0  0  0  0  0  0  0  0  0  0
    7.0880   -4.6163   27.0010 C   0  0  0  0  0  0  0  0  0  0  0  0
    8.3117   -4.3698   27.4436 C   0  0  0  0  0  0  0  0  0  0  0  0
    1.1339   -5.0515   26.3541 C   0  0  0  0  0  0  0  0  0  0  0  0
    4.8080   -8.0362   16.7101 C   0  0  0  0  0  0  0  0  0  0  0  0
   -1.2173   -3.9294   26.9717 O   0  0  0  0  0  0  0  0  0  0  0  0
   -1.0025   -5.0942   27.4586 C   0  0  0  0  0  0  0  0  0  0  0  0
    2.2474   -8.9123   16.6273 C   0  0  0  0  0  0  0  0  0  0  0  0
    4.4957   -9.2636   17.3041 C   0  0  0  0  0  0  0  0  0  0  0  0
   -1.8070   -5.6086   28.1920 O   0  0  0  0  0  0  0  0  0  0  0  0
   10.4296   -5.1799   28.3140 C   0  0  0  0  0  0  0  0  0  0  0  0
    6.6017   -5.9004   26.9187 C   0  0  0  0  0  0  0  0  0  0  0  0
    2.4761   -6.9940   26.4111 N   0  0  0  0  0  0  0  0  0  0  0  0
    9.1353   -5.4053   27.8239 C   0  0  0  0  0  0  0  0  0  0  0  0
    0.9922   -9.3232   16.5995 O   0  0  0  0  0  0  0  0  0  0  0  0
    1.5232   -7.6869   27.1182 C   0  0  0  0  0  0  0  0  0  0  0  0
    8.6878   -6.6715   27.7262 N   0  0  0  0  0  0  0  0  0  0  0  0
    6.9911   -8.2423   27.1808 C   0  0  0  0  0  0  0  0  0  0  0  0
    3.8436   -7.2758   16.0578 C   0  0  0  0  0  0  0  0  0  0  0  0
    3.1882   -9.7190   17.2566 C   0  0  0  0  0  0  0  0  0  0  0  0
    5.3488   -6.1737   26.5092 C   0  0  0  0  0  0  0  0  0  0  0  0
    7.4567   -6.9464   27.2858 C   0  0  0  0  0  0  0  0  0  0  0  0
    0.1921   -5.7592   27.1123 C   0  0  0  0  0  0  0  0  0  0  0  0
    3.5517   -7.7407   25.9711 C   0  0  0  0  0  0  0  0  0  0  0  0
  1  4  4  0
  1 22  4  0
  2 20  4  0
  2 27  4  0
  3 12  4  0
  3 23  4  0
  4 25  4  0
  4 28  1  0
  5  8  4  0
  5 17  4  0
  6  7  4  0
  6 16  4  0
  7 18  4  0
  8 27  4  0
  9 13  4  0
  9 23  4  0
 10 11  1  0
 11 14  2  0
 11 27  1  0
 12 19  1  0
 12 24  4  0
 13 24  4  0
 15 18  1  0
 16 25  4  0
 16 26  4  0
 17 20  4  0
 17 28  1  0
 18 21  4  0
 21 26  4  0
 22 26  4  0
M  END
$$$$

 Created by Python create_sdf_string function

 28 30  0  0  0  0  0  0  0  0999 V2000
    5.7174   -8.4529   26.7190 C   0  0  0  0  0  0  0  0  0  0  0  0
    0.3974   -7.0711   27.5149 C   0  0  0  0  0  0  0  0  0  0  0  0
    2.5338   -7.6891   16.0102 C   0  0  0  0  0  0  0  0  0  0  0  0
    4.8690   -7.4380   26.4151 C   0  0  0  0  0  0  0  0  0  0  0  0
    2.3021   -5.6726   26.0378 C   0  0  0  0  0  0  0  0  0  0  0  0
    7.0880   -4.6163   27.0010 C   0  0  0  0  0  0  0  0  0  0  0  0
    8.3117   -4.3698   27.4436 C   0  0  0  0  0  0  0  0  0  0  0  0
    1.1339   -5.0515   26.3541 C   0  0  0  0  0  0  0  0  0  0  0  0
    4.8080   -8.0362   16.7101 C   0  0  0  0  0  0  0  0  0  0  0  0
   -1.2173   -3.9294   26.9717 O   0  0  0  0  0  0  0  0  0  0  0  0
   -1.0025   -5.0942   27.4586 C   0  0  0  0  0  0  0  0  0  0  0  0
    2.2474   -8.9123   16.6273 C   0  0  0  0  0  0  0  0  0  0  0  0
    4.4957   -9.2636   17.3041 C   0  0  0  0  0  0  0  0  0  0  0  0
   -1.8070   -5.6086   28.1920 O   0  0  0  0  0  0  0  0  0  0  0  0
   10.4296   -5.1799   28.3140 C   0  0  0  0  0  0  0  0  0  0  0  0
    6.6017   -5.9004   26.9187 C   0  0  0  0  0  0  0  0  0  0  0  0
    2.4761   -6.9940   26.4111 N   0  0  0  0  0  0  0  0  0  0  0  0
    9.1353   -5.4053   27.8239 C   0  0  0  0  0  0  0  0  0  0  0  0
    0.9922   -9.3232   16.5995 O   0  0  0  0  0  0  0  0  0  0  0  0
    1.5232   -7.6869   27.1182 C   0  0  0  0  0  0  0  0  0  0  0  0
    8.6878   -6.6715   27.7262 N   0  0  0  0  0  0  0  0  0  0  0  0
    6.9911   -8.2423   27.1808 C   0  0  0  0  0  0  0  0  0  0  0  0
    3.8436   -7.2758   16.0578 C   0  0  0  0  0  0  0  0  0  0  0  0
    3.1882   -9.7190   17.2566 C   0  0  0  0  0  0  0  0  0  0  0  0
    5.3488   -6.1737   26.5092 C   0  0  0  0  0  0  0  0  0  0  0  0
    7.4567   -6.9464   27.2858 C   0  0  0  0  0  0  0  0  0  0  0  0
    0.1921   -5.7592   27.1123 C   0  0  0  0  0  0  0  0  0  0  0  0
    3.5517   -7.7407   25.9711 C   0  0  0  0  0  0  0  0  0  0  0  0
  1  4  4  0
  1 22  4  0
  2 20  4  0
  2 27  4  0
  3 12  4  0
  3 23  4  0
  4 25  4  0
  4 28  1  0
  5  8  4  0
  5 17  4  0
  6  7  4  0
  6 16  4  0
  7 18  4  0
  8 27  4  0
  9 13  4  0
  9 23  4  0
 10 11  1  0
 11 14  2  0
 11 27  1  0
 12 19  1  0
 12 24  4  0
 13 24  4  0
 15 18  1  0
 16 25  4  0
 16 26  4  0
 17 20  4  0
 17 28  1  0
 18 21  4  0
 21 26  4  0
 22 26  4  0
M  END
$$$$

 Created by Python create_sdf_string function

 28 30  0  0  0  0  0  0  0  0999 V2000
    5.7174   -8.4529   26.7190 C   0  0  0  0  0  0  0  0  0  0  0  0
    0.3974   -7.0711   27.5149 C   0  0  0  0  0  0  0  0  0  0  0  0
    2.5338   -7.6891   16.0102 C   0  0  0  0  0  0  0  0  0  0  0  0
    4.8690   -7.4380   26.4151 C   0  0  0  0  0  0  0  0  0  0  0  0
    2.3021   -5.6726   26.0378 C   0  0  0  0  0  0  0  0  0  0  0  0
    7.0880   -4.6163   27.0010 C   0  0  0  0  0  0  0  0  0  0  0  0
    8.3117   -4.3698   27.4436 C   0  0  0  0  0  0  0  0  0  0  0  0
    1.1339   -5.0515   26.3541 C   0  0  0  0  0  0  0  0  0  0  0  0
    4.8080   -8.0362   16.7101 C   0  0  0  0  0  0  0  0  0  0  0  0
   -1.2173   -3.9294   26.9717 O   0  0  0  0  0  0  0  0  0  0  0  0
   -1.0025   -5.0942   27.4586 C   0  0  0  0  0  0  0  0  0  0  0  0
    2.2474   -8.9123   16.6273 C   0  0  0  0  0  0  0  0  0  0  0  0
    4.4957   -9.2636   17.3041 C   0  0  0  0  0  0  0  0  0  0  0  0
   -1.8070   -5.6086   28.1920 O   0  0  0  0  0  0  0  0  0  0  0  0
   10.4296   -5.1799   28.3140 C   0  0  0  0  0  0  0  0  0  0  0  0
    6.6017   -5.9004   26.9187 C   0  0  0  0  0  0  0  0  0  0  0  0
    2.4761   -6.9940   26.4111 N   0  0  0  0  0  0  0  0  0  0  0  0
    9.1353   -5.4053   27.8239 C   0  0  0  0  0  0  0  0  0  0  0  0
    0.9922   -9.3232   16.5995 O   0  0  0  0  0  0  0  0  0  0  0  0
    1.5232   -7.6869   27.1182 C   0  0  0  0  0  0  0  0  0  0  0  0
    8.6878   -6.6715   27.7262 N   0  0  0  0  0  0  0  0  0  0  0  0
    6.9911   -8.2423   27.1808 C   0  0  0  0  0  0  0  0  0  0  0  0
    3.8436   -7.2758   16.0578 C   0  0  0  0  0  0  0  0  0  0  0  0
    3.1882   -9.7190   17.2566 C   0  0  0  0  0  0  0  0  0  0  0  0
    5.3488   -6.1737   26.5092 C   0  0  0  0  0  0  0  0  0  0  0  0
    7.4567   -6.9464   27.2858 C   0  0  0  0  0  0  0  0  0  0  0  0
    0.1921   -5.7592   27.1123 C   0  0  0  0  0  0  0  0  0  0  0  0
    3.5517   -7.7407   25.9711 C   0  0  0  0  0  0  0  0  0  0  0  0
  1  4  4  0
  1 22  4  0
  2 20  4  0
  2 27  4  0
  3 12  4  0
  3 23  4  0
  4 25  4  0
  4 28  1  0
  5  8  4  0
  5 17  4  0
  6  7  4  0
  6 16  4  0
  7 18  4  0
  8 27  4  0
  9 13  4  0
  9 23  4  0
 10 11  1  0
 11 14  2  0
 11 27  1  0
 12 19  1  0
 12 24  4  0
 13 24  4  0
 15 18  1  0
 16 25  4  0
 16 26  4  0
 17 20  4  0
 17 28  1  0
 18 21  4  0
 21 26  4  0
 22 26  4  0
M  END
$$$$

 Created by Python create_sdf_string function

 28 30  0  0  0  0  0  0  0  0999 V2000
    5.7174   -8.4529   26.7190 C   0  0  0  0  0  0  0  0  0  0  0  0
    0.3974   -7.0711   27.5149 C   0  0  0  0  0  0  0  0  0  0  0  0
    2.5338   -7.6891   16.0102 C   0  0  0  0  0  0  0  0  0  0  0  0
    4.8690   -7.4380   26.4151 C   0  0  0  0  0  0  0  0  0  0  0  0
    2.3021   -5.6726   26.0378 C   0  0  0  0  0  0  0  0  0  0  0  0
    7.0880   -4.6163   27.0010 C   0  0  0  0  0  0  0  0  0  0  0  0
    8.3117   -4.3698   27.4436 C   0  0  0  0  0  0  0  0  0  0  0  0
    1.1339   -5.0515   26.3541 C   0  0  0  0  0  0  0  0  0  0  0  0
    4.8080   -8.0362   16.7101 C   0  0  0  0  0  0  0  0  0  0  0  0
   -1.2173   -3.9294   26.9717 O   0  0  0  0  0  0  0  0  0  0  0  0
   -1.0025   -5.0942   27.4586 C   0  0  0  0  0  0  0  0  0  0  0  0
    2.2474   -8.9123   16.6273 C   0  0  0  0  0  0  0  0  0  0  0  0
    4.4957   -9.2636   17.3041 C   0  0  0  0  0  0  0  0  0  0  0  0
   -1.8070   -5.6086   28.1920 O   0  0  0  0  0  0  0  0  0  0  0  0
   10.4296   -5.1799   28.3140 C   0  0  0  0  0  0  0  0  0  0  0  0
    6.6017   -5.9004   26.9187 C   0  0  0  0  0  0  0  0  0  0  0  0
    2.4761   -6.9940   26.4111 N   0  0  0  0  0  0  0  0  0  0  0  0
    9.1353   -5.4053   27.8239 C   0  0  0  0  0  0  0  0  0  0  0  0
    0.9922   -9.3232   16.5995 O   0  0  0  0  0  0  0  0  0  0  0  0
    1.5232   -7.6869   27.1182 C   0  0  0  0  0  0  0  0  0  0  0  0
    8.6878   -6.6715   27.7262 N   0  0  0  0  0  0  0  0  0  0  0  0
    6.9911   -8.2423   27.1808 C   0  0  0  0  0  0  0  0  0  0  0  0
    3.8436   -7.2758   16.0578 C   0  0  0  0  0  0  0  0  0  0  0  0
    3.1882   -9.7190   17.2566 C   0  0  0  0  0  0  0  0  0  0  0  0
    5.3488   -6.1737   26.5092 C   0  0  0  0  0  0  0  0  0  0  0  0
    7.4567   -6.9464   27.2858 C   0  0  0  0  0  0  0  0  0  0  0  0
    0.1921   -5.7592   27.1123 C   0  0  0  0  0  0  0  0  0  0  0  0
    3.5517   -7.7407   25.9711 C   0  0  0  0  0  0  0  0  0  0  0  0
  1  4  4  0
  1 22  4  0
  2 20  4  0
  2 27  4  0
  3 12  4  0
  3 23  4  0
  4 25  4  0
  4 28  1  0
  5  8  4  0
  5 17  4  0
  6  7  4  0
  6 16  4  0
  7 18  4  0
  8 27  4  0
  9 13  4  0
  9 23  4  0
 10 11  1  0
 11 14  2  0
 11 27  1  0
 12 19  1  0
 12 24  4  0
 13 24  4  0
 15 18  1  0
 16 25  4  0
 16 26  4  0
 17 20  4  0
 17 28  1  0
 18 21  4  0
 21 26  4  0
 22 26  4  0
M  END
$$$$

 Created by Python create_sdf_string function

 28 30  0  0  0  0  0  0  0  0999 V2000
    5.7174   -8.4529   26.7190 C   0  0  0  0  0  0  0  0  0  0  0  0
    0.3974   -7.0711   27.5149 C   0  0  0  0  0  0  0  0  0  0  0  0
    2.5338   -7.6891   16.0102 C   0  0  0  0  0  0  0  0  0  0  0  0
    4.8690   -7.4380   26.4151 C   0  0  0  0  0  0  0  0  0  0  0  0
    2.3021   -5.6726   26.0378 C   0  0  0  0  0  0  0  0  0  0  0  0
    7.0880   -4.6163   27.0010 C   0  0  0  0  0  0  0  0  0  0  0  0
    8.3117   -4.3698   27.4436 C   0  0  0  0  0  0  0  0  0  0  0  0
    1.1339   -5.0515   26.3541 C   0  0  0  0  0  0  0  0  0  0  0  0
    4.8080   -8.0362   16.7101 C   0  0  0  0  0  0  0  0  0  0  0  0
   -1.2173   -3.9294   26.9717 O   0  0  0  0  0  0  0  0  0  0  0  0
   -1.0025   -5.0942   27.4586 C   0  0  0  0  0  0  0  0  0  0  0  0
    2.2474   -8.9123   16.6273 C   0  0  0  0  0  0  0  0  0  0  0  0
    4.4957   -9.2636   17.3041 C   0  0  0  0  0  0  0  0  0  0  0  0
   -1.8070   -5.6086   28.1920 O   0  0  0  0  0  0  0  0  0  0  0  0
   10.4296   -5.1799   28.3140 C   0  0  0  0  0  0  0  0  0  0  0  0
    6.6017   -5.9004   26.9187 C   0  0  0  0  0  0  0  0  0  0  0  0
    2.4761   -6.9940   26.4111 N   0  0  0  0  0  0  0  0  0  0  0  0
    9.1353   -5.4053   27.8239 C   0  0  0  0  0  0  0  0  0  0  0  0
    0.9922   -9.3232   16.5995 O   0  0  0  0  0  0  0  0  0  0  0  0
    1.5232   -7.6869   27.1182 C   0  0  0  0  0  0  0  0  0  0  0  0
    8.6878   -6.6715   27.7262 N   0  0  0  0  0  0  0  0  0  0  0  0
    6.9911   -8.2423   27.1808 C   0  0  0  0  0  0  0  0  0  0  0  0
    3.8436   -7.2758   16.0578 C   0  0  0  0  0  0  0  0  0  0  0  0
    3.1882   -9.7190   17.2566 C   0  0  0  0  0  0  0  0  0  0  0  0
    5.3488   -6.1737   26.5092 C   0  0  0  0  0  0  0  0  0  0  0  0
    7.4567   -6.9464   27.2858 C   0  0  0  0  0  0  0  0  0  0  0  0
    0.1921   -5.7592   27.1123 C   0  0  0  0  0  0  0  0  0  0  0  0
    3.5517   -7.7407   25.9711 C   0  0  0  0  0  0  0  0  0  0  0  0
  1  4  4  0
  1 22  4  0
  2 20  4  0
  2 27  4  0
  3 12  4  0
  3 23  4  0
  4 25  4  0
  4 28  1  0
  5  8  4  0
  5 17  4  0
  6  7  4  0
  6 16  4  0
  7 18  4  0
  8 27  4  0
  9 13  4  0
  9 23  4  0
 10 11  1  0
 11 14  2  0
 11 27  1  0
 12 19  1  0
 12 24  4  0
 13 24  4  0
 15 18  1  0
 16 25  4  0
 16 26  4  0
 17 20  4  0
 17 28  1  0
 18 21  4  0
 21 26  4  0
 22 26  4  0
M  END
$$$$

 Created by Python create_sdf_string function

 28 30  0  0  0  0  0  0  0  0999 V2000
    5.7174   -8.4529   26.7190 C   0  0  0  0  0  0  0  0  0  0  0  0
    0.3974   -7.0711   27.5149 C   0  0  0  0  0  0  0  0  0  0  0  0
    2.5338   -7.6891   16.0102 C   0  0  0  0  0  0  0  0  0  0  0  0
    4.8690   -7.4380   26.4151 C   0  0  0  0  0  0  0  0  0  0  0  0
    2.3021   -5.6726   26.0378 C   0  0  0  0  0  0  0  0  0  0  0  0
    7.0880   -4.6163   27.0010 C   0  0  0  0  0  0  0  0  0  0  0  0
    8.3117   -4.3698   27.4436 C   0  0  0  0  0  0  0  0  0  0  0  0
    1.1339   -5.0515   26.3541 C   0  0  0  0  0  0  0  0  0  0  0  0
    4.8080   -8.0362   16.7101 C   0  0  0  0  0  0  0  0  0  0  0  0
   -1.2173   -3.9294   26.9717 O   0  0  0  0  0  0  0  0  0  0  0  0
   -1.0025   -5.0942   27.4586 C   0  0  0  0  0  0  0  0  0  0  0  0
    2.2474   -8.9123   16.6273 C   0  0  0  0  0  0  0  0  0  0  0  0
    4.4957   -9.2636   17.3041 C   0  0  0  0  0  0  0  0  0  0  0  0
   -1.8070   -5.6086   28.1920 O   0  0  0  0  0  0  0  0  0  0  0  0
   10.4296   -5.1799   28.3140 C   0  0  0  0  0  0  0  0  0  0  0  0
    6.6017   -5.9004   26.9187 C   0  0  0  0  0  0  0  0  0  0  0  0
    2.4761   -6.9940   26.4111 N   0  0  0  0  0  0  0  0  0  0  0  0
    9.1353   -5.4053   27.8239 C   0  0  0  0  0  0  0  0  0  0  0  0
    0.9922   -9.3232   16.5995 O   0  0  0  0  0  0  0  0  0  0  0  0
    1.5232   -7.6869   27.1182 C   0  0  0  0  0  0  0  0  0  0  0  0
    8.6878   -6.6715   27.7262 N   0  0  0  0  0  0  0  0  0  0  0  0
    6.9911   -8.2423   27.1808 C   0  0  0  0  0  0  0  0  0  0  0  0
    3.8436   -7.2758   16.0578 C   0  0  0  0  0  0  0  0  0  0  0  0
    3.1882   -9.7190   17.2566 C   0  0  0  0  0  0  0  0  0  0  0  0
    5.3488   -6.1737   26.5092 C   0  0  0  0  0  0  0  0  0  0  0  0
    7.4567   -6.9464   27.2858 C   0  0  0  0  0  0  0  0  0  0  0  0
    0.1921   -5.7592   27.1123 C   0  0  0  0  0  0  0  0  0  0  0  0
    3.5517   -7.7407   25.9711 C   0  0  0  0  0  0  0  0  0  0  0  0
  1  4  4  0
  1 22  4  0
  2 20  4  0
  2 27  4  0
  3 12  4  0
  3 23  4  0
  4 25  4  0
  4 28  1  0
  5  8  4  0
  5 17  4  0
  6  7  4  0
  6 16  4  0
  7 18  4  0
  8 27  4  0
  9 13  4  0
  9 23  4  0
 10 11  1  0
 11 14  2  0
 11 27  1  0
 12 19  1  0
 12 24  4  0
 13 24  4  0
 15 18  1  0
 16 25  4  0
 16 26  4  0
 17 20  4  0
 17 28  1  0
 18 21  4  0
 21 26  4  0
 22 26  4  0
M  END
$$$$

 Created by Python create_sdf_string function

 28 30  0  0  0  0  0  0  0  0999 V2000
    5.7174   -8.4529   26.7190 C   0  0  0  0  0  0  0  0  0  0  0  0
    0.3974   -7.0711   27.5149 C   0  0  0  0  0  0  0  0  0  0  0  0
    2.5338   -7.6891   16.0102 C   0  0  0  0  0  0  0  0  0  0  0  0
    4.8690   -7.4380   26.4151 C   0  0  0  0  0  0  0  0  0  0  0  0
    2.3021   -5.6726   26.0378 C   0  0  0  0  0  0  0  0  0  0  0  0
    7.0880   -4.6163   27.0010 C   0  0  0  0  0  0  0  0  0  0  0  0
    8.3117   -4.3698   27.4436 C   0  0  0  0  0  0  0  0  0  0  0  0
    1.1339   -5.0515   26.3541 C   0  0  0  0  0  0  0  0  0  0  0  0
    4.8080   -8.0362   16.7101 C   0  0  0  0  0  0  0  0  0  0  0  0
   -1.2173   -3.9294   26.9717 O   0  0  0  0  0  0  0  0  0  0  0  0
   -1.0025   -5.0942   27.4586 C   0  0  0  0  0  0  0  0  0  0  0  0
    2.2474   -8.9123   16.6273 C   0  0  0  0  0  0  0  0  0  0  0  0
    4.4957   -9.2636   17.3041 C   0  0  0  0  0  0  0  0  0  0  0  0
   -1.8070   -5.6086   28.1920 O   0  0  0  0  0  0  0  0  0  0  0  0
   10.4296   -5.1799   28.3140 C   0  0  0  0  0  0  0  0  0  0  0  0
    6.6017   -5.9004   26.9187 C   0  0  0  0  0  0  0  0  0  0  0  0
    2.4761   -6.9940   26.4111 N   0  0  0  0  0  0  0  0  0  0  0  0
    9.1353   -5.4053   27.8239 C   0  0  0  0  0  0  0  0  0  0  0  0
    0.9922   -9.3232   16.5995 O   0  0  0  0  0  0  0  0  0  0  0  0
    1.5232   -7.6869   27.1182 C   0  0  0  0  0  0  0  0  0  0  0  0
    8.6878   -6.6715   27.7262 N   0  0  0  0  0  0  0  0  0  0  0  0
    6.9911   -8.2423   27.1808 C   0  0  0  0  0  0  0  0  0  0  0  0
    3.8436   -7.2758   16.0578 C   0  0  0  0  0  0  0  0  0  0  0  0
    3.1882   -9.7190   17.2566 C   0  0  0  0  0  0  0  0  0  0  0  0
    5.3488   -6.1737   26.5092 C   0  0  0  0  0  0  0  0  0  0  0  0
    7.4567   -6.9464   27.2858 C   0  0  0  0  0  0  0  0  0  0  0  0
    0.1921   -5.7592   27.1123 C   0  0  0  0  0  0  0  0  0  0  0  0
    3.5517   -7.7407   25.9711 C   0  0  0  0  0  0  0  0  0  0  0  0
  1  4  4  0
  1 22  4  0
  2 20  4  0
  2 27  4  0
  3 12  4  0
  3 23  4  0
  4 25  4  0
  4 28  1  0
  5  8  4  0
  5 17  4  0
  6  7  4  0
  6 16  4  0
  7 18  4  0
  8 27  4  0
  9 13  4  0
  9 23  4  0
 10 11  1  0
 11 14  2  0
 11 27  1  0
 12 19  1  0
 12 24  4  0
 13 24  4  0
 15 18  1  0
 16 25  4  0
 16 26  4  0
 17 20  4  0
 17 28  1  0
 18 21  4  0
 21 26  4  0
 22 26  4  0
M  END
$$$$

 Created by Python create_sdf_string function

 28 30  0  0  0  0  0  0  0  0999 V2000
    5.7174   -8.4529   26.7190 C   0  0  0  0  0  0  0  0  0  0  0  0
    0.3974   -7.0711   27.5149 C   0  0  0  0  0  0  0  0  0  0  0  0
    2.5338   -7.6891   16.0102 C   0  0  0  0  0  0  0  0  0  0  0  0
    4.8690   -7.4380   26.4151 C   0  0  0  0  0  0  0  0  0  0  0  0
    2.3021   -5.6726   26.0378 C   0  0  0  0  0  0  0  0  0  0  0  0
    7.0880   -4.6163   27.0010 C   0  0  0  0  0  0  0  0  0  0  0  0
    8.3117   -4.3698   27.4436 C   0  0  0  0  0  0  0  0  0  0  0  0
    1.1339   -5.0515   26.3541 C   0  0  0  0  0  0  0  0  0  0  0  0
    4.8080   -8.0362   16.7101 C   0  0  0  0  0  0  0  0  0  0  0  0
   -1.2173   -3.9294   26.9717 O   0  0  0  0  0  0  0  0  0  0  0  0
   -1.0025   -5.0942   27.4586 C   0  0  0  0  0  0  0  0  0  0  0  0
    2.2474   -8.9123   16.6273 C   0  0  0  0  0  0  0  0  0  0  0  0
    4.4957   -9.2636   17.3041 C   0  0  0  0  0  0  0  0  0  0  0  0
   -1.8070   -5.6086   28.1920 O   0  0  0  0  0  0  0  0  0  0  0  0
   10.4296   -5.1799   28.3140 C   0  0  0  0  0  0  0  0  0  0  0  0
    6.6017   -5.9004   26.9187 C   0  0  0  0  0  0  0  0  0  0  0  0
    2.4761   -6.9940   26.4111 N   0  0  0  0  0  0  0  0  0  0  0  0
    9.1353   -5.4053   27.8239 C   0  0  0  0  0  0  0  0  0  0  0  0
    0.9922   -9.3232   16.5995 O   0  0  0  0  0  0  0  0  0  0  0  0
    1.5232   -7.6869   27.1182 C   0  0  0  0  0  0  0  0  0  0  0  0
    8.6878   -6.6715   27.7262 N   0  0  0  0  0  0  0  0  0  0  0  0
    6.9911   -8.2423   27.1808 C   0  0  0  0  0  0  0  0  0  0  0  0
    3.8436   -7.2758   16.0578 C   0  0  0  0  0  0  0  0  0  0  0  0
    3.1882   -9.7190   17.2566 C   0  0  0  0  0  0  0  0  0  0  0  0
    5.3488   -6.1737   26.5092 C   0  0  0  0  0  0  0  0  0  0  0  0
    7.4567   -6.9464   27.2858 C   0  0  0  0  0  0  0  0  0  0  0  0
    0.1921   -5.7592   27.1123 C   0  0  0  0  0  0  0  0  0  0  0  0
    3.5517   -7.7407   25.9711 C   0  0  0  0  0  0  0  0  0  0  0  0
  1  4  4  0
  1 22  4  0
  2 20  4  0
  2 27  4  0
  3 12  4  0
  3 23  4  0
  4 25  4  0
  4 28  1  0
  5  8  4  0
  5 17  4  0
  6  7  4  0
  6 16  4  0
  7 18  4  0
  8 27  4  0
  9 13  4  0
  9 23  4  0
 10 11  1  0
 11 14  2  0
 11 27  1  0
 12 19  1  0
 12 24  4  0
 13 24  4  0
 15 18  1  0
 16 25  4  0
 16 26  4  0
 17 20  4  0
 17 28  1  0
 18 21  4  0
 21 26  4  0
 22 26  4  0
M  END
$$$$

 Created by Python create_sdf_string function

 28 30  0  0  0  0  0  0  0  0999 V2000
    5.7174   -8.4529   26.7190 C   0  0  0  0  0  0  0  0  0  0  0  0
    0.3974   -7.0711   27.5149 C   0  0  0  0  0  0  0  0  0  0  0  0
    2.5338   -7.6891   16.0102 C   0  0  0  0  0  0  0  0  0  0  0  0
    4.8690   -7.4380   26.4151 C   0  0  0  0  0  0  0  0  0  0  0  0
    2.3021   -5.6726   26.0378 C   0  0  0  0  0  0  0  0  0  0  0  0
    7.0880   -4.6163   27.0010 C   0  0  0  0  0  0  0  0  0  0  0  0
    8.3117   -4.3698   27.4436 C   0  0  0  0  0  0  0  0  0  0  0  0
    1.1339   -5.0515   26.3541 C   0  0  0  0  0  0  0  0  0  0  0  0
    4.8080   -8.0362   16.7101 C   0  0  0  0  0  0  0  0  0  0  0  0
   -1.2173   -3.9294   26.9717 O   0  0  0  0  0  0  0  0  0  0  0  0
   -1.0025   -5.0942   27.4586 C   0  0  0  0  0  0  0  0  0  0  0  0
    2.2474   -8.9123   16.6273 C   0  0  0  0  0  0  0  0  0  0  0  0
    4.4957   -9.2636   17.3041 C   0  0  0  0  0  0  0  0  0  0  0  0
   -1.8070   -5.6086   28.1920 O   0  0  0  0  0  0  0  0  0  0  0  0
   10.4296   -5.1799   28.3140 C   0  0  0  0  0  0  0  0  0  0  0  0
    6.6017   -5.9004   26.9187 C   0  0  0  0  0  0  0  0  0  0  0  0
    2.4761   -6.9940   26.4111 N   0  0  0  0  0  0  0  0  0  0  0  0
    9.1353   -5.4053   27.8239 C   0  0  0  0  0  0  0  0  0  0  0  0
    0.9922   -9.3232   16.5995 O   0  0  0  0  0  0  0  0  0  0  0  0
    1.5232   -7.6869   27.1182 C   0  0  0  0  0  0  0  0  0  0  0  0
    8.6878   -6.6715   27.7262 N   0  0  0  0  0  0  0  0  0  0  0  0
    6.9911   -8.2423   27.1808 C   0  0  0  0  0  0  0  0  0  0  0  0
    3.8436   -7.2758   16.0578 C   0  0  0  0  0  0  0  0  0  0  0  0
    3.1882   -9.7190   17.2566 C   0  0  0  0  0  0  0  0  0  0  0  0
    5.3488   -6.1737   26.5092 C   0  0  0  0  0  0  0  0  0  0  0  0
    7.4567   -6.9464   27.2858 C   0  0  0  0  0  0  0  0  0  0  0  0
    0.1921   -5.7592   27.1123 C   0  0  0  0  0  0  0  0  0  0  0  0
    3.5517   -7.7407   25.9711 C   0  0  0  0  0  0  0  0  0  0  0  0
  1  4  4  0
  1 22  4  0
  2 20  4  0
  2 27  4  0
  3 12  4  0
  3 23  4  0
  4 25  4  0
  4 28  1  0
  5  8  4  0
  5 17  4  0
  6  7  4  0
  6 16  4  0
  7 18  4  0
  8 27  4  0
  9 13  4  0
  9 23  4  0
 10 11  1  0
 11 14  2  0
 11 27  1  0
 12 19  1  0
 12 24  4  0
 13 24  4  0
 15 18  1  0
 16 25  4  0
 16 26  4  0
 17 20  4  0
 17 28  1  0
 18 21  4  0
 21 26  4  0
 22 26  4  0
M  END
$$$$

 Created by Python create_sdf_string function

 28 30  0  0  0  0  0  0  0  0999 V2000
    5.7174   -8.4529   26.7190 C   0  0  0  0  0  0  0  0  0  0  0  0
    0.3974   -7.0711   27.5149 C   0  0  0  0  0  0  0  0  0  0  0  0
    2.5338   -7.6891   16.0102 C   0  0  0  0  0  0  0  0  0  0  0  0
    4.8690   -7.4380   26.4151 C   0  0  0  0  0  0  0  0  0  0  0  0
    2.3021   -5.6726   26.0378 C   0  0  0  0  0  0  0  0  0  0  0  0
    7.0880   -4.6163   27.0010 C   0  0  0  0  0  0  0  0  0  0  0  0
    8.3117   -4.3698   27.4436 C   0  0  0  0  0  0  0  0  0  0  0  0
    1.1339   -5.0515   26.3541 C   0  0  0  0  0  0  0  0  0  0  0  0
    4.8080   -8.0362   16.7101 C   0  0  0  0  0  0  0  0  0  0  0  0
   -1.2173   -3.9294   26.9717 O   0  0  0  0  0  0  0  0  0  0  0  0
   -1.0025   -5.0942   27.4586 C   0  0  0  0  0  0  0  0  0  0  0  0
    2.2474   -8.9123   16.6273 C   0  0  0  0  0  0  0  0  0  0  0  0
    4.4957   -9.2636   17.3041 C   0  0  0  0  0  0  0  0  0  0  0  0
   -1.8070   -5.6086   28.1920 O   0  0  0  0  0  0  0  0  0  0  0  0
   10.4296   -5.1799   28.3140 C   0  0  0  0  0  0  0  0  0  0  0  0
    6.6017   -5.9004   26.9187 C   0  0  0  0  0  0  0  0  0  0  0  0
    2.4761   -6.9940   26.4111 N   0  0  0  0  0  0  0  0  0  0  0  0
    9.1353   -5.4053   27.8239 C   0  0  0  0  0  0  0  0  0  0  0  0
    0.9922   -9.3232   16.5995 O   0  0  0  0  0  0  0  0  0  0  0  0
    1.5232   -7.6869   27.1182 C   0  0  0  0  0  0  0  0  0  0  0  0
    8.6878   -6.6715   27.7262 N   0  0  0  0  0  0  0  0  0  0  0  0
    6.9911   -8.2423   27.1808 C   0  0  0  0  0  0  0  0  0  0  0  0
    3.8436   -7.2758   16.0578 C   0  0  0  0  0  0  0  0  0  0  0  0
    3.1882   -9.7190   17.2566 C   0  0  0  0  0  0  0  0  0  0  0  0
    5.3488   -6.1737   26.5092 C   0  0  0  0  0  0  0  0  0  0  0  0
    7.4567   -6.9464   27.2858 C   0  0  0  0  0  0  0  0  0  0  0  0
    0.1921   -5.7592   27.1123 C   0  0  0  0  0  0  0  0  0  0  0  0
    3.5517   -7.7407   25.9711 C   0  0  0  0  0  0  0  0  0  0  0  0
  1  4  4  0
  1 22  4  0
  2 20  4  0
  2 27  4  0
  3 12  4  0
  3 23  4  0
  4 25  4  0
  4 28  1  0
  5  8  4  0
  5 17  4  0
  6  7  4  0
  6 16  4  0
  7 18  4  0
  8 27  4  0
  9 13  4  0
  9 23  4  0
 10 11  1  0
 11 14  2  0
 11 27  1  0
 12 19  1  0
 12 24  4  0
 13 24  4  0
 15 18  1  0
 16 25  4  0
 16 26  4  0
 17 20  4  0
 17 28  1  0
 18 21  4  0
 21 26  4  0
 22 26  4  0
M  END
$$$$

 Created by Python create_sdf_string function

 28 30  0  0  0  0  0  0  0  0999 V2000
    5.7174   -8.4529   26.7190 C   0  0  0  0  0  0  0  0  0  0  0  0
    0.3974   -7.0711   27.5149 C   0  0  0  0  0  0  0  0  0  0  0  0
    2.5338   -7.6891   16.0102 C   0  0  0  0  0  0  0  0  0  0  0  0
    4.8690   -7.4380   26.4151 C   0  0  0  0  0  0  0  0  0  0  0  0
    2.3021   -5.6726   26.0378 C   0  0  0  0  0  0  0  0  0  0  0  0
    7.0880   -4.6163   27.0010 C   0  0  0  0  0  0  0  0  0  0  0  0
    8.3117   -4.3698   27.4436 C   0  0  0  0  0  0  0  0  0  0  0  0
    1.1339   -5.0515   26.3541 C   0  0  0  0  0  0  0  0  0  0  0  0
    4.8080   -8.0362   16.7101 C   0  0  0  0  0  0  0  0  0  0  0  0
   -1.2173   -3.9294   26.9717 O   0  0  0  0  0  0  0  0  0  0  0  0
   -1.0025   -5.0942   27.4586 C   0  0  0  0  0  0  0  0  0  0  0  0
    2.2474   -8.9123   16.6273 C   0  0  0  0  0  0  0  0  0  0  0  0
    4.4957   -9.2636   17.3041 C   0  0  0  0  0  0  0  0  0  0  0  0
   -1.8070   -5.6086   28.1920 O   0  0  0  0  0  0  0  0  0  0  0  0
   10.4296   -5.1799   28.3140 C   0  0  0  0  0  0  0  0  0  0  0  0
    6.6017   -5.9004   26.9187 C   0  0  0  0  0  0  0  0  0  0  0  0
    2.4761   -6.9940   26.4111 N   0  0  0  0  0  0  0  0  0  0  0  0
    9.1353   -5.4053   27.8239 C   0  0  0  0  0  0  0  0  0  0  0  0
    0.9922   -9.3232   16.5995 O   0  0  0  0  0  0  0  0  0  0  0  0
    1.5232   -7.6869   27.1182 C   0  0  0  0  0  0  0  0  0  0  0  0
    8.6878   -6.6715   27.7262 N   0  0  0  0  0  0  0  0  0  0  0  0
    6.9911   -8.2423   27.1808 C   0  0  0  0  0  0  0  0  0  0  0  0
    3.8436   -7.2758   16.0578 C   0  0  0  0  0  0  0  0  0  0  0  0
    3.1882   -9.7190   17.2566 C   0  0  0  0  0  0  0  0  0  0  0  0
    5.3488   -6.1737   26.5092 C   0  0  0  0  0  0  0  0  0  0  0  0
    7.4567   -6.9464   27.2858 C   0  0  0  0  0  0  0  0  0  0  0  0
    0.1921   -5.7592   27.1123 C   0  0  0  0  0  0  0  0  0  0  0  0
    3.5517   -7.7407   25.9711 C   0  0  0  0  0  0  0  0  0  0  0  0
  1  4  4  0
  1 22  4  0
  2 20  4  0
  2 27  4  0
  3 12  4  0
  3 23  4  0
  4 25  4  0
  4 28  1  0
  5  8  4  0
  5 17  4  0
  6  7  4  0
  6 16  4  0
  7 18  4  0
  8 27  4  0
  9 13  4  0
  9 23  4  0
 10 11  1  0
 11 14  2  0
 11 27  1  0
 12 19  1  0
 12 24  4  0
 13 24  4  0
 15 18  1  0
 16 25  4  0
 16 26  4  0
 17 20  4  0
 17 28  1  0
 18 21  4  0
 21 26  4  0
 22 26  4  0
M  END
$$$$

 Created by Python create_sdf_string function

 28 30  0  0  0  0  0  0  0  0999 V2000
    5.7174   -8.4529   26.7190 C   0  0  0  0  0  0  0  0  0  0  0  0
    0.3974   -7.0711   27.5149 C   0  0  0  0  0  0  0  0  0  0  0  0
    2.5338   -7.6891   16.0102 C   0  0  0  0  0  0  0  0  0  0  0  0
    4.8690   -7.4380   26.4151 C   0  0  0  0  0  0  0  0  0  0  0  0
    2.3021   -5.6726   26.0378 C   0  0  0  0  0  0  0  0  0  0  0  0
    7.0880   -4.6163   27.0010 C   0  0  0  0  0  0  0  0  0  0  0  0
    8.3117   -4.3698   27.4436 C   0  0  0  0  0  0  0  0  0  0  0  0
    1.1339   -5.0515   26.3541 C   0  0  0  0  0  0  0  0  0  0  0  0
    4.8080   -8.0362   16.7101 C   0  0  0  0  0  0  0  0  0  0  0  0
   -1.2173   -3.9294   26.9717 O   0  0  0  0  0  0  0  0  0  0  0  0
   -1.0025   -5.0942   27.4586 C   0  0  0  0  0  0  0  0  0  0  0  0
    2.2474   -8.9123   16.6273 C   0  0  0  0  0  0  0  0  0  0  0  0
    4.4957   -9.2636   17.3041 C   0  0  0  0  0  0  0  0  0  0  0  0
   -1.8070   -5.6086   28.1920 O   0  0  0  0  0  0  0  0  0  0  0  0
   10.4296   -5.1799   28.3140 C   0  0  0  0  0  0  0  0  0  0  0  0
    6.6017   -5.9004   26.9187 C   0  0  0  0  0  0  0  0  0  0  0  0
    2.4761   -6.9940   26.4111 N   0  0  0  0  0  0  0  0  0  0  0  0
    9.1353   -5.4053   27.8239 C   0  0  0  0  0  0  0  0  0  0  0  0
    0.9922   -9.3232   16.5995 O   0  0  0  0  0  0  0  0  0  0  0  0
    1.5232   -7.6869   27.1182 C   0  0  0  0  0  0  0  0  0  0  0  0
    8.6878   -6.6715   27.7262 N   0  0  0  0  0  0  0  0  0  0  0  0
    6.9911   -8.2423   27.1808 C   0  0  0  0  0  0  0  0  0  0  0  0
    3.8436   -7.2758   16.0578 C   0  0  0  0  0  0  0  0  0  0  0  0
    3.1882   -9.7190   17.2566 C   0  0  0  0  0  0  0  0  0  0  0  0
    5.3488   -6.1737   26.5092 C   0  0  0  0  0  0  0  0  0  0  0  0
    7.4567   -6.9464   27.2858 C   0  0  0  0  0  0  0  0  0  0  0  0
    0.1921   -5.7592   27.1123 C   0  0  0  0  0  0  0  0  0  0  0  0
    3.5517   -7.7407   25.9711 C   0  0  0  0  0  0  0  0  0  0  0  0
  1  4  4  0
  1 22  4  0
  2 20  4  0
  2 27  4  0
  3 12  4  0
  3 23  4  0
  4 25  4  0
  4 28  1  0
  5  8  4  0
  5 17  4  0
  6  7  4  0
  6 16  4  0
  7 18  4  0
  8 27  4  0
  9 13  4  0
  9 23  4  0
 10 11  1  0
 11 14  2  0
 11 27  1  0
 12 19  1  0
 12 24  4  0
 13 24  4  0
 15 18  1  0
 16 25  4  0
 16 26  4  0
 17 20  4  0
 17 28  1  0
 18 21  4  0
 21 26  4  0
 22 26  4  0
M  END
$$$$

 Created by Python create_sdf_string function

 28 30  0  0  0  0  0  0  0  0999 V2000
    5.7174   -8.4529   26.7190 C   0  0  0  0  0  0  0  0  0  0  0  0
    0.3974   -7.0711   27.5149 C   0  0  0  0  0  0  0  0  0  0  0  0
    2.5338   -7.6891   16.0102 C   0  0  0  0  0  0  0  0  0  0  0  0
    4.8690   -7.4380   26.4151 C   0  0  0  0  0  0  0  0  0  0  0  0
    2.3021   -5.6726   26.0378 C   0  0  0  0  0  0  0  0  0  0  0  0
    7.0880   -4.6163   27.0010 C   0  0  0  0  0  0  0  0  0  0  0  0
    8.3117   -4.3698   27.4436 C   0  0  0  0  0  0  0  0  0  0  0  0
    1.1339   -5.0515   26.3541 C   0  0  0  0  0  0  0  0  0  0  0  0
    4.8080   -8.0362   16.7101 C   0  0  0  0  0  0  0  0  0  0  0  0
   -1.2173   -3.9294   26.9717 O   0  0  0  0  0  0  0  0  0  0  0  0
   -1.0025   -5.0942   27.4586 C   0  0  0  0  0  0  0  0  0  0  0  0
    2.2474   -8.9123   16.6273 C   0  0  0  0  0  0  0  0  0  0  0  0
    4.4957   -9.2636   17.3041 C   0  0  0  0  0  0  0  0  0  0  0  0
   -1.8070   -5.6086   28.1920 O   0  0  0  0  0  0  0  0  0  0  0  0
   10.4296   -5.1799   28.3140 C   0  0  0  0  0  0  0  0  0  0  0  0
    6.6017   -5.9004   26.9187 C   0  0  0  0  0  0  0  0  0  0  0  0
    2.4761   -6.9940   26.4111 N   0  0  0  0  0  0  0  0  0  0  0  0
    9.1353   -5.4053   27.8239 C   0  0  0  0  0  0  0  0  0  0  0  0
    0.9922   -9.3232   16.5995 O   0  0  0  0  0  0  0  0  0  0  0  0
    1.5232   -7.6869   27.1182 C   0  0  0  0  0  0  0  0  0  0  0  0
    8.6878   -6.6715   27.7262 N   0  0  0  0  0  0  0  0  0  0  0  0
    6.9911   -8.2423   27.1808 C   0  0  0  0  0  0  0  0  0  0  0  0
    3.8436   -7.2758   16.0578 C   0  0  0  0  0  0  0  0  0  0  0  0
    3.1882   -9.7190   17.2566 C   0  0  0  0  0  0  0  0  0  0  0  0
    5.3488   -6.1737   26.5092 C   0  0  0  0  0  0  0  0  0  0  0  0
    7.4567   -6.9464   27.2858 C   0  0  0  0  0  0  0  0  0  0  0  0
    0.1921   -5.7592   27.1123 C   0  0  0  0  0  0  0  0  0  0  0  0
    3.5517   -7.7407   25.9711 C   0  0  0  0  0  0  0  0  0  0  0  0
  1  4  4  0
  1 22  4  0
  2 20  4  0
  2 27  4  0
  3 12  4  0
  3 23  4  0
  4 25  4  0
  4 28  1  0
  5  8  4  0
  5 17  4  0
  6  7  4  0
  6 16  4  0
  7 18  4  0
  8 27  4  0
  9 13  4  0
  9 23  4  0
 10 11  1  0
 11 14  2  0
 11 27  1  0
 12 19  1  0
 12 24  4  0
 13 24  4  0
 15 18  1  0
 16 25  4  0
 16 26  4  0
 17 20  4  0
 17 28  1  0
 18 21  4  0
 21 26  4  0
 22 26  4  0
M  END
$$$$

 Created by Python create_sdf_string function

 28 30  0  0  0  0  0  0  0  0999 V2000
    5.7174   -8.4529   26.7190 C   0  0  0  0  0  0  0  0  0  0  0  0
    0.3974   -7.0711   27.5149 C   0  0  0  0  0  0  0  0  0  0  0  0
    2.5338   -7.6891   16.0102 C   0  0  0  0  0  0  0  0  0  0  0  0
    4.8690   -7.4380   26.4151 C   0  0  0  0  0  0  0  0  0  0  0  0
    2.3021   -5.6726   26.0378 C   0  0  0  0  0  0  0  0  0  0  0  0
    7.0880   -4.6163   27.0010 C   0  0  0  0  0  0  0  0  0  0  0  0
    8.3117   -4.3698   27.4436 C   0  0  0  0  0  0  0  0  0  0  0  0
    1.1339   -5.0515   26.3541 C   0  0  0  0  0  0  0  0  0  0  0  0
    4.8080   -8.0362   16.7101 C   0  0  0  0  0  0  0  0  0  0  0  0
   -1.2173   -3.9294   26.9717 O   0  0  0  0  0  0  0  0  0  0  0  0
   -1.0025   -5.0942   27.4586 C   0  0  0  0  0  0  0  0  0  0  0  0
    2.2474   -8.9123   16.6273 C   0  0  0  0  0  0  0  0  0  0  0  0
    4.4957   -9.2636   17.3041 C   0  0  0  0  0  0  0  0  0  0  0  0
   -1.8070   -5.6086   28.1920 O   0  0  0  0  0  0  0  0  0  0  0  0
   10.4296   -5.1799   28.3140 C   0  0  0  0  0  0  0  0  0  0  0  0
    6.6017   -5.9004   26.9187 C   0  0  0  0  0  0  0  0  0  0  0  0
    2.4761   -6.9940   26.4111 N   0  0  0  0  0  0  0  0  0  0  0  0
    9.1353   -5.4053   27.8239 C   0  0  0  0  0  0  0  0  0  0  0  0
    0.9922   -9.3232   16.5995 O   0  0  0  0  0  0  0  0  0  0  0  0
    1.5232   -7.6869   27.1182 C   0  0  0  0  0  0  0  0  0  0  0  0
    8.6878   -6.6715   27.7262 N   0  0  0  0  0  0  0  0  0  0  0  0
    6.9911   -8.2423   27.1808 C   0  0  0  0  0  0  0  0  0  0  0  0
    3.8436   -7.2758   16.0578 C   0  0  0  0  0  0  0  0  0  0  0  0
    3.1882   -9.7190   17.2566 C   0  0  0  0  0  0  0  0  0  0  0  0
    5.3488   -6.1737   26.5092 C   0  0  0  0  0  0  0  0  0  0  0  0
    7.4567   -6.9464   27.2858 C   0  0  0  0  0  0  0  0  0  0  0  0
    0.1921   -5.7592   27.1123 C   0  0  0  0  0  0  0  0  0  0  0  0
    3.5517   -7.7407   25.9711 C   0  0  0  0  0  0  0  0  0  0  0  0
  1  4  4  0
  1 22  4  0
  2 20  4  0
  2 27  4  0
  3 12  4  0
  3 23  4  0
  4 25  4  0
  4 28  1  0
  5  8  4  0
  5 17  4  0
  6  7  4  0
  6 16  4  0
  7 18  4  0
  8 27  4  0
  9 13  4  0
  9 23  4  0
 10 11  1  0
 11 14  2  0
 11 27  1  0
 12 19  1  0
 12 24  4  0
 13 24  4  0
 15 18  1  0
 16 25  4  0
 16 26  4  0
 17 20  4  0
 17 28  1  0
 18 21  4  0
 21 26  4  0
 22 26  4  0
M  END
$$$$

 Created by Python create_sdf_string function

 28 30  0  0  0  0  0  0  0  0999 V2000
    5.7174   -8.4529   26.7190 C   0  0  0  0  0  0  0  0  0  0  0  0
    0.3974   -7.0711   27.5149 C   0  0  0  0  0  0  0  0  0  0  0  0
    2.5338   -7.6891   16.0102 C   0  0  0  0  0  0  0  0  0  0  0  0
    4.8690   -7.4380   26.4151 C   0  0  0  0  0  0  0  0  0  0  0  0
    2.3021   -5.6726   26.0378 C   0  0  0  0  0  0  0  0  0  0  0  0
    7.0880   -4.6163   27.0010 C   0  0  0  0  0  0  0  0  0  0  0  0
    8.3117   -4.3698   27.4436 C   0  0  0  0  0  0  0  0  0  0  0  0
    1.1339   -5.0515   26.3541 C   0  0  0  0  0  0  0  0  0  0  0  0
    4.8080   -8.0362   16.7101 C   0  0  0  0  0  0  0  0  0  0  0  0
   -1.2173   -3.9294   26.9717 O   0  0  0  0  0  0  0  0  0  0  0  0
   -1.0025   -5.0942   27.4586 C   0  0  0  0  0  0  0  0  0  0  0  0
    2.2474   -8.9123   16.6273 C   0  0  0  0  0  0  0  0  0  0  0  0
    4.4957   -9.2636   17.3041 C   0  0  0  0  0  0  0  0  0  0  0  0
   -1.8070   -5.6086   28.1920 O   0  0  0  0  0  0  0  0  0  0  0  0
   10.4296   -5.1799   28.3140 C   0  0  0  0  0  0  0  0  0  0  0  0
    6.6017   -5.9004   26.9187 C   0  0  0  0  0  0  0  0  0  0  0  0
    2.4761   -6.9940   26.4111 N   0  0  0  0  0  0  0  0  0  0  0  0
    9.1353   -5.4053   27.8239 C   0  0  0  0  0  0  0  0  0  0  0  0
    0.9922   -9.3232   16.5995 O   0  0  0  0  0  0  0  0  0  0  0  0
    1.5232   -7.6869   27.1182 C   0  0  0  0  0  0  0  0  0  0  0  0
    8.6878   -6.6715   27.7262 N   0  0  0  0  0  0  0  0  0  0  0  0
    6.9911   -8.2423   27.1808 C   0  0  0  0  0  0  0  0  0  0  0  0
    3.8436   -7.2758   16.0578 C   0  0  0  0  0  0  0  0  0  0  0  0
    3.1882   -9.7190   17.2566 C   0  0  0  0  0  0  0  0  0  0  0  0
    5.3488   -6.1737   26.5092 C   0  0  0  0  0  0  0  0  0  0  0  0
    7.4567   -6.9464   27.2858 C   0  0  0  0  0  0  0  0  0  0  0  0
    0.1921   -5.7592   27.1123 C   0  0  0  0  0  0  0  0  0  0  0  0
    3.5517   -7.7407   25.9711 C   0  0  0  0  0  0  0  0  0  0  0  0
  1  4  4  0
  1 22  4  0
  2 20  4  0
  2 27  4  0
  3 12  4  0
  3 23  4  0
  4 25  4  0
  4 28  1  0
  5  8  4  0
  5 17  4  0
  6  7  4  0
  6 16  4  0
  7 18  4  0
  8 27  4  0
  9 13  4  0
  9 23  4  0
 10 11  1  0
 11 14  2  0
 11 27  1  0
 12 19  1  0
 12 24  4  0
 13 24  4  0
 15 18  1  0
 16 25  4  0
 16 26  4  0
 17 20  4  0
 17 28  1  0
 18 21  4  0
 21 26  4  0
 22 26  4  0
M  END
$$$$

 Created by Python create_sdf_string function

 28 30  0  0  0  0  0  0  0  0999 V2000
    5.7174   -8.4529   26.7190 C   0  0  0  0  0  0  0  0  0  0  0  0
    0.3974   -7.0711   27.5149 C   0  0  0  0  0  0  0  0  0  0  0  0
    2.5338   -7.6891   16.0102 C   0  0  0  0  0  0  0  0  0  0  0  0
    4.8690   -7.4380   26.4151 C   0  0  0  0  0  0  0  0  0  0  0  0
    2.3021   -5.6726   26.0378 C   0  0  0  0  0  0  0  0  0  0  0  0
    7.0880   -4.6163   27.0010 C   0  0  0  0  0  0  0  0  0  0  0  0
    8.3117   -4.3698   27.4436 C   0  0  0  0  0  0  0  0  0  0  0  0
    1.1339   -5.0515   26.3541 C   0  0  0  0  0  0  0  0  0  0  0  0
    4.8080   -8.0362   16.7101 C   0  0  0  0  0  0  0  0  0  0  0  0
   -1.2173   -3.9294   26.9717 O   0  0  0  0  0  0  0  0  0  0  0  0
   -1.0025   -5.0942   27.4586 C   0  0  0  0  0  0  0  0  0  0  0  0
    2.2474   -8.9123   16.6273 C   0  0  0  0  0  0  0  0  0  0  0  0
    4.4957   -9.2636   17.3041 C   0  0  0  0  0  0  0  0  0  0  0  0
   -1.8070   -5.6086   28.1920 O   0  0  0  0  0  0  0  0  0  0  0  0
   10.4296   -5.1799   28.3140 C   0  0  0  0  0  0  0  0  0  0  0  0
    6.6017   -5.9004   26.9187 C   0  0  0  0  0  0  0  0  0  0  0  0
    2.4761   -6.9940   26.4111 N   0  0  0  0  0  0  0  0  0  0  0  0
    9.1353   -5.4053   27.8239 C   0  0  0  0  0  0  0  0  0  0  0  0
    0.9922   -9.3232   16.5995 O   0  0  0  0  0  0  0  0  0  0  0  0
    1.5232   -7.6869   27.1182 C   0  0  0  0  0  0  0  0  0  0  0  0
    8.6878   -6.6715   27.7262 N   0  0  0  0  0  0  0  0  0  0  0  0
    6.9911   -8.2423   27.1808 C   0  0  0  0  0  0  0  0  0  0  0  0
    3.8436   -7.2758   16.0578 C   0  0  0  0  0  0  0  0  0  0  0  0
    3.1882   -9.7190   17.2566 C   0  0  0  0  0  0  0  0  0  0  0  0
    5.3488   -6.1737   26.5092 C   0  0  0  0  0  0  0  0  0  0  0  0
    7.4567   -6.9464   27.2858 C   0  0  0  0  0  0  0  0  0  0  0  0
    0.1921   -5.7592   27.1123 C   0  0  0  0  0  0  0  0  0  0  0  0
    3.5517   -7.7407   25.9711 C   0  0  0  0  0  0  0  0  0  0  0  0
  1  4  4  0
  1 22  4  0
  2 20  4  0
  2 27  4  0
  3 12  4  0
  3 23  4  0
  4 25  4  0
  4 28  1  0
  5  8  4  0
  5 17  4  0
  6  7  4  0
  6 16  4  0
  7 18  4  0
  8 27  4  0
  9 13  4  0
  9 23  4  0
 10 11  1  0
 11 14  2  0
 11 27  1  0
 12 19  1  0
 12 24  4  0
 13 24  4  0
 15 18  1  0
 16 25  4  0
 16 26  4  0
 17 20  4  0
 17 28  1  0
 18 21  4  0
 21 26  4  0
 22 26  4  0
M  END
$$$$

 Created by Python create_sdf_string function

 28 30  0  0  0  0  0  0  0  0999 V2000
    5.7174   -8.4529   26.7190 C   0  0  0  0  0  0  0  0  0  0  0  0
    0.3974   -7.0711   27.5149 C   0  0  0  0  0  0  0  0  0  0  0  0
    2.5338   -7.6891   16.0102 C   0  0  0  0  0  0  0  0  0  0  0  0
    4.8690   -7.4380   26.4151 C   0  0  0  0  0  0  0  0  0  0  0  0
    2.3021   -5.6726   26.0378 C   0  0  0  0  0  0  0  0  0  0  0  0
    7.0880   -4.6163   27.0010 C   0  0  0  0  0  0  0  0  0  0  0  0
    8.3117   -4.3698   27.4436 C   0  0  0  0  0  0  0  0  0  0  0  0
    1.1339   -5.0515   26.3541 C   0  0  0  0  0  0  0  0  0  0  0  0
    4.8080   -8.0362   16.7101 C   0  0  0  0  0  0  0  0  0  0  0  0
   -1.2173   -3.9294   26.9717 O   0  0  0  0  0  0  0  0  0  0  0  0
   -1.0025   -5.0942   27.4586 C   0  0  0  0  0  0  0  0  0  0  0  0
    2.2474   -8.9123   16.6273 C   0  0  0  0  0  0  0  0  0  0  0  0
    4.4957   -9.2636   17.3041 C   0  0  0  0  0  0  0  0  0  0  0  0
   -1.8070   -5.6086   28.1920 O   0  0  0  0  0  0  0  0  0  0  0  0
   10.4296   -5.1799   28.3140 C   0  0  0  0  0  0  0  0  0  0  0  0
    6.6017   -5.9004   26.9187 C   0  0  0  0  0  0  0  0  0  0  0  0
    2.4761   -6.9940   26.4111 N   0  0  0  0  0  0  0  0  0  0  0  0
    9.1353   -5.4053   27.8239 C   0  0  0  0  0  0  0  0  0  0  0  0
    0.9922   -9.3232   16.5995 O   0  0  0  0  0  0  0  0  0  0  0  0
    1.5232   -7.6869   27.1182 C   0  0  0  0  0  0  0  0  0  0  0  0
    8.6878   -6.6715   27.7262 N   0  0  0  0  0  0  0  0  0  0  0  0
    6.9911   -8.2423   27.1808 C   0  0  0  0  0  0  0  0  0  0  0  0
    3.8436   -7.2758   16.0578 C   0  0  0  0  0  0  0  0  0  0  0  0
    3.1882   -9.7190   17.2566 C   0  0  0  0  0  0  0  0  0  0  0  0
    5.3488   -6.1737   26.5092 C   0  0  0  0  0  0  0  0  0  0  0  0
    7.4567   -6.9464   27.2858 C   0  0  0  0  0  0  0  0  0  0  0  0
    0.1921   -5.7592   27.1123 C   0  0  0  0  0  0  0  0  0  0  0  0
    3.5517   -7.7407   25.9711 C   0  0  0  0  0  0  0  0  0  0  0  0
  1  4  4  0
  1 22  4  0
  2 20  4  0
  2 27  4  0
  3 12  4  0
  3 23  4  0
  4 25  4  0
  4 28  1  0
  5  8  4  0
  5 17  4  0
  6  7  4  0
  6 16  4  0
  7 18  4  0
  8 27  4  0
  9 13  4  0
  9 23  4  0
 10 11  1  0
 11 14  2  0
 11 27  1  0
 12 19  1  0
 12 24  4  0
 13 24  4  0
 15 18  1  0
 16 25  4  0
 16 26  4  0
 17 20  4  0
 17 28  1  0
 18 21  4  0
 21 26  4  0
 22 26  4  0
M  END
$$$$

 Created by Python create_sdf_string function

 28 30  0  0  0  0  0  0  0  0999 V2000
    5.7174   -8.4529   26.7190 C   0  0  0  0  0  0  0  0  0  0  0  0
    0.3974   -7.0711   27.5149 C   0  0  0  0  0  0  0  0  0  0  0  0
    2.5338   -7.6891   16.0102 C   0  0  0  0  0  0  0  0  0  0  0  0
    4.8690   -7.4380   26.4151 C   0  0  0  0  0  0  0  0  0  0  0  0
    2.3021   -5.6726   26.0378 C   0  0  0  0  0  0  0  0  0  0  0  0
    7.0880   -4.6163   27.0010 C   0  0  0  0  0  0  0  0  0  0  0  0
    8.3117   -4.3698   27.4436 C   0  0  0  0  0  0  0  0  0  0  0  0
    1.1339   -5.0515   26.3541 C   0  0  0  0  0  0  0  0  0  0  0  0
    4.8080   -8.0362   16.7101 C   0  0  0  0  0  0  0  0  0  0  0  0
   -1.2173   -3.9294   26.9717 O   0  0  0  0  0  0  0  0  0  0  0  0
   -1.0025   -5.0942   27.4586 C   0  0  0  0  0  0  0  0  0  0  0  0
    2.2474   -8.9123   16.6273 C   0  0  0  0  0  0  0  0  0  0  0  0
    4.4957   -9.2636   17.3041 C   0  0  0  0  0  0  0  0  0  0  0  0
   -1.8070   -5.6086   28.1920 O   0  0  0  0  0  0  0  0  0  0  0  0
   10.4296   -5.1799   28.3140 C   0  0  0  0  0  0  0  0  0  0  0  0
    6.6017   -5.9004   26.9187 C   0  0  0  0  0  0  0  0  0  0  0  0
    2.4761   -6.9940   26.4111 N   0  0  0  0  0  0  0  0  0  0  0  0
    9.1353   -5.4053   27.8239 C   0  0  0  0  0  0  0  0  0  0  0  0
    0.9922   -9.3232   16.5995 O   0  0  0  0  0  0  0  0  0  0  0  0
    1.5232   -7.6869   27.1182 C   0  0  0  0  0  0  0  0  0  0  0  0
    8.6878   -6.6715   27.7262 N   0  0  0  0  0  0  0  0  0  0  0  0
    6.9911   -8.2423   27.1808 C   0  0  0  0  0  0  0  0  0  0  0  0
    3.8436   -7.2758   16.0578 C   0  0  0  0  0  0  0  0  0  0  0  0
    3.1882   -9.7190   17.2566 C   0  0  0  0  0  0  0  0  0  0  0  0
    5.3488   -6.1737   26.5092 C   0  0  0  0  0  0  0  0  0  0  0  0
    7.4567   -6.9464   27.2858 C   0  0  0  0  0  0  0  0  0  0  0  0
    0.1921   -5.7592   27.1123 C   0  0  0  0  0  0  0  0  0  0  0  0
    3.5517   -7.7407   25.9711 C   0  0  0  0  0  0  0  0  0  0  0  0
  1  4  4  0
  1 22  4  0
  2 20  4  0
  2 27  4  0
  3 12  4  0
  3 23  4  0
  4 25  4  0
  4 28  1  0
  5  8  4  0
  5 17  4  0
  6  7  4  0
  6 16  4  0
  7 18  4  0
  8 27  4  0
  9 13  4  0
  9 23  4  0
 10 11  1  0
 11 14  2  0
 11 27  1  0
 12 19  1  0
 12 24  4  0
 13 24  4  0
 15 18  1  0
 16 25  4  0
 16 26  4  0
 17 20  4  0
 17 28  1  0
 18 21  4  0
 21 26  4  0
 22 26  4  0
M  END
$$$$

 Created by Python create_sdf_string function

 28 30  0  0  0  0  0  0  0  0999 V2000
    5.7174   -8.4529   26.7190 C   0  0  0  0  0  0  0  0  0  0  0  0
    0.3974   -7.0711   27.5149 C   0  0  0  0  0  0  0  0  0  0  0  0
    2.5338   -7.6891   16.0102 C   0  0  0  0  0  0  0  0  0  0  0  0
    4.8690   -7.4380   26.4151 C   0  0  0  0  0  0  0  0  0  0  0  0
    2.3021   -5.6726   26.0378 C   0  0  0  0  0  0  0  0  0  0  0  0
    7.0880   -4.6163   27.0010 C   0  0  0  0  0  0  0  0  0  0  0  0
    8.3117   -4.3698   27.4436 C   0  0  0  0  0  0  0  0  0  0  0  0
    1.1339   -5.0515   26.3541 C   0  0  0  0  0  0  0  0  0  0  0  0
    4.8080   -8.0362   16.7101 C   0  0  0  0  0  0  0  0  0  0  0  0
   -1.2173   -3.9294   26.9717 O   0  0  0  0  0  0  0  0  0  0  0  0
   -1.0025   -5.0942   27.4586 C   0  0  0  0  0  0  0  0  0  0  0  0
    2.2474   -8.9123   16.6273 C   0  0  0  0  0  0  0  0  0  0  0  0
    4.4957   -9.2636   17.3041 C   0  0  0  0  0  0  0  0  0  0  0  0
   -1.8070   -5.6086   28.1920 O   0  0  0  0  0  0  0  0  0  0  0  0
   10.4296   -5.1799   28.3140 C   0  0  0  0  0  0  0  0  0  0  0  0
    6.6017   -5.9004   26.9187 C   0  0  0  0  0  0  0  0  0  0  0  0
    2.4761   -6.9940   26.4111 N   0  0  0  0  0  0  0  0  0  0  0  0
    9.1353   -5.4053   27.8239 C   0  0  0  0  0  0  0  0  0  0  0  0
    0.9922   -9.3232   16.5995 O   0  0  0  0  0  0  0  0  0  0  0  0
    1.5232   -7.6869   27.1182 C   0  0  0  0  0  0  0  0  0  0  0  0
    8.6878   -6.6715   27.7262 N   0  0  0  0  0  0  0  0  0  0  0  0
    6.9911   -8.2423   27.1808 C   0  0  0  0  0  0  0  0  0  0  0  0
    3.8436   -7.2758   16.0578 C   0  0  0  0  0  0  0  0  0  0  0  0
    3.1882   -9.7190   17.2566 C   0  0  0  0  0  0  0  0  0  0  0  0
    5.3488   -6.1737   26.5092 C   0  0  0  0  0  0  0  0  0  0  0  0
    7.4567   -6.9464   27.2858 C   0  0  0  0  0  0  0  0  0  0  0  0
    0.1921   -5.7592   27.1123 C   0  0  0  0  0  0  0  0  0  0  0  0
    3.5517   -7.7407   25.9711 C   0  0  0  0  0  0  0  0  0  0  0  0
  1  4  4  0
  1 22  4  0
  2 20  4  0
  2 27  4  0
  3 12  4  0
  3 23  4  0
  4 25  4  0
  4 28  1  0
  5  8  4  0
  5 17  4  0
  6  7  4  0
  6 16  4  0
  7 18  4  0
  8 27  4  0
  9 13  4  0
  9 23  4  0
 10 11  1  0
 11 14  2  0
 11 27  1  0
 12 19  1  0
 12 24  4  0
 13 24  4  0
 15 18  1  0
 16 25  4  0
 16 26  4  0
 17 20  4  0
 17 28  1  0
 18 21  4  0
 21 26  4  0
 22 26  4  0
M  END
$$$$

 Created by Python create_sdf_string function

 28 30  0  0  0  0  0  0  0  0999 V2000
    5.7174   -8.4529   26.7190 C   0  0  0  0  0  0  0  0  0  0  0  0
    0.3974   -7.0711   27.5149 C   0  0  0  0  0  0  0  0  0  0  0  0
    2.5338   -7.6891   16.0102 C   0  0  0  0  0  0  0  0  0  0  0  0
    4.8690   -7.4380   26.4151 C   0  0  0  0  0  0  0  0  0  0  0  0
    2.3021   -5.6726   26.0378 C   0  0  0  0  0  0  0  0  0  0  0  0
    7.0880   -4.6163   27.0010 C   0  0  0  0  0  0  0  0  0  0  0  0
    8.3117   -4.3698   27.4436 C   0  0  0  0  0  0  0  0  0  0  0  0
    1.1339   -5.0515   26.3541 C   0  0  0  0  0  0  0  0  0  0  0  0
    4.8080   -8.0362   16.7101 C   0  0  0  0  0  0  0  0  0  0  0  0
   -1.2173   -3.9294   26.9717 O   0  0  0  0  0  0  0  0  0  0  0  0
   -1.0025   -5.0942   27.4586 C   0  0  0  0  0  0  0  0  0  0  0  0
    2.2474   -8.9123   16.6273 C   0  0  0  0  0  0  0  0  0  0  0  0
    4.4957   -9.2636   17.3041 C   0  0  0  0  0  0  0  0  0  0  0  0
   -1.8070   -5.6086   28.1920 O   0  0  0  0  0  0  0  0  0  0  0  0
   10.4296   -5.1799   28.3140 C   0  0  0  0  0  0  0  0  0  0  0  0
    6.6017   -5.9004   26.9187 C   0  0  0  0  0  0  0  0  0  0  0  0
    2.4761   -6.9940   26.4111 N   0  0  0  0  0  0  0  0  0  0  0  0
    9.1353   -5.4053   27.8239 C   0  0  0  0  0  0  0  0  0  0  0  0
    0.9922   -9.3232   16.5995 O   0  0  0  0  0  0  0  0  0  0  0  0
    1.5232   -7.6869   27.1182 C   0  0  0  0  0  0  0  0  0  0  0  0
    8.6878   -6.6715   27.7262 N   0  0  0  0  0  0  0  0  0  0  0  0
    6.9911   -8.2423   27.1808 C   0  0  0  0  0  0  0  0  0  0  0  0
    3.8436   -7.2758   16.0578 C   0  0  0  0  0  0  0  0  0  0  0  0
    3.1882   -9.7190   17.2566 C   0  0  0  0  0  0  0  0  0  0  0  0
    5.3488   -6.1737   26.5092 C   0  0  0  0  0  0  0  0  0  0  0  0
    7.4567   -6.9464   27.2858 C   0  0  0  0  0  0  0  0  0  0  0  0
    0.1921   -5.7592   27.1123 C   0  0  0  0  0  0  0  0  0  0  0  0
    3.5517   -7.7407   25.9711 C   0  0  0  0  0  0  0  0  0  0  0  0
  1  4  4  0
  1 22  4  0
  2 20  4  0
  2 27  4  0
  3 12  4  0
  3 23  4  0
  4 25  4  0
  4 28  1  0
  5  8  4  0
  5 17  4  0
  6  7  4  0
  6 16  4  0
  7 18  4  0
  8 27  4  0
  9 13  4  0
  9 23  4  0
 10 11  1  0
 11 14  2  0
 11 27  1  0
 12 19  1  0
 12 24  4  0
 13 24  4  0
 15 18  1  0
 16 25  4  0
 16 26  4  0
 17 20  4  0
 17 28  1  0
 18 21  4  0
 21 26  4  0
 22 26  4  0
M  END
$$$$

 Created by Python create_sdf_string function

 28 30  0  0  0  0  0  0  0  0999 V2000
    5.7174   -8.4529   26.7190 C   0  0  0  0  0  0  0  0  0  0  0  0
    0.3974   -7.0711   27.5149 C   0  0  0  0  0  0  0  0  0  0  0  0
    2.5338   -7.6891   16.0102 C   0  0  0  0  0  0  0  0  0  0  0  0
    4.8690   -7.4380   26.4151 C   0  0  0  0  0  0  0  0  0  0  0  0
    2.3021   -5.6726   26.0378 C   0  0  0  0  0  0  0  0  0  0  0  0
    7.0880   -4.6163   27.0010 C   0  0  0  0  0  0  0  0  0  0  0  0
    8.3117   -4.3698   27.4436 C   0  0  0  0  0  0  0  0  0  0  0  0
    1.1339   -5.0515   26.3541 C   0  0  0  0  0  0  0  0  0  0  0  0
    4.8080   -8.0362   16.7101 C   0  0  0  0  0  0  0  0  0  0  0  0
   -1.2173   -3.9294   26.9717 O   0  0  0  0  0  0  0  0  0  0  0  0
   -1.0025   -5.0942   27.4586 C   0  0  0  0  0  0  0  0  0  0  0  0
    2.2474   -8.9123   16.6273 C   0  0  0  0  0  0  0  0  0  0  0  0
    4.4957   -9.2636   17.3041 C   0  0  0  0  0  0  0  0  0  0  0  0
   -1.8070   -5.6086   28.1920 O   0  0  0  0  0  0  0  0  0  0  0  0
   10.4296   -5.1799   28.3140 C   0  0  0  0  0  0  0  0  0  0  0  0
    6.6017   -5.9004   26.9187 C   0  0  0  0  0  0  0  0  0  0  0  0
    2.4761   -6.9940   26.4111 N   0  0  0  0  0  0  0  0  0  0  0  0
    9.1353   -5.4053   27.8239 C   0  0  0  0  0  0  0  0  0  0  0  0
    0.9922   -9.3232   16.5995 O   0  0  0  0  0  0  0  0  0  0  0  0
    1.5232   -7.6869   27.1182 C   0  0  0  0  0  0  0  0  0  0  0  0
    8.6878   -6.6715   27.7262 N   0  0  0  0  0  0  0  0  0  0  0  0
    6.9911   -8.2423   27.1808 C   0  0  0  0  0  0  0  0  0  0  0  0
    3.8436   -7.2758   16.0578 C   0  0  0  0  0  0  0  0  0  0  0  0
    3.1882   -9.7190   17.2566 C   0  0  0  0  0  0  0  0  0  0  0  0
    5.3488   -6.1737   26.5092 C   0  0  0  0  0  0  0  0  0  0  0  0
    7.4567   -6.9464   27.2858 C   0  0  0  0  0  0  0  0  0  0  0  0
    0.1921   -5.7592   27.1123 C   0  0  0  0  0  0  0  0  0  0  0  0
    3.5517   -7.7407   25.9711 C   0  0  0  0  0  0  0  0  0  0  0  0
  1  4  4  0
  1 22  4  0
  2 20  4  0
  2 27  4  0
  3 12  4  0
  3 23  4  0
  4 25  4  0
  4 28  1  0
  5  8  4  0
  5 17  4  0
  6  7  4  0
  6 16  4  0
  7 18  4  0
  8 27  4  0
  9 13  4  0
  9 23  4  0
 10 11  1  0
 11 14  2  0
 11 27  1  0
 12 19  1  0
 12 24  4  0
 13 24  4  0
 15 18  1  0
 16 25  4  0
 16 26  4  0
 17 20  4  0
 17 28  1  0
 18 21  4  0
 21 26  4  0
 22 26  4  0
M  END
$$$$

 Created by Python create_sdf_string function

 28 30  0  0  0  0  0  0  0  0999 V2000
    5.7174   -8.4529   26.7190 C   0  0  0  0  0  0  0  0  0  0  0  0
    0.3974   -7.0711   27.5149 C   0  0  0  0  0  0  0  0  0  0  0  0
    2.5338   -7.6891   16.0102 C   0  0  0  0  0  0  0  0  0  0  0  0
    4.8690   -7.4380   26.4151 C   0  0  0  0  0  0  0  0  0  0  0  0
    2.3021   -5.6726   26.0378 C   0  0  0  0  0  0  0  0  0  0  0  0
    7.0880   -4.6163   27.0010 C   0  0  0  0  0  0  0  0  0  0  0  0
    8.3117   -4.3698   27.4436 C   0  0  0  0  0  0  0  0  0  0  0  0
    1.1339   -5.0515   26.3541 C   0  0  0  0  0  0  0  0  0  0  0  0
    4.8080   -8.0362   16.7101 C   0  0  0  0  0  0  0  0  0  0  0  0
   -1.2173   -3.9294   26.9717 O   0  0  0  0  0  0  0  0  0  0  0  0
   -1.0025   -5.0942   27.4586 C   0  0  0  0  0  0  0  0  0  0  0  0
    2.2474   -8.9123   16.6273 C   0  0  0  0  0  0  0  0  0  0  0  0
    4.4957   -9.2636   17.3041 C   0  0  0  0  0  0  0  0  0  0  0  0
   -1.8070   -5.6086   28.1920 O   0  0  0  0  0  0  0  0  0  0  0  0
   10.4296   -5.1799   28.3140 C   0  0  0  0  0  0  0  0  0  0  0  0
    6.6017   -5.9004   26.9187 C   0  0  0  0  0  0  0  0  0  0  0  0
    2.4761   -6.9940   26.4111 N   0  0  0  0  0  0  0  0  0  0  0  0
    9.1353   -5.4053   27.8239 C   0  0  0  0  0  0  0  0  0  0  0  0
    0.9922   -9.3232   16.5995 O   0  0  0  0  0  0  0  0  0  0  0  0
    1.5232   -7.6869   27.1182 C   0  0  0  0  0  0  0  0  0  0  0  0
    8.6878   -6.6715   27.7262 N   0  0  0  0  0  0  0  0  0  0  0  0
    6.9911   -8.2423   27.1808 C   0  0  0  0  0  0  0  0  0  0  0  0
    3.8436   -7.2758   16.0578 C   0  0  0  0  0  0  0  0  0  0  0  0
    3.1882   -9.7190   17.2566 C   0  0  0  0  0  0  0  0  0  0  0  0
    5.3488   -6.1737   26.5092 C   0  0  0  0  0  0  0  0  0  0  0  0
    7.4567   -6.9464   27.2858 C   0  0  0  0  0  0  0  0  0  0  0  0
    0.1921   -5.7592   27.1123 C   0  0  0  0  0  0  0  0  0  0  0  0
    3.5517   -7.7407   25.9711 C   0  0  0  0  0  0  0  0  0  0  0  0
  1  4  4  0
  1 22  4  0
  2 20  4  0
  2 27  4  0
  3 12  4  0
  3 23  4  0
  4 25  4  0
  4 28  1  0
  5  8  4  0
  5 17  4  0
  6  7  4  0
  6 16  4  0
  7 18  4  0
  8 27  4  0
  9 13  4  0
  9 23  4  0
 10 11  1  0
 11 14  2  0
 11 27  1  0
 12 19  1  0
 12 24  4  0
 13 24  4  0
 15 18  1  0
 16 25  4  0
 16 26  4  0
 17 20  4  0
 17 28  1  0
 18 21  4  0
 21 26  4  0
 22 26  4  0
M  END
$$$$

 Created by Python create_sdf_string function

 28 30  0  0  0  0  0  0  0  0999 V2000
    5.7174   -8.4529   26.7190 C   0  0  0  0  0  0  0  0  0  0  0  0
    0.3974   -7.0711   27.5149 C   0  0  0  0  0  0  0  0  0  0  0  0
    2.5338   -7.6891   16.0102 C   0  0  0  0  0  0  0  0  0  0  0  0
    4.8690   -7.4380   26.4151 C   0  0  0  0  0  0  0  0  0  0  0  0
    2.3021   -5.6726   26.0378 C   0  0  0  0  0  0  0  0  0  0  0  0
    7.0880   -4.6163   27.0010 C   0  0  0  0  0  0  0  0  0  0  0  0
    8.3117   -4.3698   27.4436 C   0  0  0  0  0  0  0  0  0  0  0  0
    1.1339   -5.0515   26.3541 C   0  0  0  0  0  0  0  0  0  0  0  0
    4.8080   -8.0362   16.7101 C   0  0  0  0  0  0  0  0  0  0  0  0
   -1.2173   -3.9294   26.9717 O   0  0  0  0  0  0  0  0  0  0  0  0
   -1.0025   -5.0942   27.4586 C   0  0  0  0  0  0  0  0  0  0  0  0
    2.2474   -8.9123   16.6273 C   0  0  0  0  0  0  0  0  0  0  0  0
    4.4957   -9.2636   17.3041 C   0  0  0  0  0  0  0  0  0  0  0  0
   -1.8070   -5.6086   28.1920 O   0  0  0  0  0  0  0  0  0  0  0  0
   10.4296   -5.1799   28.3140 C   0  0  0  0  0  0  0  0  0  0  0  0
    6.6017   -5.9004   26.9187 C   0  0  0  0  0  0  0  0  0  0  0  0
    2.4761   -6.9940   26.4111 N   0  0  0  0  0  0  0  0  0  0  0  0
    9.1353   -5.4053   27.8239 C   0  0  0  0  0  0  0  0  0  0  0  0
    0.9922   -9.3232   16.5995 O   0  0  0  0  0  0  0  0  0  0  0  0
    1.5232   -7.6869   27.1182 C   0  0  0  0  0  0  0  0  0  0  0  0
    8.6878   -6.6715   27.7262 N   0  0  0  0  0  0  0  0  0  0  0  0
    6.9911   -8.2423   27.1808 C   0  0  0  0  0  0  0  0  0  0  0  0
    3.8436   -7.2758   16.0578 C   0  0  0  0  0  0  0  0  0  0  0  0
    3.1882   -9.7190   17.2566 C   0  0  0  0  0  0  0  0  0  0  0  0
    5.3488   -6.1737   26.5092 C   0  0  0  0  0  0  0  0  0  0  0  0
    7.4567   -6.9464   27.2858 C   0  0  0  0  0  0  0  0  0  0  0  0
    0.1921   -5.7592   27.1123 C   0  0  0  0  0  0  0  0  0  0  0  0
    3.5517   -7.7407   25.9711 C   0  0  0  0  0  0  0  0  0  0  0  0
  1  4  4  0
  1 22  4  0
  2 20  4  0
  2 27  4  0
  3 12  4  0
  3 23  4  0
  4 25  4  0
  4 28  1  0
  5  8  4  0
  5 17  4  0
  6  7  4  0
  6 16  4  0
  7 18  4  0
  8 27  4  0
  9 13  4  0
  9 23  4  0
 10 11  1  0
 11 14  2  0
 11 27  1  0
 12 19  1  0
 12 24  4  0
 13 24  4  0
 15 18  1  0
 16 25  4  0
 16 26  4  0
 17 20  4  0
 17 28  1  0
 18 21  4  0
 21 26  4  0
 22 26  4  0
M  END
$$$$

 Created by Python create_sdf_string function

 28 30  0  0  0  0  0  0  0  0999 V2000
    5.7174   -8.4529   26.7190 C   0  0  0  0  0  0  0  0  0  0  0  0
    0.3974   -7.0711   27.5149 C   0  0  0  0  0  0  0  0  0  0  0  0
    2.5338   -7.6891   16.0102 C   0  0  0  0  0  0  0  0  0  0  0  0
    4.8690   -7.4380   26.4151 C   0  0  0  0  0  0  0  0  0  0  0  0
    2.3021   -5.6726   26.0378 C   0  0  0  0  0  0  0  0  0  0  0  0
    7.0880   -4.6163   27.0010 C   0  0  0  0  0  0  0  0  0  0  0  0
    8.3117   -4.3698   27.4436 C   0  0  0  0  0  0  0  0  0  0  0  0
    1.1339   -5.0515   26.3541 C   0  0  0  0  0  0  0  0  0  0  0  0
    4.8080   -8.0362   16.7101 C   0  0  0  0  0  0  0  0  0  0  0  0
   -1.2173   -3.9294   26.9717 O   0  0  0  0  0  0  0  0  0  0  0  0
   -1.0025   -5.0942   27.4586 C   0  0  0  0  0  0  0  0  0  0  0  0
    2.2474   -8.9123   16.6273 C   0  0  0  0  0  0  0  0  0  0  0  0
    4.4957   -9.2636   17.3041 C   0  0  0  0  0  0  0  0  0  0  0  0
   -1.8070   -5.6086   28.1920 O   0  0  0  0  0  0  0  0  0  0  0  0
   10.4296   -5.1799   28.3140 C   0  0  0  0  0  0  0  0  0  0  0  0
    6.6017   -5.9004   26.9187 C   0  0  0  0  0  0  0  0  0  0  0  0
    2.4761   -6.9940   26.4111 N   0  0  0  0  0  0  0  0  0  0  0  0
    9.1353   -5.4053   27.8239 C   0  0  0  0  0  0  0  0  0  0  0  0
    0.9922   -9.3232   16.5995 O   0  0  0  0  0  0  0  0  0  0  0  0
    1.5232   -7.6869   27.1182 C   0  0  0  0  0  0  0  0  0  0  0  0
    8.6878   -6.6715   27.7262 N   0  0  0  0  0  0  0  0  0  0  0  0
    6.9911   -8.2423   27.1808 C   0  0  0  0  0  0  0  0  0  0  0  0
    3.8436   -7.2758   16.0578 C   0  0  0  0  0  0  0  0  0  0  0  0
    3.1882   -9.7190   17.2566 C   0  0  0  0  0  0  0  0  0  0  0  0
    5.3488   -6.1737   26.5092 C   0  0  0  0  0  0  0  0  0  0  0  0
    7.4567   -6.9464   27.2858 C   0  0  0  0  0  0  0  0  0  0  0  0
    0.1921   -5.7592   27.1123 C   0  0  0  0  0  0  0  0  0  0  0  0
    3.5517   -7.7407   25.9711 C   0  0  0  0  0  0  0  0  0  0  0  0
  1  4  4  0
  1 22  4  0
  2 20  4  0
  2 27  4  0
  3 12  4  0
  3 23  4  0
  4 25  4  0
  4 28  1  0
  5  8  4  0
  5 17  4  0
  6  7  4  0
  6 16  4  0
  7 18  4  0
  8 27  4  0
  9 13  4  0
  9 23  4  0
 10 11  1  0
 11 14  2  0
 11 27  1  0
 12 19  1  0
 12 24  4  0
 13 24  4  0
 15 18  1  0
 16 25  4  0
 16 26  4  0
 17 20  4  0
 17 28  1  0
 18 21  4  0
 21 26  4  0
 22 26  4  0
M  END
$$$$

 Created by Python create_sdf_string function

 28 30  0  0  0  0  0  0  0  0999 V2000
    5.7174   -8.4529   26.7190 C   0  0  0  0  0  0  0  0  0  0  0  0
    0.3974   -7.0711   27.5149 C   0  0  0  0  0  0  0  0  0  0  0  0
    2.5338   -7.6891   16.0102 C   0  0  0  0  0  0  0  0  0  0  0  0
    4.8690   -7.4380   26.4151 C   0  0  0  0  0  0  0  0  0  0  0  0
    2.3021   -5.6726   26.0378 C   0  0  0  0  0  0  0  0  0  0  0  0
    7.0880   -4.6163   27.0010 C   0  0  0  0  0  0  0  0  0  0  0  0
    8.3117   -4.3698   27.4436 C   0  0  0  0  0  0  0  0  0  0  0  0
    1.1339   -5.0515   26.3541 C   0  0  0  0  0  0  0  0  0  0  0  0
    4.8080   -8.0362   16.7101 C   0  0  0  0  0  0  0  0  0  0  0  0
   -1.2173   -3.9294   26.9717 O   0  0  0  0  0  0  0  0  0  0  0  0
   -1.0025   -5.0942   27.4586 C   0  0  0  0  0  0  0  0  0  0  0  0
    2.2474   -8.9123   16.6273 C   0  0  0  0  0  0  0  0  0  0  0  0
    4.4957   -9.2636   17.3041 C   0  0  0  0  0  0  0  0  0  0  0  0
   -1.8070   -5.6086   28.1920 O   0  0  0  0  0  0  0  0  0  0  0  0
   10.4296   -5.1799   28.3140 C   0  0  0  0  0  0  0  0  0  0  0  0
    6.6017   -5.9004   26.9187 C   0  0  0  0  0  0  0  0  0  0  0  0
    2.4761   -6.9940   26.4111 N   0  0  0  0  0  0  0  0  0  0  0  0
    9.1353   -5.4053   27.8239 C   0  0  0  0  0  0  0  0  0  0  0  0
    0.9922   -9.3232   16.5995 O   0  0  0  0  0  0  0  0  0  0  0  0
    1.5232   -7.6869   27.1182 C   0  0  0  0  0  0  0  0  0  0  0  0
    8.6878   -6.6715   27.7262 N   0  0  0  0  0  0  0  0  0  0  0  0
    6.9911   -8.2423   27.1808 C   0  0  0  0  0  0  0  0  0  0  0  0
    3.8436   -7.2758   16.0578 C   0  0  0  0  0  0  0  0  0  0  0  0
    3.1882   -9.7190   17.2566 C   0  0  0  0  0  0  0  0  0  0  0  0
    5.3488   -6.1737   26.5092 C   0  0  0  0  0  0  0  0  0  0  0  0
    7.4567   -6.9464   27.2858 C   0  0  0  0  0  0  0  0  0  0  0  0
    0.1921   -5.7592   27.1123 C   0  0  0  0  0  0  0  0  0  0  0  0
    3.5517   -7.7407   25.9711 C   0  0  0  0  0  0  0  0  0  0  0  0
  1  4  4  0
  1 22  4  0
  2 20  4  0
  2 27  4  0
  3 12  4  0
  3 23  4  0
  4 25  4  0
  4 28  1  0
  5  8  4  0
  5 17  4  0
  6  7  4  0
  6 16  4  0
  7 18  4  0
  8 27  4  0
  9 13  4  0
  9 23  4  0
 10 11  1  0
 11 14  2  0
 11 27  1  0
 12 19  1  0
 12 24  4  0
 13 24  4  0
 15 18  1  0
 16 25  4  0
 16 26  4  0
 17 20  4  0
 17 28  1  0
 18 21  4  0
 21 26  4  0
 22 26  4  0
M  END
$$$$

 Created by Python create_sdf_string function

 28 30  0  0  0  0  0  0  0  0999 V2000
    5.7174   -8.4529   26.7190 C   0  0  0  0  0  0  0  0  0  0  0  0
    0.3974   -7.0711   27.5149 C   0  0  0  0  0  0  0  0  0  0  0  0
    2.5338   -7.6891   16.0102 C   0  0  0  0  0  0  0  0  0  0  0  0
    4.8690   -7.4380   26.4151 C   0  0  0  0  0  0  0  0  0  0  0  0
    2.3021   -5.6726   26.0378 C   0  0  0  0  0  0  0  0  0  0  0  0
    7.0880   -4.6163   27.0010 C   0  0  0  0  0  0  0  0  0  0  0  0
    8.3117   -4.3698   27.4436 C   0  0  0  0  0  0  0  0  0  0  0  0
    1.1339   -5.0515   26.3541 C   0  0  0  0  0  0  0  0  0  0  0  0
    4.8080   -8.0362   16.7101 C   0  0  0  0  0  0  0  0  0  0  0  0
   -1.2173   -3.9294   26.9717 O   0  0  0  0  0  0  0  0  0  0  0  0
   -1.0025   -5.0942   27.4586 C   0  0  0  0  0  0  0  0  0  0  0  0
    2.2474   -8.9123   16.6273 C   0  0  0  0  0  0  0  0  0  0  0  0
    4.4957   -9.2636   17.3041 C   0  0  0  0  0  0  0  0  0  0  0  0
   -1.8070   -5.6086   28.1920 O   0  0  0  0  0  0  0  0  0  0  0  0
   10.4296   -5.1799   28.3140 C   0  0  0  0  0  0  0  0  0  0  0  0
    6.6017   -5.9004   26.9187 C   0  0  0  0  0  0  0  0  0  0  0  0
    2.4761   -6.9940   26.4111 N   0  0  0  0  0  0  0  0  0  0  0  0
    9.1353   -5.4053   27.8239 C   0  0  0  0  0  0  0  0  0  0  0  0
    0.9922   -9.3232   16.5995 O   0  0  0  0  0  0  0  0  0  0  0  0
    1.5232   -7.6869   27.1182 C   0  0  0  0  0  0  0  0  0  0  0  0
    8.6878   -6.6715   27.7262 N   0  0  0  0  0  0  0  0  0  0  0  0
    6.9911   -8.2423   27.1808 C   0  0  0  0  0  0  0  0  0  0  0  0
    3.8436   -7.2758   16.0578 C   0  0  0  0  0  0  0  0  0  0  0  0
    3.1882   -9.7190   17.2566 C   0  0  0  0  0  0  0  0  0  0  0  0
    5.3488   -6.1737   26.5092 C   0  0  0  0  0  0  0  0  0  0  0  0
    7.4567   -6.9464   27.2858 C   0  0  0  0  0  0  0  0  0  0  0  0
    0.1921   -5.7592   27.1123 C   0  0  0  0  0  0  0  0  0  0  0  0
    3.5517   -7.7407   25.9711 C   0  0  0  0  0  0  0  0  0  0  0  0
  1  4  4  0
  1 22  4  0
  2 20  4  0
  2 27  4  0
  3 12  4  0
  3 23  4  0
  4 25  4  0
  4 28  1  0
  5  8  4  0
  5 17  4  0
  6  7  4  0
  6 16  4  0
  7 18  4  0
  8 27  4  0
  9 13  4  0
  9 23  4  0
 10 11  1  0
 11 14  2  0
 11 27  1  0
 12 19  1  0
 12 24  4  0
 13 24  4  0
 15 18  1  0
 16 25  4  0
 16 26  4  0
 17 20  4  0
 17 28  1  0
 18 21  4  0
 21 26  4  0
 22 26  4  0
M  END
$$$$

 Created by Python create_sdf_string function

 28 30  0  0  0  0  0  0  0  0999 V2000
    5.7174   -8.4529   26.7190 C   0  0  0  0  0  0  0  0  0  0  0  0
    0.3974   -7.0711   27.5149 C   0  0  0  0  0  0  0  0  0  0  0  0
    2.5338   -7.6891   16.0102 C   0  0  0  0  0  0  0  0  0  0  0  0
    4.8690   -7.4380   26.4151 C   0  0  0  0  0  0  0  0  0  0  0  0
    2.3021   -5.6726   26.0378 C   0  0  0  0  0  0  0  0  0  0  0  0
    7.0880   -4.6163   27.0010 C   0  0  0  0  0  0  0  0  0  0  0  0
    8.3117   -4.3698   27.4436 C   0  0  0  0  0  0  0  0  0  0  0  0
    1.1339   -5.0515   26.3541 C   0  0  0  0  0  0  0  0  0  0  0  0
    4.8080   -8.0362   16.7101 C   0  0  0  0  0  0  0  0  0  0  0  0
   -1.2173   -3.9294   26.9717 O   0  0  0  0  0  0  0  0  0  0  0  0
   -1.0025   -5.0942   27.4586 C   0  0  0  0  0  0  0  0  0  0  0  0
    2.2474   -8.9123   16.6273 C   0  0  0  0  0  0  0  0  0  0  0  0
    4.4957   -9.2636   17.3041 C   0  0  0  0  0  0  0  0  0  0  0  0
   -1.8070   -5.6086   28.1920 O   0  0  0  0  0  0  0  0  0  0  0  0
   10.4296   -5.1799   28.3140 C   0  0  0  0  0  0  0  0  0  0  0  0
    6.6017   -5.9004   26.9187 C   0  0  0  0  0  0  0  0  0  0  0  0
    2.4761   -6.9940   26.4111 N   0  0  0  0  0  0  0  0  0  0  0  0
    9.1353   -5.4053   27.8239 C   0  0  0  0  0  0  0  0  0  0  0  0
    0.9922   -9.3232   16.5995 O   0  0  0  0  0  0  0  0  0  0  0  0
    1.5232   -7.6869   27.1182 C   0  0  0  0  0  0  0  0  0  0  0  0
    8.6878   -6.6715   27.7262 N   0  0  0  0  0  0  0  0  0  0  0  0
    6.9911   -8.2423   27.1808 C   0  0  0  0  0  0  0  0  0  0  0  0
    3.8436   -7.2758   16.0578 C   0  0  0  0  0  0  0  0  0  0  0  0
    3.1882   -9.7190   17.2566 C   0  0  0  0  0  0  0  0  0  0  0  0
    5.3488   -6.1737   26.5092 C   0  0  0  0  0  0  0  0  0  0  0  0
    7.4567   -6.9464   27.2858 C   0  0  0  0  0  0  0  0  0  0  0  0
    0.1921   -5.7592   27.1123 C   0  0  0  0  0  0  0  0  0  0  0  0
    3.5517   -7.7407   25.9711 C   0  0  0  0  0  0  0  0  0  0  0  0
  1  4  4  0
  1 22  4  0
  2 20  4  0
  2 27  4  0
  3 12  4  0
  3 23  4  0
  4 25  4  0
  4 28  1  0
  5  8  4  0
  5 17  4  0
  6  7  4  0
  6 16  4  0
  7 18  4  0
  8 27  4  0
  9 13  4  0
  9 23  4  0
 10 11  1  0
 11 14  2  0
 11 27  1  0
 12 19  1  0
 12 24  4  0
 13 24  4  0
 15 18  1  0
 16 25  4  0
 16 26  4  0
 17 20  4  0
 17 28  1  0
 18 21  4  0
 21 26  4  0
 22 26  4  0
M  END
$$$$

 Created by Python create_sdf_string function

 28 30  0  0  0  0  0  0  0  0999 V2000
    5.7174   -8.4529   26.7190 C   0  0  0  0  0  0  0  0  0  0  0  0
    0.3974   -7.0711   27.5149 C   0  0  0  0  0  0  0  0  0  0  0  0
    2.5338   -7.6891   16.0102 C   0  0  0  0  0  0  0  0  0  0  0  0
    4.8690   -7.4380   26.4151 C   0  0  0  0  0  0  0  0  0  0  0  0
    2.3021   -5.6726   26.0378 C   0  0  0  0  0  0  0  0  0  0  0  0
    7.0880   -4.6163   27.0010 C   0  0  0  0  0  0  0  0  0  0  0  0
    8.3117   -4.3698   27.4436 C   0  0  0  0  0  0  0  0  0  0  0  0
    1.1339   -5.0515   26.3541 C   0  0  0  0  0  0  0  0  0  0  0  0
    4.8080   -8.0362   16.7101 C   0  0  0  0  0  0  0  0  0  0  0  0
   -1.2173   -3.9294   26.9717 O   0  0  0  0  0  0  0  0  0  0  0  0
   -1.0025   -5.0942   27.4586 C   0  0  0  0  0  0  0  0  0  0  0  0
    2.2474   -8.9123   16.6273 C   0  0  0  0  0  0  0  0  0  0  0  0
    4.4957   -9.2636   17.3041 C   0  0  0  0  0  0  0  0  0  0  0  0
   -1.8070   -5.6086   28.1920 O   0  0  0  0  0  0  0  0  0  0  0  0
   10.4296   -5.1799   28.3140 C   0  0  0  0  0  0  0  0  0  0  0  0
    6.6017   -5.9004   26.9187 C   0  0  0  0  0  0  0  0  0  0  0  0
    2.4761   -6.9940   26.4111 N   0  0  0  0  0  0  0  0  0  0  0  0
    9.1353   -5.4053   27.8239 C   0  0  0  0  0  0  0  0  0  0  0  0
    0.9922   -9.3232   16.5995 O   0  0  0  0  0  0  0  0  0  0  0  0
    1.5232   -7.6869   27.1182 C   0  0  0  0  0  0  0  0  0  0  0  0
    8.6878   -6.6715   27.7262 N   0  0  0  0  0  0  0  0  0  0  0  0
    6.9911   -8.2423   27.1808 C   0  0  0  0  0  0  0  0  0  0  0  0
    3.8436   -7.2758   16.0578 C   0  0  0  0  0  0  0  0  0  0  0  0
    3.1882   -9.7190   17.2566 C   0  0  0  0  0  0  0  0  0  0  0  0
    5.3488   -6.1737   26.5092 C   0  0  0  0  0  0  0  0  0  0  0  0
    7.4567   -6.9464   27.2858 C   0  0  0  0  0  0  0  0  0  0  0  0
    0.1921   -5.7592   27.1123 C   0  0  0  0  0  0  0  0  0  0  0  0
    3.5517   -7.7407   25.9711 C   0  0  0  0  0  0  0  0  0  0  0  0
  1  4  4  0
  1 22  4  0
  2 20  4  0
  2 27  4  0
  3 12  4  0
  3 23  4  0
  4 25  4  0
  4 28  1  0
  5  8  4  0
  5 17  4  0
  6  7  4  0
  6 16  4  0
  7 18  4  0
  8 27  4  0
  9 13  4  0
  9 23  4  0
 10 11  1  0
 11 14  2  0
 11 27  1  0
 12 19  1  0
 12 24  4  0
 13 24  4  0
 15 18  1  0
 16 25  4  0
 16 26  4  0
 17 20  4  0
 17 28  1  0
 18 21  4  0
 21 26  4  0
 22 26  4  0
M  END
$$$$

 Created by Python create_sdf_string function

 28 30  0  0  0  0  0  0  0  0999 V2000
    5.7174   -8.4529   26.7190 C   0  0  0  0  0  0  0  0  0  0  0  0
    0.3974   -7.0711   27.5149 C   0  0  0  0  0  0  0  0  0  0  0  0
    2.5338   -7.6891   16.0102 C   0  0  0  0  0  0  0  0  0  0  0  0
    4.8690   -7.4380   26.4151 C   0  0  0  0  0  0  0  0  0  0  0  0
    2.3021   -5.6726   26.0378 C   0  0  0  0  0  0  0  0  0  0  0  0
    7.0880   -4.6163   27.0010 C   0  0  0  0  0  0  0  0  0  0  0  0
    8.3117   -4.3698   27.4436 C   0  0  0  0  0  0  0  0  0  0  0  0
    1.1339   -5.0515   26.3541 C   0  0  0  0  0  0  0  0  0  0  0  0
    4.8080   -8.0362   16.7101 C   0  0  0  0  0  0  0  0  0  0  0  0
   -1.2173   -3.9294   26.9717 O   0  0  0  0  0  0  0  0  0  0  0  0
   -1.0025   -5.0942   27.4586 C   0  0  0  0  0  0  0  0  0  0  0  0
    2.2474   -8.9123   16.6273 C   0  0  0  0  0  0  0  0  0  0  0  0
    4.4957   -9.2636   17.3041 C   0  0  0  0  0  0  0  0  0  0  0  0
   -1.8070   -5.6086   28.1920 O   0  0  0  0  0  0  0  0  0  0  0  0
   10.4296   -5.1799   28.3140 C   0  0  0  0  0  0  0  0  0  0  0  0
    6.6017   -5.9004   26.9187 C   0  0  0  0  0  0  0  0  0  0  0  0
    2.4761   -6.9940   26.4111 N   0  0  0  0  0  0  0  0  0  0  0  0
    9.1353   -5.4053   27.8239 C   0  0  0  0  0  0  0  0  0  0  0  0
    0.9922   -9.3232   16.5995 O   0  0  0  0  0  0  0  0  0  0  0  0
    1.5232   -7.6869   27.1182 C   0  0  0  0  0  0  0  0  0  0  0  0
    8.6878   -6.6715   27.7262 N   0  0  0  0  0  0  0  0  0  0  0  0
    6.9911   -8.2423   27.1808 C   0  0  0  0  0  0  0  0  0  0  0  0
    3.8436   -7.2758   16.0578 C   0  0  0  0  0  0  0  0  0  0  0  0
    3.1882   -9.7190   17.2566 C   0  0  0  0  0  0  0  0  0  0  0  0
    5.3488   -6.1737   26.5092 C   0  0  0  0  0  0  0  0  0  0  0  0
    7.4567   -6.9464   27.2858 C   0  0  0  0  0  0  0  0  0  0  0  0
    0.1921   -5.7592   27.1123 C   0  0  0  0  0  0  0  0  0  0  0  0
    3.5517   -7.7407   25.9711 C   0  0  0  0  0  0  0  0  0  0  0  0
  1  4  4  0
  1 22  4  0
  2 20  4  0
  2 27  4  0
  3 12  4  0
  3 23  4  0
  4 25  4  0
  4 28  1  0
  5  8  4  0
  5 17  4  0
  6  7  4  0
  6 16  4  0
  7 18  4  0
  8 27  4  0
  9 13  4  0
  9 23  4  0
 10 11  1  0
 11 14  2  0
 11 27  1  0
 12 19  1  0
 12 24  4  0
 13 24  4  0
 15 18  1  0
 16 25  4  0
 16 26  4  0
 17 20  4  0
 17 28  1  0
 18 21  4  0
 21 26  4  0
 22 26  4  0
M  END
$$$$

 Created by Python create_sdf_string function

 28 30  0  0  0  0  0  0  0  0999 V2000
    5.7174   -8.4529   26.7190 C   0  0  0  0  0  0  0  0  0  0  0  0
    0.3974   -7.0711   27.5149 C   0  0  0  0  0  0  0  0  0  0  0  0
    2.5338   -7.6891   16.0102 C   0  0  0  0  0  0  0  0  0  0  0  0
    4.8690   -7.4380   26.4151 C   0  0  0  0  0  0  0  0  0  0  0  0
    2.3021   -5.6726   26.0378 C   0  0  0  0  0  0  0  0  0  0  0  0
    7.0880   -4.6163   27.0010 C   0  0  0  0  0  0  0  0  0  0  0  0
    8.3117   -4.3698   27.4436 C   0  0  0  0  0  0  0  0  0  0  0  0
    1.1339   -5.0515   26.3541 C   0  0  0  0  0  0  0  0  0  0  0  0
    4.8080   -8.0362   16.7101 C   0  0  0  0  0  0  0  0  0  0  0  0
   -1.2173   -3.9294   26.9717 O   0  0  0  0  0  0  0  0  0  0  0  0
   -1.0025   -5.0942   27.4586 C   0  0  0  0  0  0  0  0  0  0  0  0
    2.2474   -8.9123   16.6273 C   0  0  0  0  0  0  0  0  0  0  0  0
    4.4957   -9.2636   17.3041 C   0  0  0  0  0  0  0  0  0  0  0  0
   -1.8070   -5.6086   28.1920 O   0  0  0  0  0  0  0  0  0  0  0  0
   10.4296   -5.1799   28.3140 C   0  0  0  0  0  0  0  0  0  0  0  0
    6.6017   -5.9004   26.9187 C   0  0  0  0  0  0  0  0  0  0  0  0
    2.4761   -6.9940   26.4111 N   0  0  0  0  0  0  0  0  0  0  0  0
    9.1353   -5.4053   27.8239 C   0  0  0  0  0  0  0  0  0  0  0  0
    0.9922   -9.3232   16.5995 O   0  0  0  0  0  0  0  0  0  0  0  0
    1.5232   -7.6869   27.1182 C   0  0  0  0  0  0  0  0  0  0  0  0
    8.6878   -6.6715   27.7262 N   0  0  0  0  0  0  0  0  0  0  0  0
    6.9911   -8.2423   27.1808 C   0  0  0  0  0  0  0  0  0  0  0  0
    3.8436   -7.2758   16.0578 C   0  0  0  0  0  0  0  0  0  0  0  0
    3.1882   -9.7190   17.2566 C   0  0  0  0  0  0  0  0  0  0  0  0
    5.3488   -6.1737   26.5092 C   0  0  0  0  0  0  0  0  0  0  0  0
    7.4567   -6.9464   27.2858 C   0  0  0  0  0  0  0  0  0  0  0  0
    0.1921   -5.7592   27.1123 C   0  0  0  0  0  0  0  0  0  0  0  0
    3.5517   -7.7407   25.9711 C   0  0  0  0  0  0  0  0  0  0  0  0
  1  4  4  0
  1 22  4  0
  2 20  4  0
  2 27  4  0
  3 12  4  0
  3 23  4  0
  4 25  4  0
  4 28  1  0
  5  8  4  0
  5 17  4  0
  6  7  4  0
  6 16  4  0
  7 18  4  0
  8 27  4  0
  9 13  4  0
  9 23  4  0
 10 11  1  0
 11 14  2  0
 11 27  1  0
 12 19  1  0
 12 24  4  0
 13 24  4  0
 15 18  1  0
 16 25  4  0
 16 26  4  0
 17 20  4  0
 17 28  1  0
 18 21  4  0
 21 26  4  0
 22 26  4  0
M  END
$$$$

 Created by Python create_sdf_string function

 28 30  0  0  0  0  0  0  0  0999 V2000
    5.7174   -8.4529   26.7190 C   0  0  0  0  0  0  0  0  0  0  0  0
    0.3974   -7.0711   27.5149 C   0  0  0  0  0  0  0  0  0  0  0  0
    2.5338   -7.6891   16.0102 C   0  0  0  0  0  0  0  0  0  0  0  0
    4.8690   -7.4380   26.4151 C   0  0  0  0  0  0  0  0  0  0  0  0
    2.3021   -5.6726   26.0378 C   0  0  0  0  0  0  0  0  0  0  0  0
    7.0880   -4.6163   27.0010 C   0  0  0  0  0  0  0  0  0  0  0  0
    8.3117   -4.3698   27.4436 C   0  0  0  0  0  0  0  0  0  0  0  0
    1.1339   -5.0515   26.3541 C   0  0  0  0  0  0  0  0  0  0  0  0
    4.8080   -8.0362   16.7101 C   0  0  0  0  0  0  0  0  0  0  0  0
   -1.2173   -3.9294   26.9717 O   0  0  0  0  0  0  0  0  0  0  0  0
   -1.0025   -5.0942   27.4586 C   0  0  0  0  0  0  0  0  0  0  0  0
    2.2474   -8.9123   16.6273 C   0  0  0  0  0  0  0  0  0  0  0  0
    4.4957   -9.2636   17.3041 C   0  0  0  0  0  0  0  0  0  0  0  0
   -1.8070   -5.6086   28.1920 O   0  0  0  0  0  0  0  0  0  0  0  0
   10.4296   -5.1799   28.3140 C   0  0  0  0  0  0  0  0  0  0  0  0
    6.6017   -5.9004   26.9187 C   0  0  0  0  0  0  0  0  0  0  0  0
    2.4761   -6.9940   26.4111 N   0  0  0  0  0  0  0  0  0  0  0  0
    9.1353   -5.4053   27.8239 C   0  0  0  0  0  0  0  0  0  0  0  0
    0.9922   -9.3232   16.5995 O   0  0  0  0  0  0  0  0  0  0  0  0
    1.5232   -7.6869   27.1182 C   0  0  0  0  0  0  0  0  0  0  0  0
    8.6878   -6.6715   27.7262 N   0  0  0  0  0  0  0  0  0  0  0  0
    6.9911   -8.2423   27.1808 C   0  0  0  0  0  0  0  0  0  0  0  0
    3.8436   -7.2758   16.0578 C   0  0  0  0  0  0  0  0  0  0  0  0
    3.1882   -9.7190   17.2566 C   0  0  0  0  0  0  0  0  0  0  0  0
    5.3488   -6.1737   26.5092 C   0  0  0  0  0  0  0  0  0  0  0  0
    7.4567   -6.9464   27.2858 C   0  0  0  0  0  0  0  0  0  0  0  0
    0.1921   -5.7592   27.1123 C   0  0  0  0  0  0  0  0  0  0  0  0
    3.5517   -7.7407   25.9711 C   0  0  0  0  0  0  0  0  0  0  0  0
  1  4  4  0
  1 22  4  0
  2 20  4  0
  2 27  4  0
  3 12  4  0
  3 23  4  0
  4 25  4  0
  4 28  1  0
  5  8  4  0
  5 17  4  0
  6  7  4  0
  6 16  4  0
  7 18  4  0
  8 27  4  0
  9 13  4  0
  9 23  4  0
 10 11  1  0
 11 14  2  0
 11 27  1  0
 12 19  1  0
 12 24  4  0
 13 24  4  0
 15 18  1  0
 16 25  4  0
 16 26  4  0
 17 20  4  0
 17 28  1  0
 18 21  4  0
 21 26  4  0
 22 26  4  0
M  END
$$$$

 Created by Python create_sdf_string function

 28 30  0  0  0  0  0  0  0  0999 V2000
    5.7174   -8.4529   26.7190 C   0  0  0  0  0  0  0  0  0  0  0  0
    0.3974   -7.0711   27.5149 C   0  0  0  0  0  0  0  0  0  0  0  0
    2.5338   -7.6891   16.0102 C   0  0  0  0  0  0  0  0  0  0  0  0
    4.8690   -7.4380   26.4151 C   0  0  0  0  0  0  0  0  0  0  0  0
    2.3021   -5.6726   26.0378 C   0  0  0  0  0  0  0  0  0  0  0  0
    7.0880   -4.6163   27.0010 C   0  0  0  0  0  0  0  0  0  0  0  0
    8.3117   -4.3698   27.4436 C   0  0  0  0  0  0  0  0  0  0  0  0
    1.1339   -5.0515   26.3541 C   0  0  0  0  0  0  0  0  0  0  0  0
    4.8080   -8.0362   16.7101 C   0  0  0  0  0  0  0  0  0  0  0  0
   -1.2173   -3.9294   26.9717 O   0  0  0  0  0  0  0  0  0  0  0  0
   -1.0025   -5.0942   27.4586 C   0  0  0  0  0  0  0  0  0  0  0  0
    2.2474   -8.9123   16.6273 C   0  0  0  0  0  0  0  0  0  0  0  0
    4.4957   -9.2636   17.3041 C   0  0  0  0  0  0  0  0  0  0  0  0
   -1.8070   -5.6086   28.1920 O   0  0  0  0  0  0  0  0  0  0  0  0
   10.4296   -5.1799   28.3140 C   0  0  0  0  0  0  0  0  0  0  0  0
    6.6017   -5.9004   26.9187 C   0  0  0  0  0  0  0  0  0  0  0  0
    2.4761   -6.9940   26.4111 N   0  0  0  0  0  0  0  0  0  0  0  0
    9.1353   -5.4053   27.8239 C   0  0  0  0  0  0  0  0  0  0  0  0
    0.9922   -9.3232   16.5995 O   0  0  0  0  0  0  0  0  0  0  0  0
    1.5232   -7.6869   27.1182 C   0  0  0  0  0  0  0  0  0  0  0  0
    8.6878   -6.6715   27.7262 N   0  0  0  0  0  0  0  0  0  0  0  0
    6.9911   -8.2423   27.1808 C   0  0  0  0  0  0  0  0  0  0  0  0
    3.8436   -7.2758   16.0578 C   0  0  0  0  0  0  0  0  0  0  0  0
    3.1882   -9.7190   17.2566 C   0  0  0  0  0  0  0  0  0  0  0  0
    5.3488   -6.1737   26.5092 C   0  0  0  0  0  0  0  0  0  0  0  0
    7.4567   -6.9464   27.2858 C   0  0  0  0  0  0  0  0  0  0  0  0
    0.1921   -5.7592   27.1123 C   0  0  0  0  0  0  0  0  0  0  0  0
    3.5517   -7.7407   25.9711 C   0  0  0  0  0  0  0  0  0  0  0  0
  1  4  4  0
  1 22  4  0
  2 20  4  0
  2 27  4  0
  3 12  4  0
  3 23  4  0
  4 25  4  0
  4 28  1  0
  5  8  4  0
  5 17  4  0
  6  7  4  0
  6 16  4  0
  7 18  4  0
  8 27  4  0
  9 13  4  0
  9 23  4  0
 10 11  1  0
 11 14  2  0
 11 27  1  0
 12 19  1  0
 12 24  4  0
 13 24  4  0
 15 18  1  0
 16 25  4  0
 16 26  4  0
 17 20  4  0
 17 28  1  0
 18 21  4  0
 21 26  4  0
 22 26  4  0
M  END
$$$$

 Created by Python create_sdf_string function

 28 30  0  0  0  0  0  0  0  0999 V2000
    5.7174   -8.4529   26.7190 C   0  0  0  0  0  0  0  0  0  0  0  0
    0.3974   -7.0711   27.5149 C   0  0  0  0  0  0  0  0  0  0  0  0
    2.5338   -7.6891   16.0102 C   0  0  0  0  0  0  0  0  0  0  0  0
    4.8690   -7.4380   26.4151 C   0  0  0  0  0  0  0  0  0  0  0  0
    2.3021   -5.6726   26.0378 C   0  0  0  0  0  0  0  0  0  0  0  0
    7.0880   -4.6163   27.0010 C   0  0  0  0  0  0  0  0  0  0  0  0
    8.3117   -4.3698   27.4436 C   0  0  0  0  0  0  0  0  0  0  0  0
    1.1339   -5.0515   26.3541 C   0  0  0  0  0  0  0  0  0  0  0  0
    4.8080   -8.0362   16.7101 C   0  0  0  0  0  0  0  0  0  0  0  0
   -1.2173   -3.9294   26.9717 O   0  0  0  0  0  0  0  0  0  0  0  0
   -1.0025   -5.0942   27.4586 C   0  0  0  0  0  0  0  0  0  0  0  0
    2.2474   -8.9123   16.6273 C   0  0  0  0  0  0  0  0  0  0  0  0
    4.4957   -9.2636   17.3041 C   0  0  0  0  0  0  0  0  0  0  0  0
   -1.8070   -5.6086   28.1920 O   0  0  0  0  0  0  0  0  0  0  0  0
   10.4296   -5.1799   28.3140 C   0  0  0  0  0  0  0  0  0  0  0  0
    6.6017   -5.9004   26.9187 C   0  0  0  0  0  0  0  0  0  0  0  0
    2.4761   -6.9940   26.4111 N   0  0  0  0  0  0  0  0  0  0  0  0
    9.1353   -5.4053   27.8239 C   0  0  0  0  0  0  0  0  0  0  0  0
    0.9922   -9.3232   16.5995 O   0  0  0  0  0  0  0  0  0  0  0  0
    1.5232   -7.6869   27.1182 C   0  0  0  0  0  0  0  0  0  0  0  0
    8.6878   -6.6715   27.7262 N   0  0  0  0  0  0  0  0  0  0  0  0
    6.9911   -8.2423   27.1808 C   0  0  0  0  0  0  0  0  0  0  0  0
    3.8436   -7.2758   16.0578 C   0  0  0  0  0  0  0  0  0  0  0  0
    3.1882   -9.7190   17.2566 C   0  0  0  0  0  0  0  0  0  0  0  0
    5.3488   -6.1737   26.5092 C   0  0  0  0  0  0  0  0  0  0  0  0
    7.4567   -6.9464   27.2858 C   0  0  0  0  0  0  0  0  0  0  0  0
    0.1921   -5.7592   27.1123 C   0  0  0  0  0  0  0  0  0  0  0  0
    3.5517   -7.7407   25.9711 C   0  0  0  0  0  0  0  0  0  0  0  0
  1  4  4  0
  1 22  4  0
  2 20  4  0
  2 27  4  0
  3 12  4  0
  3 23  4  0
  4 25  4  0
  4 28  1  0
  5  8  4  0
  5 17  4  0
  6  7  4  0
  6 16  4  0
  7 18  4  0
  8 27  4  0
  9 13  4  0
  9 23  4  0
 10 11  1  0
 11 14  2  0
 11 27  1  0
 12 19  1  0
 12 24  4  0
 13 24  4  0
 15 18  1  0
 16 25  4  0
 16 26  4  0
 17 20  4  0
 17 28  1  0
 18 21  4  0
 21 26  4  0
 22 26  4  0
M  END
$$$$

 Created by Python create_sdf_string function

 28 30  0  0  0  0  0  0  0  0999 V2000
    5.7174   -8.4529   26.7190 C   0  0  0  0  0  0  0  0  0  0  0  0
    0.3974   -7.0711   27.5149 C   0  0  0  0  0  0  0  0  0  0  0  0
    2.5338   -7.6891   16.0102 C   0  0  0  0  0  0  0  0  0  0  0  0
    4.8690   -7.4380   26.4151 C   0  0  0  0  0  0  0  0  0  0  0  0
    2.3021   -5.6726   26.0378 C   0  0  0  0  0  0  0  0  0  0  0  0
    7.0880   -4.6163   27.0010 C   0  0  0  0  0  0  0  0  0  0  0  0
    8.3117   -4.3698   27.4436 C   0  0  0  0  0  0  0  0  0  0  0  0
    1.1339   -5.0515   26.3541 C   0  0  0  0  0  0  0  0  0  0  0  0
    4.8080   -8.0362   16.7101 C   0  0  0  0  0  0  0  0  0  0  0  0
   -1.2173   -3.9294   26.9717 O   0  0  0  0  0  0  0  0  0  0  0  0
   -1.0025   -5.0942   27.4586 C   0  0  0  0  0  0  0  0  0  0  0  0
    2.2474   -8.9123   16.6273 C   0  0  0  0  0  0  0  0  0  0  0  0
    4.4957   -9.2636   17.3041 C   0  0  0  0  0  0  0  0  0  0  0  0
   -1.8070   -5.6086   28.1920 O   0  0  0  0  0  0  0  0  0  0  0  0
   10.4296   -5.1799   28.3140 C   0  0  0  0  0  0  0  0  0  0  0  0
    6.6017   -5.9004   26.9187 C   0  0  0  0  0  0  0  0  0  0  0  0
    2.4761   -6.9940   26.4111 N   0  0  0  0  0  0  0  0  0  0  0  0
    9.1353   -5.4053   27.8239 C   0  0  0  0  0  0  0  0  0  0  0  0
    0.9922   -9.3232   16.5995 O   0  0  0  0  0  0  0  0  0  0  0  0
    1.5232   -7.6869   27.1182 C   0  0  0  0  0  0  0  0  0  0  0  0
    8.6878   -6.6715   27.7262 N   0  0  0  0  0  0  0  0  0  0  0  0
    6.9911   -8.2423   27.1808 C   0  0  0  0  0  0  0  0  0  0  0  0
    3.8436   -7.2758   16.0578 C   0  0  0  0  0  0  0  0  0  0  0  0
    3.1882   -9.7190   17.2566 C   0  0  0  0  0  0  0  0  0  0  0  0
    5.3488   -6.1737   26.5092 C   0  0  0  0  0  0  0  0  0  0  0  0
    7.4567   -6.9464   27.2858 C   0  0  0  0  0  0  0  0  0  0  0  0
    0.1921   -5.7592   27.1123 C   0  0  0  0  0  0  0  0  0  0  0  0
    3.5517   -7.7407   25.9711 C   0  0  0  0  0  0  0  0  0  0  0  0
  1  4  4  0
  1 22  4  0
  2 20  4  0
  2 27  4  0
  3 12  4  0
  3 23  4  0
  4 25  4  0
  4 28  1  0
  5  8  4  0
  5 17  4  0
  6  7  4  0
  6 16  4  0
  7 18  4  0
  8 27  4  0
  9 13  4  0
  9 23  4  0
 10 11  1  0
 11 14  2  0
 11 27  1  0
 12 19  1  0
 12 24  4  0
 13 24  4  0
 15 18  1  0
 16 25  4  0
 16 26  4  0
 17 20  4  0
 17 28  1  0
 18 21  4  0
 21 26  4  0
 22 26  4  0
M  END
$$$$

 Created by Python create_sdf_string function

 28 30  0  0  0  0  0  0  0  0999 V2000
    5.7174   -8.4529   26.7190 C   0  0  0  0  0  0  0  0  0  0  0  0
    0.3974   -7.0711   27.5149 C   0  0  0  0  0  0  0  0  0  0  0  0
    2.5338   -7.6891   16.0102 C   0  0  0  0  0  0  0  0  0  0  0  0
    4.8690   -7.4380   26.4151 C   0  0  0  0  0  0  0  0  0  0  0  0
    2.3021   -5.6726   26.0378 C   0  0  0  0  0  0  0  0  0  0  0  0
    7.0880   -4.6163   27.0010 C   0  0  0  0  0  0  0  0  0  0  0  0
    8.3117   -4.3698   27.4436 C   0  0  0  0  0  0  0  0  0  0  0  0
    1.1339   -5.0515   26.3541 C   0  0  0  0  0  0  0  0  0  0  0  0
    4.8080   -8.0362   16.7101 C   0  0  0  0  0  0  0  0  0  0  0  0
   -1.2173   -3.9294   26.9717 O   0  0  0  0  0  0  0  0  0  0  0  0
   -1.0025   -5.0942   27.4586 C   0  0  0  0  0  0  0  0  0  0  0  0
    2.2474   -8.9123   16.6273 C   0  0  0  0  0  0  0  0  0  0  0  0
    4.4957   -9.2636   17.3041 C   0  0  0  0  0  0  0  0  0  0  0  0
   -1.8070   -5.6086   28.1920 O   0  0  0  0  0  0  0  0  0  0  0  0
   10.4296   -5.1799   28.3140 C   0  0  0  0  0  0  0  0  0  0  0  0
    6.6017   -5.9004   26.9187 C   0  0  0  0  0  0  0  0  0  0  0  0
    2.4761   -6.9940   26.4111 N   0  0  0  0  0  0  0  0  0  0  0  0
    9.1353   -5.4053   27.8239 C   0  0  0  0  0  0  0  0  0  0  0  0
    0.9922   -9.3232   16.5995 O   0  0  0  0  0  0  0  0  0  0  0  0
    1.5232   -7.6869   27.1182 C   0  0  0  0  0  0  0  0  0  0  0  0
    8.6878   -6.6715   27.7262 N   0  0  0  0  0  0  0  0  0  0  0  0
    6.9911   -8.2423   27.1808 C   0  0  0  0  0  0  0  0  0  0  0  0
    3.8436   -7.2758   16.0578 C   0  0  0  0  0  0  0  0  0  0  0  0
    3.1882   -9.7190   17.2566 C   0  0  0  0  0  0  0  0  0  0  0  0
    5.3488   -6.1737   26.5092 C   0  0  0  0  0  0  0  0  0  0  0  0
    7.4567   -6.9464   27.2858 C   0  0  0  0  0  0  0  0  0  0  0  0
    0.1921   -5.7592   27.1123 C   0  0  0  0  0  0  0  0  0  0  0  0
    3.5517   -7.7407   25.9711 C   0  0  0  0  0  0  0  0  0  0  0  0
  1  4  4  0
  1 22  4  0
  2 20  4  0
  2 27  4  0
  3 12  4  0
  3 23  4  0
  4 25  4  0
  4 28  1  0
  5  8  4  0
  5 17  4  0
  6  7  4  0
  6 16  4  0
  7 18  4  0
  8 27  4  0
  9 13  4  0
  9 23  4  0
 10 11  1  0
 11 14  2  0
 11 27  1  0
 12 19  1  0
 12 24  4  0
 13 24  4  0
 15 18  1  0
 16 25  4  0
 16 26  4  0
 17 20  4  0
 17 28  1  0
 18 21  4  0
 21 26  4  0
 22 26  4  0
M  END
$$$$

 Created by Python create_sdf_string function

 28 30  0  0  0  0  0  0  0  0999 V2000
    5.7174   -8.4529   26.7190 C   0  0  0  0  0  0  0  0  0  0  0  0
    0.3974   -7.0711   27.5149 C   0  0  0  0  0  0  0  0  0  0  0  0
    2.5338   -7.6891   16.0102 C   0  0  0  0  0  0  0  0  0  0  0  0
    4.8690   -7.4380   26.4151 C   0  0  0  0  0  0  0  0  0  0  0  0
    2.3021   -5.6726   26.0378 C   0  0  0  0  0  0  0  0  0  0  0  0
    7.0880   -4.6163   27.0010 C   0  0  0  0  0  0  0  0  0  0  0  0
    8.3117   -4.3698   27.4436 C   0  0  0  0  0  0  0  0  0  0  0  0
    1.1339   -5.0515   26.3541 C   0  0  0  0  0  0  0  0  0  0  0  0
    4.8080   -8.0362   16.7101 C   0  0  0  0  0  0  0  0  0  0  0  0
   -1.2173   -3.9294   26.9717 O   0  0  0  0  0  0  0  0  0  0  0  0
   -1.0025   -5.0942   27.4586 C   0  0  0  0  0  0  0  0  0  0  0  0
    2.2474   -8.9123   16.6273 C   0  0  0  0  0  0  0  0  0  0  0  0
    4.4957   -9.2636   17.3041 C   0  0  0  0  0  0  0  0  0  0  0  0
   -1.8070   -5.6086   28.1920 O   0  0  0  0  0  0  0  0  0  0  0  0
   10.4296   -5.1799   28.3140 C   0  0  0  0  0  0  0  0  0  0  0  0
    6.6017   -5.9004   26.9187 C   0  0  0  0  0  0  0  0  0  0  0  0
    2.4761   -6.9940   26.4111 N   0  0  0  0  0  0  0  0  0  0  0  0
    9.1353   -5.4053   27.8239 C   0  0  0  0  0  0  0  0  0  0  0  0
    0.9922   -9.3232   16.5995 O   0  0  0  0  0  0  0  0  0  0  0  0
    1.5232   -7.6869   27.1182 C   0  0  0  0  0  0  0  0  0  0  0  0
    8.6878   -6.6715   27.7262 N   0  0  0  0  0  0  0  0  0  0  0  0
    6.9911   -8.2423   27.1808 C   0  0  0  0  0  0  0  0  0  0  0  0
    3.8436   -7.2758   16.0578 C   0  0  0  0  0  0  0  0  0  0  0  0
    3.1882   -9.7190   17.2566 C   0  0  0  0  0  0  0  0  0  0  0  0
    5.3488   -6.1737   26.5092 C   0  0  0  0  0  0  0  0  0  0  0  0
    7.4567   -6.9464   27.2858 C   0  0  0  0  0  0  0  0  0  0  0  0
    0.1921   -5.7592   27.1123 C   0  0  0  0  0  0  0  0  0  0  0  0
    3.5517   -7.7407   25.9711 C   0  0  0  0  0  0  0  0  0  0  0  0
  1  4  4  0
  1 22  4  0
  2 20  4  0
  2 27  4  0
  3 12  4  0
  3 23  4  0
  4 25  4  0
  4 28  1  0
  5  8  4  0
  5 17  4  0
  6  7  4  0
  6 16  4  0
  7 18  4  0
  8 27  4  0
  9 13  4  0
  9 23  4  0
 10 11  1  0
 11 14  2  0
 11 27  1  0
 12 19  1  0
 12 24  4  0
 13 24  4  0
 15 18  1  0
 16 25  4  0
 16 26  4  0
 17 20  4  0
 17 28  1  0
 18 21  4  0
 21 26  4  0
 22 26  4  0
M  END
$$$$

 Created by Python create_sdf_string function

 28 30  0  0  0  0  0  0  0  0999 V2000
    5.7174   -8.4529   26.7190 C   0  0  0  0  0  0  0  0  0  0  0  0
    0.3974   -7.0711   27.5149 C   0  0  0  0  0  0  0  0  0  0  0  0
    2.5338   -7.6891   16.0102 C   0  0  0  0  0  0  0  0  0  0  0  0
    4.8690   -7.4380   26.4151 C   0  0  0  0  0  0  0  0  0  0  0  0
    2.3021   -5.6726   26.0378 C   0  0  0  0  0  0  0  0  0  0  0  0
    7.0880   -4.6163   27.0010 C   0  0  0  0  0  0  0  0  0  0  0  0
    8.3117   -4.3698   27.4436 C   0  0  0  0  0  0  0  0  0  0  0  0
    1.1339   -5.0515   26.3541 C   0  0  0  0  0  0  0  0  0  0  0  0
    4.8080   -8.0362   16.7101 C   0  0  0  0  0  0  0  0  0  0  0  0
   -1.2173   -3.9294   26.9717 O   0  0  0  0  0  0  0  0  0  0  0  0
   -1.0025   -5.0942   27.4586 C   0  0  0  0  0  0  0  0  0  0  0  0
    2.2474   -8.9123   16.6273 C   0  0  0  0  0  0  0  0  0  0  0  0
    4.4957   -9.2636   17.3041 C   0  0  0  0  0  0  0  0  0  0  0  0
   -1.8070   -5.6086   28.1920 O   0  0  0  0  0  0  0  0  0  0  0  0
   10.4296   -5.1799   28.3140 C   0  0  0  0  0  0  0  0  0  0  0  0
    6.6017   -5.9004   26.9187 C   0  0  0  0  0  0  0  0  0  0  0  0
    2.4761   -6.9940   26.4111 N   0  0  0  0  0  0  0  0  0  0  0  0
    9.1353   -5.4053   27.8239 C   0  0  0  0  0  0  0  0  0  0  0  0
    0.9922   -9.3232   16.5995 O   0  0  0  0  0  0  0  0  0  0  0  0
    1.5232   -7.6869   27.1182 C   0  0  0  0  0  0  0  0  0  0  0  0
    8.6878   -6.6715   27.7262 N   0  0  0  0  0  0  0  0  0  0  0  0
    6.9911   -8.2423   27.1808 C   0  0  0  0  0  0  0  0  0  0  0  0
    3.8436   -7.2758   16.0578 C   0  0  0  0  0  0  0  0  0  0  0  0
    3.1882   -9.7190   17.2566 C   0  0  0  0  0  0  0  0  0  0  0  0
    5.3488   -6.1737   26.5092 C   0  0  0  0  0  0  0  0  0  0  0  0
    7.4567   -6.9464   27.2858 C   0  0  0  0  0  0  0  0  0  0  0  0
    0.1921   -5.7592   27.1123 C   0  0  0  0  0  0  0  0  0  0  0  0
    3.5517   -7.7407   25.9711 C   0  0  0  0  0  0  0  0  0  0  0  0
  1  4  4  0
  1 22  4  0
  2 20  4  0
  2 27  4  0
  3 12  4  0
  3 23  4  0
  4 25  4  0
  4 28  1  0
  5  8  4  0
  5 17  4  0
  6  7  4  0
  6 16  4  0
  7 18  4  0
  8 27  4  0
  9 13  4  0
  9 23  4  0
 10 11  1  0
 11 14  2  0
 11 27  1  0
 12 19  1  0
 12 24  4  0
 13 24  4  0
 15 18  1  0
 16 25  4  0
 16 26  4  0
 17 20  4  0
 17 28  1  0
 18 21  4  0
 21 26  4  0
 22 26  4  0
M  END
$$$$

 Created by Python create_sdf_string function

 28 30  0  0  0  0  0  0  0  0999 V2000
    5.7174   -8.4529   26.7190 C   0  0  0  0  0  0  0  0  0  0  0  0
    0.3974   -7.0711   27.5149 C   0  0  0  0  0  0  0  0  0  0  0  0
    2.5338   -7.6891   16.0102 C   0  0  0  0  0  0  0  0  0  0  0  0
    4.8690   -7.4380   26.4151 C   0  0  0  0  0  0  0  0  0  0  0  0
    2.3021   -5.6726   26.0378 C   0  0  0  0  0  0  0  0  0  0  0  0
    7.0880   -4.6163   27.0010 C   0  0  0  0  0  0  0  0  0  0  0  0
    8.3117   -4.3698   27.4436 C   0  0  0  0  0  0  0  0  0  0  0  0
    1.1339   -5.0515   26.3541 C   0  0  0  0  0  0  0  0  0  0  0  0
    4.8080   -8.0362   16.7101 C   0  0  0  0  0  0  0  0  0  0  0  0
   -1.2173   -3.9294   26.9717 O   0  0  0  0  0  0  0  0  0  0  0  0
   -1.0025   -5.0942   27.4586 C   0  0  0  0  0  0  0  0  0  0  0  0
    2.2474   -8.9123   16.6273 C   0  0  0  0  0  0  0  0  0  0  0  0
    4.4957   -9.2636   17.3041 C   0  0  0  0  0  0  0  0  0  0  0  0
   -1.8070   -5.6086   28.1920 O   0  0  0  0  0  0  0  0  0  0  0  0
   10.4296   -5.1799   28.3140 C   0  0  0  0  0  0  0  0  0  0  0  0
    6.6017   -5.9004   26.9187 C   0  0  0  0  0  0  0  0  0  0  0  0
    2.4761   -6.9940   26.4111 N   0  0  0  0  0  0  0  0  0  0  0  0
    9.1353   -5.4053   27.8239 C   0  0  0  0  0  0  0  0  0  0  0  0
    0.9922   -9.3232   16.5995 O   0  0  0  0  0  0  0  0  0  0  0  0
    1.5232   -7.6869   27.1182 C   0  0  0  0  0  0  0  0  0  0  0  0
    8.6878   -6.6715   27.7262 N   0  0  0  0  0  0  0  0  0  0  0  0
    6.9911   -8.2423   27.1808 C   0  0  0  0  0  0  0  0  0  0  0  0
    3.8436   -7.2758   16.0578 C   0  0  0  0  0  0  0  0  0  0  0  0
    3.1882   -9.7190   17.2566 C   0  0  0  0  0  0  0  0  0  0  0  0
    5.3488   -6.1737   26.5092 C   0  0  0  0  0  0  0  0  0  0  0  0
    7.4567   -6.9464   27.2858 C   0  0  0  0  0  0  0  0  0  0  0  0
    0.1921   -5.7592   27.1123 C   0  0  0  0  0  0  0  0  0  0  0  0
    3.5517   -7.7407   25.9711 C   0  0  0  0  0  0  0  0  0  0  0  0
  1  4  4  0
  1 22  4  0
  2 20  4  0
  2 27  4  0
  3 12  4  0
  3 23  4  0
  4 25  4  0
  4 28  1  0
  5  8  4  0
  5 17  4  0
  6  7  4  0
  6 16  4  0
  7 18  4  0
  8 27  4  0
  9 13  4  0
  9 23  4  0
 10 11  1  0
 11 14  2  0
 11 27  1  0
 12 19  1  0
 12 24  4  0
 13 24  4  0
 15 18  1  0
 16 25  4  0
 16 26  4  0
 17 20  4  0
 17 28  1  0
 18 21  4  0
 21 26  4  0
 22 26  4  0
M  END
$$$$

 Created by Python create_sdf_string function

 28 30  0  0  0  0  0  0  0  0999 V2000
    5.7174   -8.4529   26.7190 C   0  0  0  0  0  0  0  0  0  0  0  0
    0.3974   -7.0711   27.5149 C   0  0  0  0  0  0  0  0  0  0  0  0
    2.5338   -7.6891   16.0102 C   0  0  0  0  0  0  0  0  0  0  0  0
    4.8690   -7.4380   26.4151 C   0  0  0  0  0  0  0  0  0  0  0  0
    2.3021   -5.6726   26.0378 C   0  0  0  0  0  0  0  0  0  0  0  0
    7.0880   -4.6163   27.0010 C   0  0  0  0  0  0  0  0  0  0  0  0
    8.3117   -4.3698   27.4436 C   0  0  0  0  0  0  0  0  0  0  0  0
    1.1339   -5.0515   26.3541 C   0  0  0  0  0  0  0  0  0  0  0  0
    4.8080   -8.0362   16.7101 C   0  0  0  0  0  0  0  0  0  0  0  0
   -1.2173   -3.9294   26.9717 O   0  0  0  0  0  0  0  0  0  0  0  0
   -1.0025   -5.0942   27.4586 C   0  0  0  0  0  0  0  0  0  0  0  0
    2.2474   -8.9123   16.6273 C   0  0  0  0  0  0  0  0  0  0  0  0
    4.4957   -9.2636   17.3041 C   0  0  0  0  0  0  0  0  0  0  0  0
   -1.8070   -5.6086   28.1920 O   0  0  0  0  0  0  0  0  0  0  0  0
   10.4296   -5.1799   28.3140 C   0  0  0  0  0  0  0  0  0  0  0  0
    6.6017   -5.9004   26.9187 C   0  0  0  0  0  0  0  0  0  0  0  0
    2.4761   -6.9940   26.4111 N   0  0  0  0  0  0  0  0  0  0  0  0
    9.1353   -5.4053   27.8239 C   0  0  0  0  0  0  0  0  0  0  0  0
    0.9922   -9.3232   16.5995 O   0  0  0  0  0  0  0  0  0  0  0  0
    1.5232   -7.6869   27.1182 C   0  0  0  0  0  0  0  0  0  0  0  0
    8.6878   -6.6715   27.7262 N   0  0  0  0  0  0  0  0  0  0  0  0
    6.9911   -8.2423   27.1808 C   0  0  0  0  0  0  0  0  0  0  0  0
    3.8436   -7.2758   16.0578 C   0  0  0  0  0  0  0  0  0  0  0  0
    3.1882   -9.7190   17.2566 C   0  0  0  0  0  0  0  0  0  0  0  0
    5.3488   -6.1737   26.5092 C   0  0  0  0  0  0  0  0  0  0  0  0
    7.4567   -6.9464   27.2858 C   0  0  0  0  0  0  0  0  0  0  0  0
    0.1921   -5.7592   27.1123 C   0  0  0  0  0  0  0  0  0  0  0  0
    3.5517   -7.7407   25.9711 C   0  0  0  0  0  0  0  0  0  0  0  0
  1  4  4  0
  1 22  4  0
  2 20  4  0
  2 27  4  0
  3 12  4  0
  3 23  4  0
  4 25  4  0
  4 28  1  0
  5  8  4  0
  5 17  4  0
  6  7  4  0
  6 16  4  0
  7 18  4  0
  8 27  4  0
  9 13  4  0
  9 23  4  0
 10 11  1  0
 11 14  2  0
 11 27  1  0
 12 19  1  0
 12 24  4  0
 13 24  4  0
 15 18  1  0
 16 25  4  0
 16 26  4  0
 17 20  4  0
 17 28  1  0
 18 21  4  0
 21 26  4  0
 22 26  4  0
M  END
$$$$

 Created by Python create_sdf_string function

 28 30  0  0  0  0  0  0  0  0999 V2000
    5.7174   -8.4529   26.7190 C   0  0  0  0  0  0  0  0  0  0  0  0
    0.3974   -7.0711   27.5149 C   0  0  0  0  0  0  0  0  0  0  0  0
    2.5338   -7.6891   16.0102 C   0  0  0  0  0  0  0  0  0  0  0  0
    4.8690   -7.4380   26.4151 C   0  0  0  0  0  0  0  0  0  0  0  0
    2.3021   -5.6726   26.0378 C   0  0  0  0  0  0  0  0  0  0  0  0
    7.0880   -4.6163   27.0010 C   0  0  0  0  0  0  0  0  0  0  0  0
    8.3117   -4.3698   27.4436 C   0  0  0  0  0  0  0  0  0  0  0  0
    1.1339   -5.0515   26.3541 C   0  0  0  0  0  0  0  0  0  0  0  0
    4.8080   -8.0362   16.7101 C   0  0  0  0  0  0  0  0  0  0  0  0
   -1.2173   -3.9294   26.9717 O   0  0  0  0  0  0  0  0  0  0  0  0
   -1.0025   -5.0942   27.4586 C   0  0  0  0  0  0  0  0  0  0  0  0
    2.2474   -8.9123   16.6273 C   0  0  0  0  0  0  0  0  0  0  0  0
    4.4957   -9.2636   17.3041 C   0  0  0  0  0  0  0  0  0  0  0  0
   -1.8070   -5.6086   28.1920 O   0  0  0  0  0  0  0  0  0  0  0  0
   10.4296   -5.1799   28.3140 C   0  0  0  0  0  0  0  0  0  0  0  0
    6.6017   -5.9004   26.9187 C   0  0  0  0  0  0  0  0  0  0  0  0
    2.4761   -6.9940   26.4111 N   0  0  0  0  0  0  0  0  0  0  0  0
    9.1353   -5.4053   27.8239 C   0  0  0  0  0  0  0  0  0  0  0  0
    0.9922   -9.3232   16.5995 O   0  0  0  0  0  0  0  0  0  0  0  0
    1.5232   -7.6869   27.1182 C   0  0  0  0  0  0  0  0  0  0  0  0
    8.6878   -6.6715   27.7262 N   0  0  0  0  0  0  0  0  0  0  0  0
    6.9911   -8.2423   27.1808 C   0  0  0  0  0  0  0  0  0  0  0  0
    3.8436   -7.2758   16.0578 C   0  0  0  0  0  0  0  0  0  0  0  0
    3.1882   -9.7190   17.2566 C   0  0  0  0  0  0  0  0  0  0  0  0
    5.3488   -6.1737   26.5092 C   0  0  0  0  0  0  0  0  0  0  0  0
    7.4567   -6.9464   27.2858 C   0  0  0  0  0  0  0  0  0  0  0  0
    0.1921   -5.7592   27.1123 C   0  0  0  0  0  0  0  0  0  0  0  0
    3.5517   -7.7407   25.9711 C   0  0  0  0  0  0  0  0  0  0  0  0
  1  4  4  0
  1 22  4  0
  2 20  4  0
  2 27  4  0
  3 12  4  0
  3 23  4  0
  4 25  4  0
  4 28  1  0
  5  8  4  0
  5 17  4  0
  6  7  4  0
  6 16  4  0
  7 18  4  0
  8 27  4  0
  9 13  4  0
  9 23  4  0
 10 11  1  0
 11 14  2  0
 11 27  1  0
 12 19  1  0
 12 24  4  0
 13 24  4  0
 15 18  1  0
 16 25  4  0
 16 26  4  0
 17 20  4  0
 17 28  1  0
 18 21  4  0
 21 26  4  0
 22 26  4  0
M  END
$$$$

 Created by Python create_sdf_string function

 28 30  0  0  0  0  0  0  0  0999 V2000
    5.7174   -8.4529   26.7190 C   0  0  0  0  0  0  0  0  0  0  0  0
    0.3974   -7.0711   27.5149 C   0  0  0  0  0  0  0  0  0  0  0  0
    2.5338   -7.6891   16.0102 C   0  0  0  0  0  0  0  0  0  0  0  0
    4.8690   -7.4380   26.4151 C   0  0  0  0  0  0  0  0  0  0  0  0
    2.3021   -5.6726   26.0378 C   0  0  0  0  0  0  0  0  0  0  0  0
    7.0880   -4.6163   27.0010 C   0  0  0  0  0  0  0  0  0  0  0  0
    8.3117   -4.3698   27.4436 C   0  0  0  0  0  0  0  0  0  0  0  0
    1.1339   -5.0515   26.3541 C   0  0  0  0  0  0  0  0  0  0  0  0
    4.8080   -8.0362   16.7101 C   0  0  0  0  0  0  0  0  0  0  0  0
   -1.2173   -3.9294   26.9717 O   0  0  0  0  0  0  0  0  0  0  0  0
   -1.0025   -5.0942   27.4586 C   0  0  0  0  0  0  0  0  0  0  0  0
    2.2474   -8.9123   16.6273 C   0  0  0  0  0  0  0  0  0  0  0  0
    4.4957   -9.2636   17.3041 C   0  0  0  0  0  0  0  0  0  0  0  0
   -1.8070   -5.6086   28.1920 O   0  0  0  0  0  0  0  0  0  0  0  0
   10.4296   -5.1799   28.3140 C   0  0  0  0  0  0  0  0  0  0  0  0
    6.6017   -5.9004   26.9187 C   0  0  0  0  0  0  0  0  0  0  0  0
    2.4761   -6.9940   26.4111 N   0  0  0  0  0  0  0  0  0  0  0  0
    9.1353   -5.4053   27.8239 C   0  0  0  0  0  0  0  0  0  0  0  0
    0.9922   -9.3232   16.5995 O   0  0  0  0  0  0  0  0  0  0  0  0
    1.5232   -7.6869   27.1182 C   0  0  0  0  0  0  0  0  0  0  0  0
    8.6878   -6.6715   27.7262 N   0  0  0  0  0  0  0  0  0  0  0  0
    6.9911   -8.2423   27.1808 C   0  0  0  0  0  0  0  0  0  0  0  0
    3.8436   -7.2758   16.0578 C   0  0  0  0  0  0  0  0  0  0  0  0
    3.1882   -9.7190   17.2566 C   0  0  0  0  0  0  0  0  0  0  0  0
    5.3488   -6.1737   26.5092 C   0  0  0  0  0  0  0  0  0  0  0  0
    7.4567   -6.9464   27.2858 C   0  0  0  0  0  0  0  0  0  0  0  0
    0.1921   -5.7592   27.1123 C   0  0  0  0  0  0  0  0  0  0  0  0
    3.5517   -7.7407   25.9711 C   0  0  0  0  0  0  0  0  0  0  0  0
  1  4  4  0
  1 22  4  0
  2 20  4  0
  2 27  4  0
  3 12  4  0
  3 23  4  0
  4 25  4  0
  4 28  1  0
  5  8  4  0
  5 17  4  0
  6  7  4  0
  6 16  4  0
  7 18  4  0
  8 27  4  0
  9 13  4  0
  9 23  4  0
 10 11  1  0
 11 14  2  0
 11 27  1  0
 12 19  1  0
 12 24  4  0
 13 24  4  0
 15 18  1  0
 16 25  4  0
 16 26  4  0
 17 20  4  0
 17 28  1  0
 18 21  4  0
 21 26  4  0
 22 26  4  0
M  END
$$$$

 Created by Python create_sdf_string function

 28 30  0  0  0  0  0  0  0  0999 V2000
    5.7174   -8.4529   26.7190 C   0  0  0  0  0  0  0  0  0  0  0  0
    0.3974   -7.0711   27.5149 C   0  0  0  0  0  0  0  0  0  0  0  0
    2.5338   -7.6891   16.0102 C   0  0  0  0  0  0  0  0  0  0  0  0
    4.8690   -7.4380   26.4151 C   0  0  0  0  0  0  0  0  0  0  0  0
    2.3021   -5.6726   26.0378 C   0  0  0  0  0  0  0  0  0  0  0  0
    7.0880   -4.6163   27.0010 C   0  0  0  0  0  0  0  0  0  0  0  0
    8.3117   -4.3698   27.4436 C   0  0  0  0  0  0  0  0  0  0  0  0
    1.1339   -5.0515   26.3541 C   0  0  0  0  0  0  0  0  0  0  0  0
    4.8080   -8.0362   16.7101 C   0  0  0  0  0  0  0  0  0  0  0  0
   -1.2173   -3.9294   26.9717 O   0  0  0  0  0  0  0  0  0  0  0  0
   -1.0025   -5.0942   27.4586 C   0  0  0  0  0  0  0  0  0  0  0  0
    2.2474   -8.9123   16.6273 C   0  0  0  0  0  0  0  0  0  0  0  0
    4.4957   -9.2636   17.3041 C   0  0  0  0  0  0  0  0  0  0  0  0
   -1.8070   -5.6086   28.1920 O   0  0  0  0  0  0  0  0  0  0  0  0
   10.4296   -5.1799   28.3140 C   0  0  0  0  0  0  0  0  0  0  0  0
    6.6017   -5.9004   26.9187 C   0  0  0  0  0  0  0  0  0  0  0  0
    2.4761   -6.9940   26.4111 N   0  0  0  0  0  0  0  0  0  0  0  0
    9.1353   -5.4053   27.8239 C   0  0  0  0  0  0  0  0  0  0  0  0
    0.9922   -9.3232   16.5995 O   0  0  0  0  0  0  0  0  0  0  0  0
    1.5232   -7.6869   27.1182 C   0  0  0  0  0  0  0  0  0  0  0  0
    8.6878   -6.6715   27.7262 N   0  0  0  0  0  0  0  0  0  0  0  0
    6.9911   -8.2423   27.1808 C   0  0  0  0  0  0  0  0  0  0  0  0
    3.8436   -7.2758   16.0578 C   0  0  0  0  0  0  0  0  0  0  0  0
    3.1882   -9.7190   17.2566 C   0  0  0  0  0  0  0  0  0  0  0  0
    5.3488   -6.1737   26.5092 C   0  0  0  0  0  0  0  0  0  0  0  0
    7.4567   -6.9464   27.2858 C   0  0  0  0  0  0  0  0  0  0  0  0
    0.1921   -5.7592   27.1123 C   0  0  0  0  0  0  0  0  0  0  0  0
    3.5517   -7.7407   25.9711 C   0  0  0  0  0  0  0  0  0  0  0  0
  1  4  4  0
  1 22  4  0
  2 20  4  0
  2 27  4  0
  3 12  4  0
  3 23  4  0
  4 25  4  0
  4 28  1  0
  5  8  4  0
  5 17  4  0
  6  7  4  0
  6 16  4  0
  7 18  4  0
  8 27  4  0
  9 13  4  0
  9 23  4  0
 10 11  1  0
 11 14  2  0
 11 27  1  0
 12 19  1  0
 12 24  4  0
 13 24  4  0
 15 18  1  0
 16 25  4  0
 16 26  4  0
 17 20  4  0
 17 28  1  0
 18 21  4  0
 21 26  4  0
 22 26  4  0
M  END
$$$$

 Created by Python create_sdf_string function

 28 30  0  0  0  0  0  0  0  0999 V2000
    5.7174   -8.4529   26.7190 C   0  0  0  0  0  0  0  0  0  0  0  0
    0.3974   -7.0711   27.5149 C   0  0  0  0  0  0  0  0  0  0  0  0
    2.5338   -7.6891   16.0102 C   0  0  0  0  0  0  0  0  0  0  0  0
    4.8690   -7.4380   26.4151 C   0  0  0  0  0  0  0  0  0  0  0  0
    2.3021   -5.6726   26.0378 C   0  0  0  0  0  0  0  0  0  0  0  0
    7.0880   -4.6163   27.0010 C   0  0  0  0  0  0  0  0  0  0  0  0
    8.3117   -4.3698   27.4436 C   0  0  0  0  0  0  0  0  0  0  0  0
    1.1339   -5.0515   26.3541 C   0  0  0  0  0  0  0  0  0  0  0  0
    4.8080   -8.0362   16.7101 C   0  0  0  0  0  0  0  0  0  0  0  0
   -1.2173   -3.9294   26.9717 O   0  0  0  0  0  0  0  0  0  0  0  0
   -1.0025   -5.0942   27.4586 C   0  0  0  0  0  0  0  0  0  0  0  0
    2.2474   -8.9123   16.6273 C   0  0  0  0  0  0  0  0  0  0  0  0
    4.4957   -9.2636   17.3041 C   0  0  0  0  0  0  0  0  0  0  0  0
   -1.8070   -5.6086   28.1920 O   0  0  0  0  0  0  0  0  0  0  0  0
   10.4296   -5.1799   28.3140 C   0  0  0  0  0  0  0  0  0  0  0  0
    6.6017   -5.9004   26.9187 C   0  0  0  0  0  0  0  0  0  0  0  0
    2.4761   -6.9940   26.4111 N   0  0  0  0  0  0  0  0  0  0  0  0
    9.1353   -5.4053   27.8239 C   0  0  0  0  0  0  0  0  0  0  0  0
    0.9922   -9.3232   16.5995 O   0  0  0  0  0  0  0  0  0  0  0  0
    1.5232   -7.6869   27.1182 C   0  0  0  0  0  0  0  0  0  0  0  0
    8.6878   -6.6715   27.7262 N   0  0  0  0  0  0  0  0  0  0  0  0
    6.9911   -8.2423   27.1808 C   0  0  0  0  0  0  0  0  0  0  0  0
    3.8436   -7.2758   16.0578 C   0  0  0  0  0  0  0  0  0  0  0  0
    3.1882   -9.7190   17.2566 C   0  0  0  0  0  0  0  0  0  0  0  0
    5.3488   -6.1737   26.5092 C   0  0  0  0  0  0  0  0  0  0  0  0
    7.4567   -6.9464   27.2858 C   0  0  0  0  0  0  0  0  0  0  0  0
    0.1921   -5.7592   27.1123 C   0  0  0  0  0  0  0  0  0  0  0  0
    3.5517   -7.7407   25.9711 C   0  0  0  0  0  0  0  0  0  0  0  0
  1  4  4  0
  1 22  4  0
  2 20  4  0
  2 27  4  0
  3 12  4  0
  3 23  4  0
  4 25  4  0
  4 28  1  0
  5  8  4  0
  5 17  4  0
  6  7  4  0
  6 16  4  0
  7 18  4  0
  8 27  4  0
  9 13  4  0
  9 23  4  0
 10 11  1  0
 11 14  2  0
 11 27  1  0
 12 19  1  0
 12 24  4  0
 13 24  4  0
 15 18  1  0
 16 25  4  0
 16 26  4  0
 17 20  4  0
 17 28  1  0
 18 21  4  0
 21 26  4  0
 22 26  4  0
M  END
$$$$

 Created by Python create_sdf_string function

 28 30  0  0  0  0  0  0  0  0999 V2000
    5.7174   -8.4529   26.7190 C   0  0  0  0  0  0  0  0  0  0  0  0
    0.3974   -7.0711   27.5149 C   0  0  0  0  0  0  0  0  0  0  0  0
    2.5338   -7.6891   16.0102 C   0  0  0  0  0  0  0  0  0  0  0  0
    4.8690   -7.4380   26.4151 C   0  0  0  0  0  0  0  0  0  0  0  0
    2.3021   -5.6726   26.0378 C   0  0  0  0  0  0  0  0  0  0  0  0
    7.0880   -4.6163   27.0010 C   0  0  0  0  0  0  0  0  0  0  0  0
    8.3117   -4.3698   27.4436 C   0  0  0  0  0  0  0  0  0  0  0  0
    1.1339   -5.0515   26.3541 C   0  0  0  0  0  0  0  0  0  0  0  0
    4.8080   -8.0362   16.7101 C   0  0  0  0  0  0  0  0  0  0  0  0
   -1.2173   -3.9294   26.9717 O   0  0  0  0  0  0  0  0  0  0  0  0
   -1.0025   -5.0942   27.4586 C   0  0  0  0  0  0  0  0  0  0  0  0
    2.2474   -8.9123   16.6273 C   0  0  0  0  0  0  0  0  0  0  0  0
    4.4957   -9.2636   17.3041 C   0  0  0  0  0  0  0  0  0  0  0  0
   -1.8070   -5.6086   28.1920 O   0  0  0  0  0  0  0  0  0  0  0  0
   10.4296   -5.1799   28.3140 C   0  0  0  0  0  0  0  0  0  0  0  0
    6.6017   -5.9004   26.9187 C   0  0  0  0  0  0  0  0  0  0  0  0
    2.4761   -6.9940   26.4111 N   0  0  0  0  0  0  0  0  0  0  0  0
    9.1353   -5.4053   27.8239 C   0  0  0  0  0  0  0  0  0  0  0  0
    0.9922   -9.3232   16.5995 O   0  0  0  0  0  0  0  0  0  0  0  0
    1.5232   -7.6869   27.1182 C   0  0  0  0  0  0  0  0  0  0  0  0
    8.6878   -6.6715   27.7262 N   0  0  0  0  0  0  0  0  0  0  0  0
    6.9911   -8.2423   27.1808 C   0  0  0  0  0  0  0  0  0  0  0  0
    3.8436   -7.2758   16.0578 C   0  0  0  0  0  0  0  0  0  0  0  0
    3.1882   -9.7190   17.2566 C   0  0  0  0  0  0  0  0  0  0  0  0
    5.3488   -6.1737   26.5092 C   0  0  0  0  0  0  0  0  0  0  0  0
    7.4567   -6.9464   27.2858 C   0  0  0  0  0  0  0  0  0  0  0  0
    0.1921   -5.7592   27.1123 C   0  0  0  0  0  0  0  0  0  0  0  0
    3.5517   -7.7407   25.9711 C   0  0  0  0  0  0  0  0  0  0  0  0
  1  4  4  0
  1 22  4  0
  2 20  4  0
  2 27  4  0
  3 12  4  0
  3 23  4  0
  4 25  4  0
  4 28  1  0
  5  8  4  0
  5 17  4  0
  6  7  4  0
  6 16  4  0
  7 18  4  0
  8 27  4  0
  9 13  4  0
  9 23  4  0
 10 11  1  0
 11 14  2  0
 11 27  1  0
 12 19  1  0
 12 24  4  0
 13 24  4  0
 15 18  1  0
 16 25  4  0
 16 26  4  0
 17 20  4  0
 17 28  1  0
 18 21  4  0
 21 26  4  0
 22 26  4  0
M  END
$$$$

 Created by Python create_sdf_string function

 28 30  0  0  0  0  0  0  0  0999 V2000
    5.7174   -8.4529   26.7190 C   0  0  0  0  0  0  0  0  0  0  0  0
    0.3974   -7.0711   27.5149 C   0  0  0  0  0  0  0  0  0  0  0  0
    2.5338   -7.6891   16.0102 C   0  0  0  0  0  0  0  0  0  0  0  0
    4.8690   -7.4380   26.4151 C   0  0  0  0  0  0  0  0  0  0  0  0
    2.3021   -5.6726   26.0378 C   0  0  0  0  0  0  0  0  0  0  0  0
    7.0880   -4.6163   27.0010 C   0  0  0  0  0  0  0  0  0  0  0  0
    8.3117   -4.3698   27.4436 C   0  0  0  0  0  0  0  0  0  0  0  0
    1.1339   -5.0515   26.3541 C   0  0  0  0  0  0  0  0  0  0  0  0
    4.8080   -8.0362   16.7101 C   0  0  0  0  0  0  0  0  0  0  0  0
   -1.2173   -3.9294   26.9717 O   0  0  0  0  0  0  0  0  0  0  0  0
   -1.0025   -5.0942   27.4586 C   0  0  0  0  0  0  0  0  0  0  0  0
    2.2474   -8.9123   16.6273 C   0  0  0  0  0  0  0  0  0  0  0  0
    4.4957   -9.2636   17.3041 C   0  0  0  0  0  0  0  0  0  0  0  0
   -1.8070   -5.6086   28.1920 O   0  0  0  0  0  0  0  0  0  0  0  0
   10.4296   -5.1799   28.3140 C   0  0  0  0  0  0  0  0  0  0  0  0
    6.6017   -5.9004   26.9187 C   0  0  0  0  0  0  0  0  0  0  0  0
    2.4761   -6.9940   26.4111 N   0  0  0  0  0  0  0  0  0  0  0  0
    9.1353   -5.4053   27.8239 C   0  0  0  0  0  0  0  0  0  0  0  0
    0.9922   -9.3232   16.5995 O   0  0  0  0  0  0  0  0  0  0  0  0
    1.5232   -7.6869   27.1182 C   0  0  0  0  0  0  0  0  0  0  0  0
    8.6878   -6.6715   27.7262 N   0  0  0  0  0  0  0  0  0  0  0  0
    6.9911   -8.2423   27.1808 C   0  0  0  0  0  0  0  0  0  0  0  0
    3.8436   -7.2758   16.0578 C   0  0  0  0  0  0  0  0  0  0  0  0
    3.1882   -9.7190   17.2566 C   0  0  0  0  0  0  0  0  0  0  0  0
    5.3488   -6.1737   26.5092 C   0  0  0  0  0  0  0  0  0  0  0  0
    7.4567   -6.9464   27.2858 C   0  0  0  0  0  0  0  0  0  0  0  0
    0.1921   -5.7592   27.1123 C   0  0  0  0  0  0  0  0  0  0  0  0
    3.5517   -7.7407   25.9711 C   0  0  0  0  0  0  0  0  0  0  0  0
  1  4  4  0
  1 22  4  0
  2 20  4  0
  2 27  4  0
  3 12  4  0
  3 23  4  0
  4 25  4  0
  4 28  1  0
  5  8  4  0
  5 17  4  0
  6  7  4  0
  6 16  4  0
  7 18  4  0
  8 27  4  0
  9 13  4  0
  9 23  4  0
 10 11  1  0
 11 14  2  0
 11 27  1  0
 12 19  1  0
 12 24  4  0
 13 24  4  0
 15 18  1  0
 16 25  4  0
 16 26  4  0
 17 20  4  0
 17 28  1  0
 18 21  4  0
 21 26  4  0
 22 26  4  0
M  END
$$$$

 Created by Python create_sdf_string function

 28 30  0  0  0  0  0  0  0  0999 V2000
    5.7174   -8.4529   26.7190 C   0  0  0  0  0  0  0  0  0  0  0  0
    0.3974   -7.0711   27.5149 C   0  0  0  0  0  0  0  0  0  0  0  0
    2.5338   -7.6891   16.0102 C   0  0  0  0  0  0  0  0  0  0  0  0
    4.8690   -7.4380   26.4151 C   0  0  0  0  0  0  0  0  0  0  0  0
    2.3021   -5.6726   26.0378 C   0  0  0  0  0  0  0  0  0  0  0  0
    7.0880   -4.6163   27.0010 C   0  0  0  0  0  0  0  0  0  0  0  0
    8.3117   -4.3698   27.4436 C   0  0  0  0  0  0  0  0  0  0  0  0
    1.1339   -5.0515   26.3541 C   0  0  0  0  0  0  0  0  0  0  0  0
    4.8080   -8.0362   16.7101 C   0  0  0  0  0  0  0  0  0  0  0  0
   -1.2173   -3.9294   26.9717 O   0  0  0  0  0  0  0  0  0  0  0  0
   -1.0025   -5.0942   27.4586 C   0  0  0  0  0  0  0  0  0  0  0  0
    2.2474   -8.9123   16.6273 C   0  0  0  0  0  0  0  0  0  0  0  0
    4.4957   -9.2636   17.3041 C   0  0  0  0  0  0  0  0  0  0  0  0
   -1.8070   -5.6086   28.1920 O   0  0  0  0  0  0  0  0  0  0  0  0
   10.4296   -5.1799   28.3140 C   0  0  0  0  0  0  0  0  0  0  0  0
    6.6017   -5.9004   26.9187 C   0  0  0  0  0  0  0  0  0  0  0  0
    2.4761   -6.9940   26.4111 N   0  0  0  0  0  0  0  0  0  0  0  0
    9.1353   -5.4053   27.8239 C   0  0  0  0  0  0  0  0  0  0  0  0
    0.9922   -9.3232   16.5995 O   0  0  0  0  0  0  0  0  0  0  0  0
    1.5232   -7.6869   27.1182 C   0  0  0  0  0  0  0  0  0  0  0  0
    8.6878   -6.6715   27.7262 N   0  0  0  0  0  0  0  0  0  0  0  0
    6.9911   -8.2423   27.1808 C   0  0  0  0  0  0  0  0  0  0  0  0
    3.8436   -7.2758   16.0578 C   0  0  0  0  0  0  0  0  0  0  0  0
    3.1882   -9.7190   17.2566 C   0  0  0  0  0  0  0  0  0  0  0  0
    5.3488   -6.1737   26.5092 C   0  0  0  0  0  0  0  0  0  0  0  0
    7.4567   -6.9464   27.2858 C   0  0  0  0  0  0  0  0  0  0  0  0
    0.1921   -5.7592   27.1123 C   0  0  0  0  0  0  0  0  0  0  0  0
    3.5517   -7.7407   25.9711 C   0  0  0  0  0  0  0  0  0  0  0  0
  1  4  4  0
  1 22  4  0
  2 20  4  0
  2 27  4  0
  3 12  4  0
  3 23  4  0
  4 25  4  0
  4 28  1  0
  5  8  4  0
  5 17  4  0
  6  7  4  0
  6 16  4  0
  7 18  4  0
  8 27  4  0
  9 13  4  0
  9 23  4  0
 10 11  1  0
 11 14  2  0
 11 27  1  0
 12 19  1  0
 12 24  4  0
 13 24  4  0
 15 18  1  0
 16 25  4  0
 16 26  4  0
 17 20  4  0
 17 28  1  0
 18 21  4  0
 21 26  4  0
 22 26  4  0
M  END
$$$$

 Created by Python create_sdf_string function

 28 30  0  0  0  0  0  0  0  0999 V2000
    5.7174   -8.4529   26.7190 C   0  0  0  0  0  0  0  0  0  0  0  0
    0.3974   -7.0711   27.5149 C   0  0  0  0  0  0  0  0  0  0  0  0
    2.5338   -7.6891   16.0102 C   0  0  0  0  0  0  0  0  0  0  0  0
    4.8690   -7.4380   26.4151 C   0  0  0  0  0  0  0  0  0  0  0  0
    2.3021   -5.6726   26.0378 C   0  0  0  0  0  0  0  0  0  0  0  0
    7.0880   -4.6163   27.0010 C   0  0  0  0  0  0  0  0  0  0  0  0
    8.3117   -4.3698   27.4436 C   0  0  0  0  0  0  0  0  0  0  0  0
    1.1339   -5.0515   26.3541 C   0  0  0  0  0  0  0  0  0  0  0  0
    4.8080   -8.0362   16.7101 C   0  0  0  0  0  0  0  0  0  0  0  0
   -1.2173   -3.9294   26.9717 O   0  0  0  0  0  0  0  0  0  0  0  0
   -1.0025   -5.0942   27.4586 C   0  0  0  0  0  0  0  0  0  0  0  0
    2.2474   -8.9123   16.6273 C   0  0  0  0  0  0  0  0  0  0  0  0
    4.4957   -9.2636   17.3041 C   0  0  0  0  0  0  0  0  0  0  0  0
   -1.8070   -5.6086   28.1920 O   0  0  0  0  0  0  0  0  0  0  0  0
   10.4296   -5.1799   28.3140 C   0  0  0  0  0  0  0  0  0  0  0  0
    6.6017   -5.9004   26.9187 C   0  0  0  0  0  0  0  0  0  0  0  0
    2.4761   -6.9940   26.4111 N   0  0  0  0  0  0  0  0  0  0  0  0
    9.1353   -5.4053   27.8239 C   0  0  0  0  0  0  0  0  0  0  0  0
    0.9922   -9.3232   16.5995 O   0  0  0  0  0  0  0  0  0  0  0  0
    1.5232   -7.6869   27.1182 C   0  0  0  0  0  0  0  0  0  0  0  0
    8.6878   -6.6715   27.7262 N   0  0  0  0  0  0  0  0  0  0  0  0
    6.9911   -8.2423   27.1808 C   0  0  0  0  0  0  0  0  0  0  0  0
    3.8436   -7.2758   16.0578 C   0  0  0  0  0  0  0  0  0  0  0  0
    3.1882   -9.7190   17.2566 C   0  0  0  0  0  0  0  0  0  0  0  0
    5.3488   -6.1737   26.5092 C   0  0  0  0  0  0  0  0  0  0  0  0
    7.4567   -6.9464   27.2858 C   0  0  0  0  0  0  0  0  0  0  0  0
    0.1921   -5.7592   27.1123 C   0  0  0  0  0  0  0  0  0  0  0  0
    3.5517   -7.7407   25.9711 C   0  0  0  0  0  0  0  0  0  0  0  0
  1  4  4  0
  1 22  4  0
  2 20  4  0
  2 27  4  0
  3 12  4  0
  3 23  4  0
  4 25  4  0
  4 28  1  0
  5  8  4  0
  5 17  4  0
  6  7  4  0
  6 16  4  0
  7 18  4  0
  8 27  4  0
  9 13  4  0
  9 23  4  0
 10 11  1  0
 11 14  2  0
 11 27  1  0
 12 19  1  0
 12 24  4  0
 13 24  4  0
 15 18  1  0
 16 25  4  0
 16 26  4  0
 17 20  4  0
 17 28  1  0
 18 21  4  0
 21 26  4  0
 22 26  4  0
M  END
$$$$

 Created by Python create_sdf_string function

 28 30  0  0  0  0  0  0  0  0999 V2000
    5.7174   -8.4529   26.7190 C   0  0  0  0  0  0  0  0  0  0  0  0
    0.3974   -7.0711   27.5149 C   0  0  0  0  0  0  0  0  0  0  0  0
    2.5338   -7.6891   16.0102 C   0  0  0  0  0  0  0  0  0  0  0  0
    4.8690   -7.4380   26.4151 C   0  0  0  0  0  0  0  0  0  0  0  0
    2.3021   -5.6726   26.0378 C   0  0  0  0  0  0  0  0  0  0  0  0
    7.0880   -4.6163   27.0010 C   0  0  0  0  0  0  0  0  0  0  0  0
    8.3117   -4.3698   27.4436 C   0  0  0  0  0  0  0  0  0  0  0  0
    1.1339   -5.0515   26.3541 C   0  0  0  0  0  0  0  0  0  0  0  0
    4.8080   -8.0362   16.7101 C   0  0  0  0  0  0  0  0  0  0  0  0
   -1.2173   -3.9294   26.9717 O   0  0  0  0  0  0  0  0  0  0  0  0
   -1.0025   -5.0942   27.4586 C   0  0  0  0  0  0  0  0  0  0  0  0
    2.2474   -8.9123   16.6273 C   0  0  0  0  0  0  0  0  0  0  0  0
    4.4957   -9.2636   17.3041 C   0  0  0  0  0  0  0  0  0  0  0  0
   -1.8070   -5.6086   28.1920 O   0  0  0  0  0  0  0  0  0  0  0  0
   10.4296   -5.1799   28.3140 C   0  0  0  0  0  0  0  0  0  0  0  0
    6.6017   -5.9004   26.9187 C   0  0  0  0  0  0  0  0  0  0  0  0
    2.4761   -6.9940   26.4111 N   0  0  0  0  0  0  0  0  0  0  0  0
    9.1353   -5.4053   27.8239 C   0  0  0  0  0  0  0  0  0  0  0  0
    0.9922   -9.3232   16.5995 O   0  0  0  0  0  0  0  0  0  0  0  0
    1.5232   -7.6869   27.1182 C   0  0  0  0  0  0  0  0  0  0  0  0
    8.6878   -6.6715   27.7262 N   0  0  0  0  0  0  0  0  0  0  0  0
    6.9911   -8.2423   27.1808 C   0  0  0  0  0  0  0  0  0  0  0  0
    3.8436   -7.2758   16.0578 C   0  0  0  0  0  0  0  0  0  0  0  0
    3.1882   -9.7190   17.2566 C   0  0  0  0  0  0  0  0  0  0  0  0
    5.3488   -6.1737   26.5092 C   0  0  0  0  0  0  0  0  0  0  0  0
    7.4567   -6.9464   27.2858 C   0  0  0  0  0  0  0  0  0  0  0  0
    0.1921   -5.7592   27.1123 C   0  0  0  0  0  0  0  0  0  0  0  0
    3.5517   -7.7407   25.9711 C   0  0  0  0  0  0  0  0  0  0  0  0
  1  4  4  0
  1 22  4  0
  2 20  4  0
  2 27  4  0
  3 12  4  0
  3 23  4  0
  4 25  4  0
  4 28  1  0
  5  8  4  0
  5 17  4  0
  6  7  4  0
  6 16  4  0
  7 18  4  0
  8 27  4  0
  9 13  4  0
  9 23  4  0
 10 11  1  0
 11 14  2  0
 11 27  1  0
 12 19  1  0
 12 24  4  0
 13 24  4  0
 15 18  1  0
 16 25  4  0
 16 26  4  0
 17 20  4  0
 17 28  1  0
 18 21  4  0
 21 26  4  0
 22 26  4  0
M  END
$$$$

 Created by Python create_sdf_string function

 28 30  0  0  0  0  0  0  0  0999 V2000
    5.7174   -8.4529   26.7190 C   0  0  0  0  0  0  0  0  0  0  0  0
    0.3974   -7.0711   27.5149 C   0  0  0  0  0  0  0  0  0  0  0  0
    2.5338   -7.6891   16.0102 C   0  0  0  0  0  0  0  0  0  0  0  0
    4.8690   -7.4380   26.4151 C   0  0  0  0  0  0  0  0  0  0  0  0
    2.3021   -5.6726   26.0378 C   0  0  0  0  0  0  0  0  0  0  0  0
    7.0880   -4.6163   27.0010 C   0  0  0  0  0  0  0  0  0  0  0  0
    8.3117   -4.3698   27.4436 C   0  0  0  0  0  0  0  0  0  0  0  0
    1.1339   -5.0515   26.3541 C   0  0  0  0  0  0  0  0  0  0  0  0
    4.8080   -8.0362   16.7101 C   0  0  0  0  0  0  0  0  0  0  0  0
   -1.2173   -3.9294   26.9717 O   0  0  0  0  0  0  0  0  0  0  0  0
   -1.0025   -5.0942   27.4586 C   0  0  0  0  0  0  0  0  0  0  0  0
    2.2474   -8.9123   16.6273 C   0  0  0  0  0  0  0  0  0  0  0  0
    4.4957   -9.2636   17.3041 C   0  0  0  0  0  0  0  0  0  0  0  0
   -1.8070   -5.6086   28.1920 O   0  0  0  0  0  0  0  0  0  0  0  0
   10.4296   -5.1799   28.3140 C   0  0  0  0  0  0  0  0  0  0  0  0
    6.6017   -5.9004   26.9187 C   0  0  0  0  0  0  0  0  0  0  0  0
    2.4761   -6.9940   26.4111 N   0  0  0  0  0  0  0  0  0  0  0  0
    9.1353   -5.4053   27.8239 C   0  0  0  0  0  0  0  0  0  0  0  0
    0.9922   -9.3232   16.5995 O   0  0  0  0  0  0  0  0  0  0  0  0
    1.5232   -7.6869   27.1182 C   0  0  0  0  0  0  0  0  0  0  0  0
    8.6878   -6.6715   27.7262 N   0  0  0  0  0  0  0  0  0  0  0  0
    6.9911   -8.2423   27.1808 C   0  0  0  0  0  0  0  0  0  0  0  0
    3.8436   -7.2758   16.0578 C   0  0  0  0  0  0  0  0  0  0  0  0
    3.1882   -9.7190   17.2566 C   0  0  0  0  0  0  0  0  0  0  0  0
    5.3488   -6.1737   26.5092 C   0  0  0  0  0  0  0  0  0  0  0  0
    7.4567   -6.9464   27.2858 C   0  0  0  0  0  0  0  0  0  0  0  0
    0.1921   -5.7592   27.1123 C   0  0  0  0  0  0  0  0  0  0  0  0
    3.5517   -7.7407   25.9711 C   0  0  0  0  0  0  0  0  0  0  0  0
  1  4  4  0
  1 22  4  0
  2 20  4  0
  2 27  4  0
  3 12  4  0
  3 23  4  0
  4 25  4  0
  4 28  1  0
  5  8  4  0
  5 17  4  0
  6  7  4  0
  6 16  4  0
  7 18  4  0
  8 27  4  0
  9 13  4  0
  9 23  4  0
 10 11  1  0
 11 14  2  0
 11 27  1  0
 12 19  1  0
 12 24  4  0
 13 24  4  0
 15 18  1  0
 16 25  4  0
 16 26  4  0
 17 20  4  0
 17 28  1  0
 18 21  4  0
 21 26  4  0
 22 26  4  0
M  END
$$$$

 Created by Python create_sdf_string function

 28 30  0  0  0  0  0  0  0  0999 V2000
    5.7174   -8.4529   26.7190 C   0  0  0  0  0  0  0  0  0  0  0  0
    0.3974   -7.0711   27.5149 C   0  0  0  0  0  0  0  0  0  0  0  0
    2.5338   -7.6891   16.0102 C   0  0  0  0  0  0  0  0  0  0  0  0
    4.8690   -7.4380   26.4151 C   0  0  0  0  0  0  0  0  0  0  0  0
    2.3021   -5.6726   26.0378 C   0  0  0  0  0  0  0  0  0  0  0  0
    7.0880   -4.6163   27.0010 C   0  0  0  0  0  0  0  0  0  0  0  0
    8.3117   -4.3698   27.4436 C   0  0  0  0  0  0  0  0  0  0  0  0
    1.1339   -5.0515   26.3541 C   0  0  0  0  0  0  0  0  0  0  0  0
    4.8080   -8.0362   16.7101 C   0  0  0  0  0  0  0  0  0  0  0  0
   -1.2173   -3.9294   26.9717 O   0  0  0  0  0  0  0  0  0  0  0  0
   -1.0025   -5.0942   27.4586 C   0  0  0  0  0  0  0  0  0  0  0  0
    2.2474   -8.9123   16.6273 C   0  0  0  0  0  0  0  0  0  0  0  0
    4.4957   -9.2636   17.3041 C   0  0  0  0  0  0  0  0  0  0  0  0
   -1.8070   -5.6086   28.1920 O   0  0  0  0  0  0  0  0  0  0  0  0
   10.4296   -5.1799   28.3140 C   0  0  0  0  0  0  0  0  0  0  0  0
    6.6017   -5.9004   26.9187 C   0  0  0  0  0  0  0  0  0  0  0  0
    2.4761   -6.9940   26.4111 N   0  0  0  0  0  0  0  0  0  0  0  0
    9.1353   -5.4053   27.8239 C   0  0  0  0  0  0  0  0  0  0  0  0
    0.9922   -9.3232   16.5995 O   0  0  0  0  0  0  0  0  0  0  0  0
    1.5232   -7.6869   27.1182 C   0  0  0  0  0  0  0  0  0  0  0  0
    8.6878   -6.6715   27.7262 N   0  0  0  0  0  0  0  0  0  0  0  0
    6.9911   -8.2423   27.1808 C   0  0  0  0  0  0  0  0  0  0  0  0
    3.8436   -7.2758   16.0578 C   0  0  0  0  0  0  0  0  0  0  0  0
    3.1882   -9.7190   17.2566 C   0  0  0  0  0  0  0  0  0  0  0  0
    5.3488   -6.1737   26.5092 C   0  0  0  0  0  0  0  0  0  0  0  0
    7.4567   -6.9464   27.2858 C   0  0  0  0  0  0  0  0  0  0  0  0
    0.1921   -5.7592   27.1123 C   0  0  0  0  0  0  0  0  0  0  0  0
    3.5517   -7.7407   25.9711 C   0  0  0  0  0  0  0  0  0  0  0  0
  1  4  4  0
  1 22  4  0
  2 20  4  0
  2 27  4  0
  3 12  4  0
  3 23  4  0
  4 25  4  0
  4 28  1  0
  5  8  4  0
  5 17  4  0
  6  7  4  0
  6 16  4  0
  7 18  4  0
  8 27  4  0
  9 13  4  0
  9 23  4  0
 10 11  1  0
 11 14  2  0
 11 27  1  0
 12 19  1  0
 12 24  4  0
 13 24  4  0
 15 18  1  0
 16 25  4  0
 16 26  4  0
 17 20  4  0
 17 28  1  0
 18 21  4  0
 21 26  4  0
 22 26  4  0
M  END
$$$$

 Created by Python create_sdf_string function

 28 30  0  0  0  0  0  0  0  0999 V2000
    5.7174   -8.4529   26.7190 C   0  0  0  0  0  0  0  0  0  0  0  0
    0.3974   -7.0711   27.5149 C   0  0  0  0  0  0  0  0  0  0  0  0
    2.5338   -7.6891   16.0102 C   0  0  0  0  0  0  0  0  0  0  0  0
    4.8690   -7.4380   26.4151 C   0  0  0  0  0  0  0  0  0  0  0  0
    2.3021   -5.6726   26.0378 C   0  0  0  0  0  0  0  0  0  0  0  0
    7.0880   -4.6163   27.0010 C   0  0  0  0  0  0  0  0  0  0  0  0
    8.3117   -4.3698   27.4436 C   0  0  0  0  0  0  0  0  0  0  0  0
    1.1339   -5.0515   26.3541 C   0  0  0  0  0  0  0  0  0  0  0  0
    4.8080   -8.0362   16.7101 C   0  0  0  0  0  0  0  0  0  0  0  0
   -1.2173   -3.9294   26.9717 O   0  0  0  0  0  0  0  0  0  0  0  0
   -1.0025   -5.0942   27.4586 C   0  0  0  0  0  0  0  0  0  0  0  0
    2.2474   -8.9123   16.6273 C   0  0  0  0  0  0  0  0  0  0  0  0
    4.4957   -9.2636   17.3041 C   0  0  0  0  0  0  0  0  0  0  0  0
   -1.8070   -5.6086   28.1920 O   0  0  0  0  0  0  0  0  0  0  0  0
   10.4296   -5.1799   28.3140 C   0  0  0  0  0  0  0  0  0  0  0  0
    6.6017   -5.9004   26.9187 C   0  0  0  0  0  0  0  0  0  0  0  0
    2.4761   -6.9940   26.4111 N   0  0  0  0  0  0  0  0  0  0  0  0
    9.1353   -5.4053   27.8239 C   0  0  0  0  0  0  0  0  0  0  0  0
    0.9922   -9.3232   16.5995 O   0  0  0  0  0  0  0  0  0  0  0  0
    1.5232   -7.6869   27.1182 C   0  0  0  0  0  0  0  0  0  0  0  0
    8.6878   -6.6715   27.7262 N   0  0  0  0  0  0  0  0  0  0  0  0
    6.9911   -8.2423   27.1808 C   0  0  0  0  0  0  0  0  0  0  0  0
    3.8436   -7.2758   16.0578 C   0  0  0  0  0  0  0  0  0  0  0  0
    3.1882   -9.7190   17.2566 C   0  0  0  0  0  0  0  0  0  0  0  0
    5.3488   -6.1737   26.5092 C   0  0  0  0  0  0  0  0  0  0  0  0
    7.4567   -6.9464   27.2858 C   0  0  0  0  0  0  0  0  0  0  0  0
    0.1921   -5.7592   27.1123 C   0  0  0  0  0  0  0  0  0  0  0  0
    3.5517   -7.7407   25.9711 C   0  0  0  0  0  0  0  0  0  0  0  0
  1  4  4  0
  1 22  4  0
  2 20  4  0
  2 27  4  0
  3 12  4  0
  3 23  4  0
  4 25  4  0
  4 28  1  0
  5  8  4  0
  5 17  4  0
  6  7  4  0
  6 16  4  0
  7 18  4  0
  8 27  4  0
  9 13  4  0
  9 23  4  0
 10 11  1  0
 11 14  2  0
 11 27  1  0
 12 19  1  0
 12 24  4  0
 13 24  4  0
 15 18  1  0
 16 25  4  0
 16 26  4  0
 17 20  4  0
 17 28  1  0
 18 21  4  0
 21 26  4  0
 22 26  4  0
M  END
$$$$

 Created by Python create_sdf_string function

 28 30  0  0  0  0  0  0  0  0999 V2000
    5.7174   -8.4529   26.7190 C   0  0  0  0  0  0  0  0  0  0  0  0
    0.3974   -7.0711   27.5149 C   0  0  0  0  0  0  0  0  0  0  0  0
    2.5338   -7.6891   16.0102 C   0  0  0  0  0  0  0  0  0  0  0  0
    4.8690   -7.4380   26.4151 C   0  0  0  0  0  0  0  0  0  0  0  0
    2.3021   -5.6726   26.0378 C   0  0  0  0  0  0  0  0  0  0  0  0
    7.0880   -4.6163   27.0010 C   0  0  0  0  0  0  0  0  0  0  0  0
    8.3117   -4.3698   27.4436 C   0  0  0  0  0  0  0  0  0  0  0  0
    1.1339   -5.0515   26.3541 C   0  0  0  0  0  0  0  0  0  0  0  0
    4.8080   -8.0362   16.7101 C   0  0  0  0  0  0  0  0  0  0  0  0
   -1.2173   -3.9294   26.9717 O   0  0  0  0  0  0  0  0  0  0  0  0
   -1.0025   -5.0942   27.4586 C   0  0  0  0  0  0  0  0  0  0  0  0
    2.2474   -8.9123   16.6273 C   0  0  0  0  0  0  0  0  0  0  0  0
    4.4957   -9.2636   17.3041 C   0  0  0  0  0  0  0  0  0  0  0  0
   -1.8070   -5.6086   28.1920 O   0  0  0  0  0  0  0  0  0  0  0  0
   10.4296   -5.1799   28.3140 C   0  0  0  0  0  0  0  0  0  0  0  0
    6.6017   -5.9004   26.9187 C   0  0  0  0  0  0  0  0  0  0  0  0
    2.4761   -6.9940   26.4111 N   0  0  0  0  0  0  0  0  0  0  0  0
    9.1353   -5.4053   27.8239 C   0  0  0  0  0  0  0  0  0  0  0  0
    0.9922   -9.3232   16.5995 O   0  0  0  0  0  0  0  0  0  0  0  0
    1.5232   -7.6869   27.1182 C   0  0  0  0  0  0  0  0  0  0  0  0
    8.6878   -6.6715   27.7262 N   0  0  0  0  0  0  0  0  0  0  0  0
    6.9911   -8.2423   27.1808 C   0  0  0  0  0  0  0  0  0  0  0  0
    3.8436   -7.2758   16.0578 C   0  0  0  0  0  0  0  0  0  0  0  0
    3.1882   -9.7190   17.2566 C   0  0  0  0  0  0  0  0  0  0  0  0
    5.3488   -6.1737   26.5092 C   0  0  0  0  0  0  0  0  0  0  0  0
    7.4567   -6.9464   27.2858 C   0  0  0  0  0  0  0  0  0  0  0  0
    0.1921   -5.7592   27.1123 C   0  0  0  0  0  0  0  0  0  0  0  0
    3.5517   -7.7407   25.9711 C   0  0  0  0  0  0  0  0  0  0  0  0
  1  4  4  0
  1 22  4  0
  2 20  4  0
  2 27  4  0
  3 12  4  0
  3 23  4  0
  4 25  4  0
  4 28  1  0
  5  8  4  0
  5 17  4  0
  6  7  4  0
  6 16  4  0
  7 18  4  0
  8 27  4  0
  9 13  4  0
  9 23  4  0
 10 11  1  0
 11 14  2  0
 11 27  1  0
 12 19  1  0
 12 24  4  0
 13 24  4  0
 15 18  1  0
 16 25  4  0
 16 26  4  0
 17 20  4  0
 17 28  1  0
 18 21  4  0
 21 26  4  0
 22 26  4  0
M  END
$$$$

 Created by Python create_sdf_string function

 28 30  0  0  0  0  0  0  0  0999 V2000
    5.7174   -8.4529   26.7190 C   0  0  0  0  0  0  0  0  0  0  0  0
    0.3974   -7.0711   27.5149 C   0  0  0  0  0  0  0  0  0  0  0  0
    2.5338   -7.6891   16.0102 C   0  0  0  0  0  0  0  0  0  0  0  0
    4.8690   -7.4380   26.4151 C   0  0  0  0  0  0  0  0  0  0  0  0
    2.3021   -5.6726   26.0378 C   0  0  0  0  0  0  0  0  0  0  0  0
    7.0880   -4.6163   27.0010 C   0  0  0  0  0  0  0  0  0  0  0  0
    8.3117   -4.3698   27.4436 C   0  0  0  0  0  0  0  0  0  0  0  0
    1.1339   -5.0515   26.3541 C   0  0  0  0  0  0  0  0  0  0  0  0
    4.8080   -8.0362   16.7101 C   0  0  0  0  0  0  0  0  0  0  0  0
   -1.2173   -3.9294   26.9717 O   0  0  0  0  0  0  0  0  0  0  0  0
   -1.0025   -5.0942   27.4586 C   0  0  0  0  0  0  0  0  0  0  0  0
    2.2474   -8.9123   16.6273 C   0  0  0  0  0  0  0  0  0  0  0  0
    4.4957   -9.2636   17.3041 C   0  0  0  0  0  0  0  0  0  0  0  0
   -1.8070   -5.6086   28.1920 O   0  0  0  0  0  0  0  0  0  0  0  0
   10.4296   -5.1799   28.3140 C   0  0  0  0  0  0  0  0  0  0  0  0
    6.6017   -5.9004   26.9187 C   0  0  0  0  0  0  0  0  0  0  0  0
    2.4761   -6.9940   26.4111 N   0  0  0  0  0  0  0  0  0  0  0  0
    9.1353   -5.4053   27.8239 C   0  0  0  0  0  0  0  0  0  0  0  0
    0.9922   -9.3232   16.5995 O   0  0  0  0  0  0  0  0  0  0  0  0
    1.5232   -7.6869   27.1182 C   0  0  0  0  0  0  0  0  0  0  0  0
    8.6878   -6.6715   27.7262 N   0  0  0  0  0  0  0  0  0  0  0  0
    6.9911   -8.2423   27.1808 C   0  0  0  0  0  0  0  0  0  0  0  0
    3.8436   -7.2758   16.0578 C   0  0  0  0  0  0  0  0  0  0  0  0
    3.1882   -9.7190   17.2566 C   0  0  0  0  0  0  0  0  0  0  0  0
    5.3488   -6.1737   26.5092 C   0  0  0  0  0  0  0  0  0  0  0  0
    7.4567   -6.9464   27.2858 C   0  0  0  0  0  0  0  0  0  0  0  0
    0.1921   -5.7592   27.1123 C   0  0  0  0  0  0  0  0  0  0  0  0
    3.5517   -7.7407   25.9711 C   0  0  0  0  0  0  0  0  0  0  0  0
  1  4  4  0
  1 22  4  0
  2 20  4  0
  2 27  4  0
  3 12  4  0
  3 23  4  0
  4 25  4  0
  4 28  1  0
  5  8  4  0
  5 17  4  0
  6  7  4  0
  6 16  4  0
  7 18  4  0
  8 27  4  0
  9 13  4  0
  9 23  4  0
 10 11  1  0
 11 14  2  0
 11 27  1  0
 12 19  1  0
 12 24  4  0
 13 24  4  0
 15 18  1  0
 16 25  4  0
 16 26  4  0
 17 20  4  0
 17 28  1  0
 18 21  4  0
 21 26  4  0
 22 26  4  0
M  END
$$$$

 Created by Python create_sdf_string function

 28 30  0  0  0  0  0  0  0  0999 V2000
    5.7174   -8.4529   26.7190 C   0  0  0  0  0  0  0  0  0  0  0  0
    0.3974   -7.0711   27.5149 C   0  0  0  0  0  0  0  0  0  0  0  0
    2.5338   -7.6891   16.0102 C   0  0  0  0  0  0  0  0  0  0  0  0
    4.8690   -7.4380   26.4151 C   0  0  0  0  0  0  0  0  0  0  0  0
    2.3021   -5.6726   26.0378 C   0  0  0  0  0  0  0  0  0  0  0  0
    7.0880   -4.6163   27.0010 C   0  0  0  0  0  0  0  0  0  0  0  0
    8.3117   -4.3698   27.4436 C   0  0  0  0  0  0  0  0  0  0  0  0
    1.1339   -5.0515   26.3541 C   0  0  0  0  0  0  0  0  0  0  0  0
    4.8080   -8.0362   16.7101 C   0  0  0  0  0  0  0  0  0  0  0  0
   -1.2173   -3.9294   26.9717 O   0  0  0  0  0  0  0  0  0  0  0  0
   -1.0025   -5.0942   27.4586 C   0  0  0  0  0  0  0  0  0  0  0  0
    2.2474   -8.9123   16.6273 C   0  0  0  0  0  0  0  0  0  0  0  0
    4.4957   -9.2636   17.3041 C   0  0  0  0  0  0  0  0  0  0  0  0
   -1.8070   -5.6086   28.1920 O   0  0  0  0  0  0  0  0  0  0  0  0
   10.4296   -5.1799   28.3140 C   0  0  0  0  0  0  0  0  0  0  0  0
    6.6017   -5.9004   26.9187 C   0  0  0  0  0  0  0  0  0  0  0  0
    2.4761   -6.9940   26.4111 N   0  0  0  0  0  0  0  0  0  0  0  0
    9.1353   -5.4053   27.8239 C   0  0  0  0  0  0  0  0  0  0  0  0
    0.9922   -9.3232   16.5995 O   0  0  0  0  0  0  0  0  0  0  0  0
    1.5232   -7.6869   27.1182 C   0  0  0  0  0  0  0  0  0  0  0  0
    8.6878   -6.6715   27.7262 N   0  0  0  0  0  0  0  0  0  0  0  0
    6.9911   -8.2423   27.1808 C   0  0  0  0  0  0  0  0  0  0  0  0
    3.8436   -7.2758   16.0578 C   0  0  0  0  0  0  0  0  0  0  0  0
    3.1882   -9.7190   17.2566 C   0  0  0  0  0  0  0  0  0  0  0  0
    5.3488   -6.1737   26.5092 C   0  0  0  0  0  0  0  0  0  0  0  0
    7.4567   -6.9464   27.2858 C   0  0  0  0  0  0  0  0  0  0  0  0
    0.1921   -5.7592   27.1123 C   0  0  0  0  0  0  0  0  0  0  0  0
    3.5517   -7.7407   25.9711 C   0  0  0  0  0  0  0  0  0  0  0  0
  1  4  4  0
  1 22  4  0
  2 20  4  0
  2 27  4  0
  3 12  4  0
  3 23  4  0
  4 25  4  0
  4 28  1  0
  5  8  4  0
  5 17  4  0
  6  7  4  0
  6 16  4  0
  7 18  4  0
  8 27  4  0
  9 13  4  0
  9 23  4  0
 10 11  1  0
 11 14  2  0
 11 27  1  0
 12 19  1  0
 12 24  4  0
 13 24  4  0
 15 18  1  0
 16 25  4  0
 16 26  4  0
 17 20  4  0
 17 28  1  0
 18 21  4  0
 21 26  4  0
 22 26  4  0
M  END
$$$$

 Created by Python create_sdf_string function

 28 30  0  0  0  0  0  0  0  0999 V2000
    5.7174   -8.4529   26.7190 C   0  0  0  0  0  0  0  0  0  0  0  0
    0.3974   -7.0711   27.5149 C   0  0  0  0  0  0  0  0  0  0  0  0
    2.5338   -7.6891   16.0102 C   0  0  0  0  0  0  0  0  0  0  0  0
    4.8690   -7.4380   26.4151 C   0  0  0  0  0  0  0  0  0  0  0  0
    2.3021   -5.6726   26.0378 C   0  0  0  0  0  0  0  0  0  0  0  0
    7.0880   -4.6163   27.0010 C   0  0  0  0  0  0  0  0  0  0  0  0
    8.3117   -4.3698   27.4436 C   0  0  0  0  0  0  0  0  0  0  0  0
    1.1339   -5.0515   26.3541 C   0  0  0  0  0  0  0  0  0  0  0  0
    4.8080   -8.0362   16.7101 C   0  0  0  0  0  0  0  0  0  0  0  0
   -1.2173   -3.9294   26.9717 O   0  0  0  0  0  0  0  0  0  0  0  0
   -1.0025   -5.0942   27.4586 C   0  0  0  0  0  0  0  0  0  0  0  0
    2.2474   -8.9123   16.6273 C   0  0  0  0  0  0  0  0  0  0  0  0
    4.4957   -9.2636   17.3041 C   0  0  0  0  0  0  0  0  0  0  0  0
   -1.8070   -5.6086   28.1920 O   0  0  0  0  0  0  0  0  0  0  0  0
   10.4296   -5.1799   28.3140 C   0  0  0  0  0  0  0  0  0  0  0  0
    6.6017   -5.9004   26.9187 C   0  0  0  0  0  0  0  0  0  0  0  0
    2.4761   -6.9940   26.4111 N   0  0  0  0  0  0  0  0  0  0  0  0
    9.1353   -5.4053   27.8239 C   0  0  0  0  0  0  0  0  0  0  0  0
    0.9922   -9.3232   16.5995 O   0  0  0  0  0  0  0  0  0  0  0  0
    1.5232   -7.6869   27.1182 C   0  0  0  0  0  0  0  0  0  0  0  0
    8.6878   -6.6715   27.7262 N   0  0  0  0  0  0  0  0  0  0  0  0
    6.9911   -8.2423   27.1808 C   0  0  0  0  0  0  0  0  0  0  0  0
    3.8436   -7.2758   16.0578 C   0  0  0  0  0  0  0  0  0  0  0  0
    3.1882   -9.7190   17.2566 C   0  0  0  0  0  0  0  0  0  0  0  0
    5.3488   -6.1737   26.5092 C   0  0  0  0  0  0  0  0  0  0  0  0
    7.4567   -6.9464   27.2858 C   0  0  0  0  0  0  0  0  0  0  0  0
    0.1921   -5.7592   27.1123 C   0  0  0  0  0  0  0  0  0  0  0  0
    3.5517   -7.7407   25.9711 C   0  0  0  0  0  0  0  0  0  0  0  0
  1  4  4  0
  1 22  4  0
  2 20  4  0
  2 27  4  0
  3 12  4  0
  3 23  4  0
  4 25  4  0
  4 28  1  0
  5  8  4  0
  5 17  4  0
  6  7  4  0
  6 16  4  0
  7 18  4  0
  8 27  4  0
  9 13  4  0
  9 23  4  0
 10 11  1  0
 11 14  2  0
 11 27  1  0
 12 19  1  0
 12 24  4  0
 13 24  4  0
 15 18  1  0
 16 25  4  0
 16 26  4  0
 17 20  4  0
 17 28  1  0
 18 21  4  0
 21 26  4  0
 22 26  4  0
M  END
$$$$

 Created by Python create_sdf_string function

 28 30  0  0  0  0  0  0  0  0999 V2000
    5.7174   -8.4529   26.7190 C   0  0  0  0  0  0  0  0  0  0  0  0
    0.3974   -7.0711   27.5149 C   0  0  0  0  0  0  0  0  0  0  0  0
    2.5338   -7.6891   16.0102 C   0  0  0  0  0  0  0  0  0  0  0  0
    4.8690   -7.4380   26.4151 C   0  0  0  0  0  0  0  0  0  0  0  0
    2.3021   -5.6726   26.0378 C   0  0  0  0  0  0  0  0  0  0  0  0
    7.0880   -4.6163   27.0010 C   0  0  0  0  0  0  0  0  0  0  0  0
    8.3117   -4.3698   27.4436 C   0  0  0  0  0  0  0  0  0  0  0  0
    1.1339   -5.0515   26.3541 C   0  0  0  0  0  0  0  0  0  0  0  0
    4.8080   -8.0362   16.7101 C   0  0  0  0  0  0  0  0  0  0  0  0
   -1.2173   -3.9294   26.9717 O   0  0  0  0  0  0  0  0  0  0  0  0
   -1.0025   -5.0942   27.4586 C   0  0  0  0  0  0  0  0  0  0  0  0
    2.2474   -8.9123   16.6273 C   0  0  0  0  0  0  0  0  0  0  0  0
    4.4957   -9.2636   17.3041 C   0  0  0  0  0  0  0  0  0  0  0  0
   -1.8070   -5.6086   28.1920 O   0  0  0  0  0  0  0  0  0  0  0  0
   10.4296   -5.1799   28.3140 C   0  0  0  0  0  0  0  0  0  0  0  0
    6.6017   -5.9004   26.9187 C   0  0  0  0  0  0  0  0  0  0  0  0
    2.4761   -6.9940   26.4111 N   0  0  0  0  0  0  0  0  0  0  0  0
    9.1353   -5.4053   27.8239 C   0  0  0  0  0  0  0  0  0  0  0  0
    0.9922   -9.3232   16.5995 O   0  0  0  0  0  0  0  0  0  0  0  0
    1.5232   -7.6869   27.1182 C   0  0  0  0  0  0  0  0  0  0  0  0
    8.6878   -6.6715   27.7262 N   0  0  0  0  0  0  0  0  0  0  0  0
    6.9911   -8.2423   27.1808 C   0  0  0  0  0  0  0  0  0  0  0  0
    3.8436   -7.2758   16.0578 C   0  0  0  0  0  0  0  0  0  0  0  0
    3.1882   -9.7190   17.2566 C   0  0  0  0  0  0  0  0  0  0  0  0
    5.3488   -6.1737   26.5092 C   0  0  0  0  0  0  0  0  0  0  0  0
    7.4567   -6.9464   27.2858 C   0  0  0  0  0  0  0  0  0  0  0  0
    0.1921   -5.7592   27.1123 C   0  0  0  0  0  0  0  0  0  0  0  0
    3.5517   -7.7407   25.9711 C   0  0  0  0  0  0  0  0  0  0  0  0
  1  4  4  0
  1 22  4  0
  2 20  4  0
  2 27  4  0
  3 12  4  0
  3 23  4  0
  4 25  4  0
  4 28  1  0
  5  8  4  0
  5 17  4  0
  6  7  4  0
  6 16  4  0
  7 18  4  0
  8 27  4  0
  9 13  4  0
  9 23  4  0
 10 11  1  0
 11 14  2  0
 11 27  1  0
 12 19  1  0
 12 24  4  0
 13 24  4  0
 15 18  1  0
 16 25  4  0
 16 26  4  0
 17 20  4  0
 17 28  1  0
 18 21  4  0
 21 26  4  0
 22 26  4  0
M  END
$$$$

 Created by Python create_sdf_string function

 28 30  0  0  0  0  0  0  0  0999 V2000
    5.7174   -8.4529   26.7190 C   0  0  0  0  0  0  0  0  0  0  0  0
    0.3974   -7.0711   27.5149 C   0  0  0  0  0  0  0  0  0  0  0  0
    2.5338   -7.6891   16.0102 C   0  0  0  0  0  0  0  0  0  0  0  0
    4.8690   -7.4380   26.4151 C   0  0  0  0  0  0  0  0  0  0  0  0
    2.3021   -5.6726   26.0378 C   0  0  0  0  0  0  0  0  0  0  0  0
    7.0880   -4.6163   27.0010 C   0  0  0  0  0  0  0  0  0  0  0  0
    8.3117   -4.3698   27.4436 C   0  0  0  0  0  0  0  0  0  0  0  0
    1.1339   -5.0515   26.3541 C   0  0  0  0  0  0  0  0  0  0  0  0
    4.8080   -8.0362   16.7101 C   0  0  0  0  0  0  0  0  0  0  0  0
   -1.2173   -3.9294   26.9717 O   0  0  0  0  0  0  0  0  0  0  0  0
   -1.0025   -5.0942   27.4586 C   0  0  0  0  0  0  0  0  0  0  0  0
    2.2474   -8.9123   16.6273 C   0  0  0  0  0  0  0  0  0  0  0  0
    4.4957   -9.2636   17.3041 C   0  0  0  0  0  0  0  0  0  0  0  0
   -1.8070   -5.6086   28.1920 O   0  0  0  0  0  0  0  0  0  0  0  0
   10.4296   -5.1799   28.3140 C   0  0  0  0  0  0  0  0  0  0  0  0
    6.6017   -5.9004   26.9187 C   0  0  0  0  0  0  0  0  0  0  0  0
    2.4761   -6.9940   26.4111 N   0  0  0  0  0  0  0  0  0  0  0  0
    9.1353   -5.4053   27.8239 C   0  0  0  0  0  0  0  0  0  0  0  0
    0.9922   -9.3232   16.5995 O   0  0  0  0  0  0  0  0  0  0  0  0
    1.5232   -7.6869   27.1182 C   0  0  0  0  0  0  0  0  0  0  0  0
    8.6878   -6.6715   27.7262 N   0  0  0  0  0  0  0  0  0  0  0  0
    6.9911   -8.2423   27.1808 C   0  0  0  0  0  0  0  0  0  0  0  0
    3.8436   -7.2758   16.0578 C   0  0  0  0  0  0  0  0  0  0  0  0
    3.1882   -9.7190   17.2566 C   0  0  0  0  0  0  0  0  0  0  0  0
    5.3488   -6.1737   26.5092 C   0  0  0  0  0  0  0  0  0  0  0  0
    7.4567   -6.9464   27.2858 C   0  0  0  0  0  0  0  0  0  0  0  0
    0.1921   -5.7592   27.1123 C   0  0  0  0  0  0  0  0  0  0  0  0
    3.5517   -7.7407   25.9711 C   0  0  0  0  0  0  0  0  0  0  0  0
  1  4  4  0
  1 22  4  0
  2 20  4  0
  2 27  4  0
  3 12  4  0
  3 23  4  0
  4 25  4  0
  4 28  1  0
  5  8  4  0
  5 17  4  0
  6  7  4  0
  6 16  4  0
  7 18  4  0
  8 27  4  0
  9 13  4  0
  9 23  4  0
 10 11  1  0
 11 14  2  0
 11 27  1  0
 12 19  1  0
 12 24  4  0
 13 24  4  0
 15 18  1  0
 16 25  4  0
 16 26  4  0
 17 20  4  0
 17 28  1  0
 18 21  4  0
 21 26  4  0
 22 26  4  0
M  END
$$$$

 Created by Python create_sdf_string function

 28 30  0  0  0  0  0  0  0  0999 V2000
    5.7174   -8.4529   26.7190 C   0  0  0  0  0  0  0  0  0  0  0  0
    0.3974   -7.0711   27.5149 C   0  0  0  0  0  0  0  0  0  0  0  0
    2.5338   -7.6891   16.0102 C   0  0  0  0  0  0  0  0  0  0  0  0
    4.8690   -7.4380   26.4151 C   0  0  0  0  0  0  0  0  0  0  0  0
    2.3021   -5.6726   26.0378 C   0  0  0  0  0  0  0  0  0  0  0  0
    7.0880   -4.6163   27.0010 C   0  0  0  0  0  0  0  0  0  0  0  0
    8.3117   -4.3698   27.4436 C   0  0  0  0  0  0  0  0  0  0  0  0
    1.1339   -5.0515   26.3541 C   0  0  0  0  0  0  0  0  0  0  0  0
    4.8080   -8.0362   16.7101 C   0  0  0  0  0  0  0  0  0  0  0  0
   -1.2173   -3.9294   26.9717 O   0  0  0  0  0  0  0  0  0  0  0  0
   -1.0025   -5.0942   27.4586 C   0  0  0  0  0  0  0  0  0  0  0  0
    2.2474   -8.9123   16.6273 C   0  0  0  0  0  0  0  0  0  0  0  0
    4.4957   -9.2636   17.3041 C   0  0  0  0  0  0  0  0  0  0  0  0
   -1.8070   -5.6086   28.1920 O   0  0  0  0  0  0  0  0  0  0  0  0
   10.4296   -5.1799   28.3140 C   0  0  0  0  0  0  0  0  0  0  0  0
    6.6017   -5.9004   26.9187 C   0  0  0  0  0  0  0  0  0  0  0  0
    2.4761   -6.9940   26.4111 N   0  0  0  0  0  0  0  0  0  0  0  0
    9.1353   -5.4053   27.8239 C   0  0  0  0  0  0  0  0  0  0  0  0
    0.9922   -9.3232   16.5995 O   0  0  0  0  0  0  0  0  0  0  0  0
    1.5232   -7.6869   27.1182 C   0  0  0  0  0  0  0  0  0  0  0  0
    8.6878   -6.6715   27.7262 N   0  0  0  0  0  0  0  0  0  0  0  0
    6.9911   -8.2423   27.1808 C   0  0  0  0  0  0  0  0  0  0  0  0
    3.8436   -7.2758   16.0578 C   0  0  0  0  0  0  0  0  0  0  0  0
    3.1882   -9.7190   17.2566 C   0  0  0  0  0  0  0  0  0  0  0  0
    5.3488   -6.1737   26.5092 C   0  0  0  0  0  0  0  0  0  0  0  0
    7.4567   -6.9464   27.2858 C   0  0  0  0  0  0  0  0  0  0  0  0
    0.1921   -5.7592   27.1123 C   0  0  0  0  0  0  0  0  0  0  0  0
    3.5517   -7.7407   25.9711 C   0  0  0  0  0  0  0  0  0  0  0  0
  1  4  4  0
  1 22  4  0
  2 20  4  0
  2 27  4  0
  3 12  4  0
  3 23  4  0
  4 25  4  0
  4 28  1  0
  5  8  4  0
  5 17  4  0
  6  7  4  0
  6 16  4  0
  7 18  4  0
  8 27  4  0
  9 13  4  0
  9 23  4  0
 10 11  1  0
 11 14  2  0
 11 27  1  0
 12 19  1  0
 12 24  4  0
 13 24  4  0
 15 18  1  0
 16 25  4  0
 16 26  4  0
 17 20  4  0
 17 28  1  0
 18 21  4  0
 21 26  4  0
 22 26  4  0
M  END
$$$$

 Created by Python create_sdf_string function

 28 30  0  0  0  0  0  0  0  0999 V2000
    5.7174   -8.4529   26.7190 C   0  0  0  0  0  0  0  0  0  0  0  0
    0.3974   -7.0711   27.5149 C   0  0  0  0  0  0  0  0  0  0  0  0
    2.5338   -7.6891   16.0102 C   0  0  0  0  0  0  0  0  0  0  0  0
    4.8690   -7.4380   26.4151 C   0  0  0  0  0  0  0  0  0  0  0  0
    2.3021   -5.6726   26.0378 C   0  0  0  0  0  0  0  0  0  0  0  0
    7.0880   -4.6163   27.0010 C   0  0  0  0  0  0  0  0  0  0  0  0
    8.3117   -4.3698   27.4436 C   0  0  0  0  0  0  0  0  0  0  0  0
    1.1339   -5.0515   26.3541 C   0  0  0  0  0  0  0  0  0  0  0  0
    4.8080   -8.0362   16.7101 C   0  0  0  0  0  0  0  0  0  0  0  0
   -1.2173   -3.9294   26.9717 O   0  0  0  0  0  0  0  0  0  0  0  0
   -1.0025   -5.0942   27.4586 C   0  0  0  0  0  0  0  0  0  0  0  0
    2.2474   -8.9123   16.6273 C   0  0  0  0  0  0  0  0  0  0  0  0
    4.4957   -9.2636   17.3041 C   0  0  0  0  0  0  0  0  0  0  0  0
   -1.8070   -5.6086   28.1920 O   0  0  0  0  0  0  0  0  0  0  0  0
   10.4296   -5.1799   28.3140 C   0  0  0  0  0  0  0  0  0  0  0  0
    6.6017   -5.9004   26.9187 C   0  0  0  0  0  0  0  0  0  0  0  0
    2.4761   -6.9940   26.4111 N   0  0  0  0  0  0  0  0  0  0  0  0
    9.1353   -5.4053   27.8239 C   0  0  0  0  0  0  0  0  0  0  0  0
    0.9922   -9.3232   16.5995 O   0  0  0  0  0  0  0  0  0  0  0  0
    1.5232   -7.6869   27.1182 C   0  0  0  0  0  0  0  0  0  0  0  0
    8.6878   -6.6715   27.7262 N   0  0  0  0  0  0  0  0  0  0  0  0
    6.9911   -8.2423   27.1808 C   0  0  0  0  0  0  0  0  0  0  0  0
    3.8436   -7.2758   16.0578 C   0  0  0  0  0  0  0  0  0  0  0  0
    3.1882   -9.7190   17.2566 C   0  0  0  0  0  0  0  0  0  0  0  0
    5.3488   -6.1737   26.5092 C   0  0  0  0  0  0  0  0  0  0  0  0
    7.4567   -6.9464   27.2858 C   0  0  0  0  0  0  0  0  0  0  0  0
    0.1921   -5.7592   27.1123 C   0  0  0  0  0  0  0  0  0  0  0  0
    3.5517   -7.7407   25.9711 C   0  0  0  0  0  0  0  0  0  0  0  0
  1  4  4  0
  1 22  4  0
  2 20  4  0
  2 27  4  0
  3 12  4  0
  3 23  4  0
  4 25  4  0
  4 28  1  0
  5  8  4  0
  5 17  4  0
  6  7  4  0
  6 16  4  0
  7 18  4  0
  8 27  4  0
  9 13  4  0
  9 23  4  0
 10 11  1  0
 11 14  2  0
 11 27  1  0
 12 19  1  0
 12 24  4  0
 13 24  4  0
 15 18  1  0
 16 25  4  0
 16 26  4  0
 17 20  4  0
 17 28  1  0
 18 21  4  0
 21 26  4  0
 22 26  4  0
M  END
$$$$

 Created by Python create_sdf_string function

 28 30  0  0  0  0  0  0  0  0999 V2000
    5.7174   -8.4529   26.7190 C   0  0  0  0  0  0  0  0  0  0  0  0
    0.3974   -7.0711   27.5149 C   0  0  0  0  0  0  0  0  0  0  0  0
    2.5338   -7.6891   16.0102 C   0  0  0  0  0  0  0  0  0  0  0  0
    4.8690   -7.4380   26.4151 C   0  0  0  0  0  0  0  0  0  0  0  0
    2.3021   -5.6726   26.0378 C   0  0  0  0  0  0  0  0  0  0  0  0
    7.0880   -4.6163   27.0010 C   0  0  0  0  0  0  0  0  0  0  0  0
    8.3117   -4.3698   27.4436 C   0  0  0  0  0  0  0  0  0  0  0  0
    1.1339   -5.0515   26.3541 C   0  0  0  0  0  0  0  0  0  0  0  0
    4.8080   -8.0362   16.7101 C   0  0  0  0  0  0  0  0  0  0  0  0
   -1.2173   -3.9294   26.9717 O   0  0  0  0  0  0  0  0  0  0  0  0
   -1.0025   -5.0942   27.4586 C   0  0  0  0  0  0  0  0  0  0  0  0
    2.2474   -8.9123   16.6273 C   0  0  0  0  0  0  0  0  0  0  0  0
    4.4957   -9.2636   17.3041 C   0  0  0  0  0  0  0  0  0  0  0  0
   -1.8070   -5.6086   28.1920 O   0  0  0  0  0  0  0  0  0  0  0  0
   10.4296   -5.1799   28.3140 C   0  0  0  0  0  0  0  0  0  0  0  0
    6.6017   -5.9004   26.9187 C   0  0  0  0  0  0  0  0  0  0  0  0
    2.4761   -6.9940   26.4111 N   0  0  0  0  0  0  0  0  0  0  0  0
    9.1353   -5.4053   27.8239 C   0  0  0  0  0  0  0  0  0  0  0  0
    0.9922   -9.3232   16.5995 O   0  0  0  0  0  0  0  0  0  0  0  0
    1.5232   -7.6869   27.1182 C   0  0  0  0  0  0  0  0  0  0  0  0
    8.6878   -6.6715   27.7262 N   0  0  0  0  0  0  0  0  0  0  0  0
    6.9911   -8.2423   27.1808 C   0  0  0  0  0  0  0  0  0  0  0  0
    3.8436   -7.2758   16.0578 C   0  0  0  0  0  0  0  0  0  0  0  0
    3.1882   -9.7190   17.2566 C   0  0  0  0  0  0  0  0  0  0  0  0
    5.3488   -6.1737   26.5092 C   0  0  0  0  0  0  0  0  0  0  0  0
    7.4567   -6.9464   27.2858 C   0  0  0  0  0  0  0  0  0  0  0  0
    0.1921   -5.7592   27.1123 C   0  0  0  0  0  0  0  0  0  0  0  0
    3.5517   -7.7407   25.9711 C   0  0  0  0  0  0  0  0  0  0  0  0
  1  4  4  0
  1 22  4  0
  2 20  4  0
  2 27  4  0
  3 12  4  0
  3 23  4  0
  4 25  4  0
  4 28  1  0
  5  8  4  0
  5 17  4  0
  6  7  4  0
  6 16  4  0
  7 18  4  0
  8 27  4  0
  9 13  4  0
  9 23  4  0
 10 11  1  0
 11 14  2  0
 11 27  1  0
 12 19  1  0
 12 24  4  0
 13 24  4  0
 15 18  1  0
 16 25  4  0
 16 26  4  0
 17 20  4  0
 17 28  1  0
 18 21  4  0
 21 26  4  0
 22 26  4  0
M  END
$$$$

 Created by Python create_sdf_string function

 28 30  0  0  0  0  0  0  0  0999 V2000
    5.7174   -8.4529   26.7190 C   0  0  0  0  0  0  0  0  0  0  0  0
    0.3974   -7.0711   27.5149 C   0  0  0  0  0  0  0  0  0  0  0  0
    2.5338   -7.6891   16.0102 C   0  0  0  0  0  0  0  0  0  0  0  0
    4.8690   -7.4380   26.4151 C   0  0  0  0  0  0  0  0  0  0  0  0
    2.3021   -5.6726   26.0378 C   0  0  0  0  0  0  0  0  0  0  0  0
    7.0880   -4.6163   27.0010 C   0  0  0  0  0  0  0  0  0  0  0  0
    8.3117   -4.3698   27.4436 C   0  0  0  0  0  0  0  0  0  0  0  0
    1.1339   -5.0515   26.3541 C   0  0  0  0  0  0  0  0  0  0  0  0
    4.8080   -8.0362   16.7101 C   0  0  0  0  0  0  0  0  0  0  0  0
   -1.2173   -3.9294   26.9717 O   0  0  0  0  0  0  0  0  0  0  0  0
   -1.0025   -5.0942   27.4586 C   0  0  0  0  0  0  0  0  0  0  0  0
    2.2474   -8.9123   16.6273 C   0  0  0  0  0  0  0  0  0  0  0  0
    4.4957   -9.2636   17.3041 C   0  0  0  0  0  0  0  0  0  0  0  0
   -1.8070   -5.6086   28.1920 O   0  0  0  0  0  0  0  0  0  0  0  0
   10.4296   -5.1799   28.3140 C   0  0  0  0  0  0  0  0  0  0  0  0
    6.6017   -5.9004   26.9187 C   0  0  0  0  0  0  0  0  0  0  0  0
    2.4761   -6.9940   26.4111 N   0  0  0  0  0  0  0  0  0  0  0  0
    9.1353   -5.4053   27.8239 C   0  0  0  0  0  0  0  0  0  0  0  0
    0.9922   -9.3232   16.5995 O   0  0  0  0  0  0  0  0  0  0  0  0
    1.5232   -7.6869   27.1182 C   0  0  0  0  0  0  0  0  0  0  0  0
    8.6878   -6.6715   27.7262 N   0  0  0  0  0  0  0  0  0  0  0  0
    6.9911   -8.2423   27.1808 C   0  0  0  0  0  0  0  0  0  0  0  0
    3.8436   -7.2758   16.0578 C   0  0  0  0  0  0  0  0  0  0  0  0
    3.1882   -9.7190   17.2566 C   0  0  0  0  0  0  0  0  0  0  0  0
    5.3488   -6.1737   26.5092 C   0  0  0  0  0  0  0  0  0  0  0  0
    7.4567   -6.9464   27.2858 C   0  0  0  0  0  0  0  0  0  0  0  0
    0.1921   -5.7592   27.1123 C   0  0  0  0  0  0  0  0  0  0  0  0
    3.5517   -7.7407   25.9711 C   0  0  0  0  0  0  0  0  0  0  0  0
  1  4  4  0
  1 22  4  0
  2 20  4  0
  2 27  4  0
  3 12  4  0
  3 23  4  0
  4 25  4  0
  4 28  1  0
  5  8  4  0
  5 17  4  0
  6  7  4  0
  6 16  4  0
  7 18  4  0
  8 27  4  0
  9 13  4  0
  9 23  4  0
 10 11  1  0
 11 14  2  0
 11 27  1  0
 12 19  1  0
 12 24  4  0
 13 24  4  0
 15 18  1  0
 16 25  4  0
 16 26  4  0
 17 20  4  0
 17 28  1  0
 18 21  4  0
 21 26  4  0
 22 26  4  0
M  END
$$$$

 Created by Python create_sdf_string function

 28 30  0  0  0  0  0  0  0  0999 V2000
    5.7174   -8.4529   26.7190 C   0  0  0  0  0  0  0  0  0  0  0  0
    0.3974   -7.0711   27.5149 C   0  0  0  0  0  0  0  0  0  0  0  0
    2.5338   -7.6891   16.0102 C   0  0  0  0  0  0  0  0  0  0  0  0
    4.8690   -7.4380   26.4151 C   0  0  0  0  0  0  0  0  0  0  0  0
    2.3021   -5.6726   26.0378 C   0  0  0  0  0  0  0  0  0  0  0  0
    7.0880   -4.6163   27.0010 C   0  0  0  0  0  0  0  0  0  0  0  0
    8.3117   -4.3698   27.4436 C   0  0  0  0  0  0  0  0  0  0  0  0
    1.1339   -5.0515   26.3541 C   0  0  0  0  0  0  0  0  0  0  0  0
    4.8080   -8.0362   16.7101 C   0  0  0  0  0  0  0  0  0  0  0  0
   -1.2173   -3.9294   26.9717 O   0  0  0  0  0  0  0  0  0  0  0  0
   -1.0025   -5.0942   27.4586 C   0  0  0  0  0  0  0  0  0  0  0  0
    2.2474   -8.9123   16.6273 C   0  0  0  0  0  0  0  0  0  0  0  0
    4.4957   -9.2636   17.3041 C   0  0  0  0  0  0  0  0  0  0  0  0
   -1.8070   -5.6086   28.1920 O   0  0  0  0  0  0  0  0  0  0  0  0
   10.4296   -5.1799   28.3140 C   0  0  0  0  0  0  0  0  0  0  0  0
    6.6017   -5.9004   26.9187 C   0  0  0  0  0  0  0  0  0  0  0  0
    2.4761   -6.9940   26.4111 N   0  0  0  0  0  0  0  0  0  0  0  0
    9.1353   -5.4053   27.8239 C   0  0  0  0  0  0  0  0  0  0  0  0
    0.9922   -9.3232   16.5995 O   0  0  0  0  0  0  0  0  0  0  0  0
    1.5232   -7.6869   27.1182 C   0  0  0  0  0  0  0  0  0  0  0  0
    8.6878   -6.6715   27.7262 N   0  0  0  0  0  0  0  0  0  0  0  0
    6.9911   -8.2423   27.1808 C   0  0  0  0  0  0  0  0  0  0  0  0
    3.8436   -7.2758   16.0578 C   0  0  0  0  0  0  0  0  0  0  0  0
    3.1882   -9.7190   17.2566 C   0  0  0  0  0  0  0  0  0  0  0  0
    5.3488   -6.1737   26.5092 C   0  0  0  0  0  0  0  0  0  0  0  0
    7.4567   -6.9464   27.2858 C   0  0  0  0  0  0  0  0  0  0  0  0
    0.1921   -5.7592   27.1123 C   0  0  0  0  0  0  0  0  0  0  0  0
    3.5517   -7.7407   25.9711 C   0  0  0  0  0  0  0  0  0  0  0  0
  1  4  4  0
  1 22  4  0
  2 20  4  0
  2 27  4  0
  3 12  4  0
  3 23  4  0
  4 25  4  0
  4 28  1  0
  5  8  4  0
  5 17  4  0
  6  7  4  0
  6 16  4  0
  7 18  4  0
  8 27  4  0
  9 13  4  0
  9 23  4  0
 10 11  1  0
 11 14  2  0
 11 27  1  0
 12 19  1  0
 12 24  4  0
 13 24  4  0
 15 18  1  0
 16 25  4  0
 16 26  4  0
 17 20  4  0
 17 28  1  0
 18 21  4  0
 21 26  4  0
 22 26  4  0
M  END
$$$$

 Created by Python create_sdf_string function

 28 30  0  0  0  0  0  0  0  0999 V2000
    5.7174   -8.4529   26.7190 C   0  0  0  0  0  0  0  0  0  0  0  0
    0.3974   -7.0711   27.5149 C   0  0  0  0  0  0  0  0  0  0  0  0
    2.5338   -7.6891   16.0102 C   0  0  0  0  0  0  0  0  0  0  0  0
    4.8690   -7.4380   26.4151 C   0  0  0  0  0  0  0  0  0  0  0  0
    2.3021   -5.6726   26.0378 C   0  0  0  0  0  0  0  0  0  0  0  0
    7.0880   -4.6163   27.0010 C   0  0  0  0  0  0  0  0  0  0  0  0
    8.3117   -4.3698   27.4436 C   0  0  0  0  0  0  0  0  0  0  0  0
    1.1339   -5.0515   26.3541 C   0  0  0  0  0  0  0  0  0  0  0  0
    4.8080   -8.0362   16.7101 C   0  0  0  0  0  0  0  0  0  0  0  0
   -1.2173   -3.9294   26.9717 O   0  0  0  0  0  0  0  0  0  0  0  0
   -1.0025   -5.0942   27.4586 C   0  0  0  0  0  0  0  0  0  0  0  0
    2.2474   -8.9123   16.6273 C   0  0  0  0  0  0  0  0  0  0  0  0
    4.4957   -9.2636   17.3041 C   0  0  0  0  0  0  0  0  0  0  0  0
   -1.8070   -5.6086   28.1920 O   0  0  0  0  0  0  0  0  0  0  0  0
   10.4296   -5.1799   28.3140 C   0  0  0  0  0  0  0  0  0  0  0  0
    6.6017   -5.9004   26.9187 C   0  0  0  0  0  0  0  0  0  0  0  0
    2.4761   -6.9940   26.4111 N   0  0  0  0  0  0  0  0  0  0  0  0
    9.1353   -5.4053   27.8239 C   0  0  0  0  0  0  0  0  0  0  0  0
    0.9922   -9.3232   16.5995 O   0  0  0  0  0  0  0  0  0  0  0  0
    1.5232   -7.6869   27.1182 C   0  0  0  0  0  0  0  0  0  0  0  0
    8.6878   -6.6715   27.7262 N   0  0  0  0  0  0  0  0  0  0  0  0
    6.9911   -8.2423   27.1808 C   0  0  0  0  0  0  0  0  0  0  0  0
    3.8436   -7.2758   16.0578 C   0  0  0  0  0  0  0  0  0  0  0  0
    3.1882   -9.7190   17.2566 C   0  0  0  0  0  0  0  0  0  0  0  0
    5.3488   -6.1737   26.5092 C   0  0  0  0  0  0  0  0  0  0  0  0
    7.4567   -6.9464   27.2858 C   0  0  0  0  0  0  0  0  0  0  0  0
    0.1921   -5.7592   27.1123 C   0  0  0  0  0  0  0  0  0  0  0  0
    3.5517   -7.7407   25.9711 C   0  0  0  0  0  0  0  0  0  0  0  0
  1  4  4  0
  1 22  4  0
  2 20  4  0
  2 27  4  0
  3 12  4  0
  3 23  4  0
  4 25  4  0
  4 28  1  0
  5  8  4  0
  5 17  4  0
  6  7  4  0
  6 16  4  0
  7 18  4  0
  8 27  4  0
  9 13  4  0
  9 23  4  0
 10 11  1  0
 11 14  2  0
 11 27  1  0
 12 19  1  0
 12 24  4  0
 13 24  4  0
 15 18  1  0
 16 25  4  0
 16 26  4  0
 17 20  4  0
 17 28  1  0
 18 21  4  0
 21 26  4  0
 22 26  4  0
M  END
$$$$

 Created by Python create_sdf_string function

 28 30  0  0  0  0  0  0  0  0999 V2000
    5.7174   -8.4529   26.7190 C   0  0  0  0  0  0  0  0  0  0  0  0
    0.3974   -7.0711   27.5149 C   0  0  0  0  0  0  0  0  0  0  0  0
    2.5338   -7.6891   16.0102 C   0  0  0  0  0  0  0  0  0  0  0  0
    4.8690   -7.4380   26.4151 C   0  0  0  0  0  0  0  0  0  0  0  0
    2.3021   -5.6726   26.0378 C   0  0  0  0  0  0  0  0  0  0  0  0
    7.0880   -4.6163   27.0010 C   0  0  0  0  0  0  0  0  0  0  0  0
    8.3117   -4.3698   27.4436 C   0  0  0  0  0  0  0  0  0  0  0  0
    1.1339   -5.0515   26.3541 C   0  0  0  0  0  0  0  0  0  0  0  0
    4.8080   -8.0362   16.7101 C   0  0  0  0  0  0  0  0  0  0  0  0
   -1.2173   -3.9294   26.9717 O   0  0  0  0  0  0  0  0  0  0  0  0
   -1.0025   -5.0942   27.4586 C   0  0  0  0  0  0  0  0  0  0  0  0
    2.2474   -8.9123   16.6273 C   0  0  0  0  0  0  0  0  0  0  0  0
    4.4957   -9.2636   17.3041 C   0  0  0  0  0  0  0  0  0  0  0  0
   -1.8070   -5.6086   28.1920 O   0  0  0  0  0  0  0  0  0  0  0  0
   10.4296   -5.1799   28.3140 C   0  0  0  0  0  0  0  0  0  0  0  0
    6.6017   -5.9004   26.9187 C   0  0  0  0  0  0  0  0  0  0  0  0
    2.4761   -6.9940   26.4111 N   0  0  0  0  0  0  0  0  0  0  0  0
    9.1353   -5.4053   27.8239 C   0  0  0  0  0  0  0  0  0  0  0  0
    0.9922   -9.3232   16.5995 O   0  0  0  0  0  0  0  0  0  0  0  0
    1.5232   -7.6869   27.1182 C   0  0  0  0  0  0  0  0  0  0  0  0
    8.6878   -6.6715   27.7262 N   0  0  0  0  0  0  0  0  0  0  0  0
    6.9911   -8.2423   27.1808 C   0  0  0  0  0  0  0  0  0  0  0  0
    3.8436   -7.2758   16.0578 C   0  0  0  0  0  0  0  0  0  0  0  0
    3.1882   -9.7190   17.2566 C   0  0  0  0  0  0  0  0  0  0  0  0
    5.3488   -6.1737   26.5092 C   0  0  0  0  0  0  0  0  0  0  0  0
    7.4567   -6.9464   27.2858 C   0  0  0  0  0  0  0  0  0  0  0  0
    0.1921   -5.7592   27.1123 C   0  0  0  0  0  0  0  0  0  0  0  0
    3.5517   -7.7407   25.9711 C   0  0  0  0  0  0  0  0  0  0  0  0
  1  4  4  0
  1 22  4  0
  2 20  4  0
  2 27  4  0
  3 12  4  0
  3 23  4  0
  4 25  4  0
  4 28  1  0
  5  8  4  0
  5 17  4  0
  6  7  4  0
  6 16  4  0
  7 18  4  0
  8 27  4  0
  9 13  4  0
  9 23  4  0
 10 11  1  0
 11 14  2  0
 11 27  1  0
 12 19  1  0
 12 24  4  0
 13 24  4  0
 15 18  1  0
 16 25  4  0
 16 26  4  0
 17 20  4  0
 17 28  1  0
 18 21  4  0
 21 26  4  0
 22 26  4  0
M  END
$$$$

 Created by Python create_sdf_string function

 28 30  0  0  0  0  0  0  0  0999 V2000
    5.7174   -8.4529   26.7190 C   0  0  0  0  0  0  0  0  0  0  0  0
    0.3974   -7.0711   27.5149 C   0  0  0  0  0  0  0  0  0  0  0  0
    2.5338   -7.6891   16.0102 C   0  0  0  0  0  0  0  0  0  0  0  0
    4.8690   -7.4380   26.4151 C   0  0  0  0  0  0  0  0  0  0  0  0
    2.3021   -5.6726   26.0378 C   0  0  0  0  0  0  0  0  0  0  0  0
    7.0880   -4.6163   27.0010 C   0  0  0  0  0  0  0  0  0  0  0  0
    8.3117   -4.3698   27.4436 C   0  0  0  0  0  0  0  0  0  0  0  0
    1.1339   -5.0515   26.3541 C   0  0  0  0  0  0  0  0  0  0  0  0
    4.8080   -8.0362   16.7101 C   0  0  0  0  0  0  0  0  0  0  0  0
   -1.2173   -3.9294   26.9717 O   0  0  0  0  0  0  0  0  0  0  0  0
   -1.0025   -5.0942   27.4586 C   0  0  0  0  0  0  0  0  0  0  0  0
    2.2474   -8.9123   16.6273 C   0  0  0  0  0  0  0  0  0  0  0  0
    4.4957   -9.2636   17.3041 C   0  0  0  0  0  0  0  0  0  0  0  0
   -1.8070   -5.6086   28.1920 O   0  0  0  0  0  0  0  0  0  0  0  0
   10.4296   -5.1799   28.3140 C   0  0  0  0  0  0  0  0  0  0  0  0
    6.6017   -5.9004   26.9187 C   0  0  0  0  0  0  0  0  0  0  0  0
    2.4761   -6.9940   26.4111 N   0  0  0  0  0  0  0  0  0  0  0  0
    9.1353   -5.4053   27.8239 C   0  0  0  0  0  0  0  0  0  0  0  0
    0.9922   -9.3232   16.5995 O   0  0  0  0  0  0  0  0  0  0  0  0
    1.5232   -7.6869   27.1182 C   0  0  0  0  0  0  0  0  0  0  0  0
    8.6878   -6.6715   27.7262 N   0  0  0  0  0  0  0  0  0  0  0  0
    6.9911   -8.2423   27.1808 C   0  0  0  0  0  0  0  0  0  0  0  0
    3.8436   -7.2758   16.0578 C   0  0  0  0  0  0  0  0  0  0  0  0
    3.1882   -9.7190   17.2566 C   0  0  0  0  0  0  0  0  0  0  0  0
    5.3488   -6.1737   26.5092 C   0  0  0  0  0  0  0  0  0  0  0  0
    7.4567   -6.9464   27.2858 C   0  0  0  0  0  0  0  0  0  0  0  0
    0.1921   -5.7592   27.1123 C   0  0  0  0  0  0  0  0  0  0  0  0
    3.5517   -7.7407   25.9711 C   0  0  0  0  0  0  0  0  0  0  0  0
  1  4  4  0
  1 22  4  0
  2 20  4  0
  2 27  4  0
  3 12  4  0
  3 23  4  0
  4 25  4  0
  4 28  1  0
  5  8  4  0
  5 17  4  0
  6  7  4  0
  6 16  4  0
  7 18  4  0
  8 27  4  0
  9 13  4  0
  9 23  4  0
 10 11  1  0
 11 14  2  0
 11 27  1  0
 12 19  1  0
 12 24  4  0
 13 24  4  0
 15 18  1  0
 16 25  4  0
 16 26  4  0
 17 20  4  0
 17 28  1  0
 18 21  4  0
 21 26  4  0
 22 26  4  0
M  END
$$$$

 Created by Python create_sdf_string function

 28 30  0  0  0  0  0  0  0  0999 V2000
    5.7174   -8.4529   26.7190 C   0  0  0  0  0  0  0  0  0  0  0  0
    0.3974   -7.0711   27.5149 C   0  0  0  0  0  0  0  0  0  0  0  0
    2.5338   -7.6891   16.0102 C   0  0  0  0  0  0  0  0  0  0  0  0
    4.8690   -7.4380   26.4151 C   0  0  0  0  0  0  0  0  0  0  0  0
    2.3021   -5.6726   26.0378 C   0  0  0  0  0  0  0  0  0  0  0  0
    7.0880   -4.6163   27.0010 C   0  0  0  0  0  0  0  0  0  0  0  0
    8.3117   -4.3698   27.4436 C   0  0  0  0  0  0  0  0  0  0  0  0
    1.1339   -5.0515   26.3541 C   0  0  0  0  0  0  0  0  0  0  0  0
    4.8080   -8.0362   16.7101 C   0  0  0  0  0  0  0  0  0  0  0  0
   -1.2173   -3.9294   26.9717 O   0  0  0  0  0  0  0  0  0  0  0  0
   -1.0025   -5.0942   27.4586 C   0  0  0  0  0  0  0  0  0  0  0  0
    2.2474   -8.9123   16.6273 C   0  0  0  0  0  0  0  0  0  0  0  0
    4.4957   -9.2636   17.3041 C   0  0  0  0  0  0  0  0  0  0  0  0
   -1.8070   -5.6086   28.1920 O   0  0  0  0  0  0  0  0  0  0  0  0
   10.4296   -5.1799   28.3140 C   0  0  0  0  0  0  0  0  0  0  0  0
    6.6017   -5.9004   26.9187 C   0  0  0  0  0  0  0  0  0  0  0  0
    2.4761   -6.9940   26.4111 N   0  0  0  0  0  0  0  0  0  0  0  0
    9.1353   -5.4053   27.8239 C   0  0  0  0  0  0  0  0  0  0  0  0
    0.9922   -9.3232   16.5995 O   0  0  0  0  0  0  0  0  0  0  0  0
    1.5232   -7.6869   27.1182 C   0  0  0  0  0  0  0  0  0  0  0  0
    8.6878   -6.6715   27.7262 N   0  0  0  0  0  0  0  0  0  0  0  0
    6.9911   -8.2423   27.1808 C   0  0  0  0  0  0  0  0  0  0  0  0
    3.8436   -7.2758   16.0578 C   0  0  0  0  0  0  0  0  0  0  0  0
    3.1882   -9.7190   17.2566 C   0  0  0  0  0  0  0  0  0  0  0  0
    5.3488   -6.1737   26.5092 C   0  0  0  0  0  0  0  0  0  0  0  0
    7.4567   -6.9464   27.2858 C   0  0  0  0  0  0  0  0  0  0  0  0
    0.1921   -5.7592   27.1123 C   0  0  0  0  0  0  0  0  0  0  0  0
    3.5517   -7.7407   25.9711 C   0  0  0  0  0  0  0  0  0  0  0  0
  1  4  4  0
  1 22  4  0
  2 20  4  0
  2 27  4  0
  3 12  4  0
  3 23  4  0
  4 25  4  0
  4 28  1  0
  5  8  4  0
  5 17  4  0
  6  7  4  0
  6 16  4  0
  7 18  4  0
  8 27  4  0
  9 13  4  0
  9 23  4  0
 10 11  1  0
 11 14  2  0
 11 27  1  0
 12 19  1  0
 12 24  4  0
 13 24  4  0
 15 18  1  0
 16 25  4  0
 16 26  4  0
 17 20  4  0
 17 28  1  0
 18 21  4  0
 21 26  4  0
 22 26  4  0
M  END
$$$$

 Created by Python create_sdf_string function

 28 30  0  0  0  0  0  0  0  0999 V2000
    5.7174   -8.4529   26.7190 C   0  0  0  0  0  0  0  0  0  0  0  0
    0.3974   -7.0711   27.5149 C   0  0  0  0  0  0  0  0  0  0  0  0
    2.5338   -7.6891   16.0102 C   0  0  0  0  0  0  0  0  0  0  0  0
    4.8690   -7.4380   26.4151 C   0  0  0  0  0  0  0  0  0  0  0  0
    2.3021   -5.6726   26.0378 C   0  0  0  0  0  0  0  0  0  0  0  0
    7.0880   -4.6163   27.0010 C   0  0  0  0  0  0  0  0  0  0  0  0
    8.3117   -4.3698   27.4436 C   0  0  0  0  0  0  0  0  0  0  0  0
    1.1339   -5.0515   26.3541 C   0  0  0  0  0  0  0  0  0  0  0  0
    4.8080   -8.0362   16.7101 C   0  0  0  0  0  0  0  0  0  0  0  0
   -1.2173   -3.9294   26.9717 O   0  0  0  0  0  0  0  0  0  0  0  0
   -1.0025   -5.0942   27.4586 C   0  0  0  0  0  0  0  0  0  0  0  0
    2.2474   -8.9123   16.6273 C   0  0  0  0  0  0  0  0  0  0  0  0
    4.4957   -9.2636   17.3041 C   0  0  0  0  0  0  0  0  0  0  0  0
   -1.8070   -5.6086   28.1920 O   0  0  0  0  0  0  0  0  0  0  0  0
   10.4296   -5.1799   28.3140 C   0  0  0  0  0  0  0  0  0  0  0  0
    6.6017   -5.9004   26.9187 C   0  0  0  0  0  0  0  0  0  0  0  0
    2.4761   -6.9940   26.4111 N   0  0  0  0  0  0  0  0  0  0  0  0
    9.1353   -5.4053   27.8239 C   0  0  0  0  0  0  0  0  0  0  0  0
    0.9922   -9.3232   16.5995 O   0  0  0  0  0  0  0  0  0  0  0  0
    1.5232   -7.6869   27.1182 C   0  0  0  0  0  0  0  0  0  0  0  0
    8.6878   -6.6715   27.7262 N   0  0  0  0  0  0  0  0  0  0  0  0
    6.9911   -8.2423   27.1808 C   0  0  0  0  0  0  0  0  0  0  0  0
    3.8436   -7.2758   16.0578 C   0  0  0  0  0  0  0  0  0  0  0  0
    3.1882   -9.7190   17.2566 C   0  0  0  0  0  0  0  0  0  0  0  0
    5.3488   -6.1737   26.5092 C   0  0  0  0  0  0  0  0  0  0  0  0
    7.4567   -6.9464   27.2858 C   0  0  0  0  0  0  0  0  0  0  0  0
    0.1921   -5.7592   27.1123 C   0  0  0  0  0  0  0  0  0  0  0  0
    3.5517   -7.7407   25.9711 C   0  0  0  0  0  0  0  0  0  0  0  0
  1  4  4  0
  1 22  4  0
  2 20  4  0
  2 27  4  0
  3 12  4  0
  3 23  4  0
  4 25  4  0
  4 28  1  0
  5  8  4  0
  5 17  4  0
  6  7  4  0
  6 16  4  0
  7 18  4  0
  8 27  4  0
  9 13  4  0
  9 23  4  0
 10 11  1  0
 11 14  2  0
 11 27  1  0
 12 19  1  0
 12 24  4  0
 13 24  4  0
 15 18  1  0
 16 25  4  0
 16 26  4  0
 17 20  4  0
 17 28  1  0
 18 21  4  0
 21 26  4  0
 22 26  4  0
M  END
$$$$

 Created by Python create_sdf_string function

 28 30  0  0  0  0  0  0  0  0999 V2000
    5.7174   -8.4529   26.7190 C   0  0  0  0  0  0  0  0  0  0  0  0
    0.3974   -7.0711   27.5149 C   0  0  0  0  0  0  0  0  0  0  0  0
    2.5338   -7.6891   16.0102 C   0  0  0  0  0  0  0  0  0  0  0  0
    4.8690   -7.4380   26.4151 C   0  0  0  0  0  0  0  0  0  0  0  0
    2.3021   -5.6726   26.0378 C   0  0  0  0  0  0  0  0  0  0  0  0
    7.0880   -4.6163   27.0010 C   0  0  0  0  0  0  0  0  0  0  0  0
    8.3117   -4.3698   27.4436 C   0  0  0  0  0  0  0  0  0  0  0  0
    1.1339   -5.0515   26.3541 C   0  0  0  0  0  0  0  0  0  0  0  0
    4.8080   -8.0362   16.7101 C   0  0  0  0  0  0  0  0  0  0  0  0
   -1.2173   -3.9294   26.9717 O   0  0  0  0  0  0  0  0  0  0  0  0
   -1.0025   -5.0942   27.4586 C   0  0  0  0  0  0  0  0  0  0  0  0
    2.2474   -8.9123   16.6273 C   0  0  0  0  0  0  0  0  0  0  0  0
    4.4957   -9.2636   17.3041 C   0  0  0  0  0  0  0  0  0  0  0  0
   -1.8070   -5.6086   28.1920 O   0  0  0  0  0  0  0  0  0  0  0  0
   10.4296   -5.1799   28.3140 C   0  0  0  0  0  0  0  0  0  0  0  0
    6.6017   -5.9004   26.9187 C   0  0  0  0  0  0  0  0  0  0  0  0
    2.4761   -6.9940   26.4111 N   0  0  0  0  0  0  0  0  0  0  0  0
    9.1353   -5.4053   27.8239 C   0  0  0  0  0  0  0  0  0  0  0  0
    0.9922   -9.3232   16.5995 O   0  0  0  0  0  0  0  0  0  0  0  0
    1.5232   -7.6869   27.1182 C   0  0  0  0  0  0  0  0  0  0  0  0
    8.6878   -6.6715   27.7262 N   0  0  0  0  0  0  0  0  0  0  0  0
    6.9911   -8.2423   27.1808 C   0  0  0  0  0  0  0  0  0  0  0  0
    3.8436   -7.2758   16.0578 C   0  0  0  0  0  0  0  0  0  0  0  0
    3.1882   -9.7190   17.2566 C   0  0  0  0  0  0  0  0  0  0  0  0
    5.3488   -6.1737   26.5092 C   0  0  0  0  0  0  0  0  0  0  0  0
    7.4567   -6.9464   27.2858 C   0  0  0  0  0  0  0  0  0  0  0  0
    0.1921   -5.7592   27.1123 C   0  0  0  0  0  0  0  0  0  0  0  0
    3.5517   -7.7407   25.9711 C   0  0  0  0  0  0  0  0  0  0  0  0
  1  4  4  0
  1 22  4  0
  2 20  4  0
  2 27  4  0
  3 12  4  0
  3 23  4  0
  4 25  4  0
  4 28  1  0
  5  8  4  0
  5 17  4  0
  6  7  4  0
  6 16  4  0
  7 18  4  0
  8 27  4  0
  9 13  4  0
  9 23  4  0
 10 11  1  0
 11 14  2  0
 11 27  1  0
 12 19  1  0
 12 24  4  0
 13 24  4  0
 15 18  1  0
 16 25  4  0
 16 26  4  0
 17 20  4  0
 17 28  1  0
 18 21  4  0
 21 26  4  0
 22 26  4  0
M  END
$$$$

 Created by Python create_sdf_string function

 28 30  0  0  0  0  0  0  0  0999 V2000
    5.7174   -8.4529   26.7190 C   0  0  0  0  0  0  0  0  0  0  0  0
    0.3974   -7.0711   27.5149 C   0  0  0  0  0  0  0  0  0  0  0  0
    2.5338   -7.6891   16.0102 C   0  0  0  0  0  0  0  0  0  0  0  0
    4.8690   -7.4380   26.4151 C   0  0  0  0  0  0  0  0  0  0  0  0
    2.3021   -5.6726   26.0378 C   0  0  0  0  0  0  0  0  0  0  0  0
    7.0880   -4.6163   27.0010 C   0  0  0  0  0  0  0  0  0  0  0  0
    8.3117   -4.3698   27.4436 C   0  0  0  0  0  0  0  0  0  0  0  0
    1.1339   -5.0515   26.3541 C   0  0  0  0  0  0  0  0  0  0  0  0
    4.8080   -8.0362   16.7101 C   0  0  0  0  0  0  0  0  0  0  0  0
   -1.2173   -3.9294   26.9717 O   0  0  0  0  0  0  0  0  0  0  0  0
   -1.0025   -5.0942   27.4586 C   0  0  0  0  0  0  0  0  0  0  0  0
    2.2474   -8.9123   16.6273 C   0  0  0  0  0  0  0  0  0  0  0  0
    4.4957   -9.2636   17.3041 C   0  0  0  0  0  0  0  0  0  0  0  0
   -1.8070   -5.6086   28.1920 O   0  0  0  0  0  0  0  0  0  0  0  0
   10.4296   -5.1799   28.3140 C   0  0  0  0  0  0  0  0  0  0  0  0
    6.6017   -5.9004   26.9187 C   0  0  0  0  0  0  0  0  0  0  0  0
    2.4761   -6.9940   26.4111 N   0  0  0  0  0  0  0  0  0  0  0  0
    9.1353   -5.4053   27.8239 C   0  0  0  0  0  0  0  0  0  0  0  0
    0.9922   -9.3232   16.5995 O   0  0  0  0  0  0  0  0  0  0  0  0
    1.5232   -7.6869   27.1182 C   0  0  0  0  0  0  0  0  0  0  0  0
    8.6878   -6.6715   27.7262 N   0  0  0  0  0  0  0  0  0  0  0  0
    6.9911   -8.2423   27.1808 C   0  0  0  0  0  0  0  0  0  0  0  0
    3.8436   -7.2758   16.0578 C   0  0  0  0  0  0  0  0  0  0  0  0
    3.1882   -9.7190   17.2566 C   0  0  0  0  0  0  0  0  0  0  0  0
    5.3488   -6.1737   26.5092 C   0  0  0  0  0  0  0  0  0  0  0  0
    7.4567   -6.9464   27.2858 C   0  0  0  0  0  0  0  0  0  0  0  0
    0.1921   -5.7592   27.1123 C   0  0  0  0  0  0  0  0  0  0  0  0
    3.5517   -7.7407   25.9711 C   0  0  0  0  0  0  0  0  0  0  0  0
  1  4  4  0
  1 22  4  0
  2 20  4  0
  2 27  4  0
  3 12  4  0
  3 23  4  0
  4 25  4  0
  4 28  1  0
  5  8  4  0
  5 17  4  0
  6  7  4  0
  6 16  4  0
  7 18  4  0
  8 27  4  0
  9 13  4  0
  9 23  4  0
 10 11  1  0
 11 14  2  0
 11 27  1  0
 12 19  1  0
 12 24  4  0
 13 24  4  0
 15 18  1  0
 16 25  4  0
 16 26  4  0
 17 20  4  0
 17 28  1  0
 18 21  4  0
 21 26  4  0
 22 26  4  0
M  END
$$$$

 Created by Python create_sdf_string function

 28 30  0  0  0  0  0  0  0  0999 V2000
    5.7174   -8.4529   26.7190 C   0  0  0  0  0  0  0  0  0  0  0  0
    0.3974   -7.0711   27.5149 C   0  0  0  0  0  0  0  0  0  0  0  0
    2.5338   -7.6891   16.0102 C   0  0  0  0  0  0  0  0  0  0  0  0
    4.8690   -7.4380   26.4151 C   0  0  0  0  0  0  0  0  0  0  0  0
    2.3021   -5.6726   26.0378 C   0  0  0  0  0  0  0  0  0  0  0  0
    7.0880   -4.6163   27.0010 C   0  0  0  0  0  0  0  0  0  0  0  0
    8.3117   -4.3698   27.4436 C   0  0  0  0  0  0  0  0  0  0  0  0
    1.1339   -5.0515   26.3541 C   0  0  0  0  0  0  0  0  0  0  0  0
    4.8080   -8.0362   16.7101 C   0  0  0  0  0  0  0  0  0  0  0  0
   -1.2173   -3.9294   26.9717 O   0  0  0  0  0  0  0  0  0  0  0  0
   -1.0025   -5.0942   27.4586 C   0  0  0  0  0  0  0  0  0  0  0  0
    2.2474   -8.9123   16.6273 C   0  0  0  0  0  0  0  0  0  0  0  0
    4.4957   -9.2636   17.3041 C   0  0  0  0  0  0  0  0  0  0  0  0
   -1.8070   -5.6086   28.1920 O   0  0  0  0  0  0  0  0  0  0  0  0
   10.4296   -5.1799   28.3140 C   0  0  0  0  0  0  0  0  0  0  0  0
    6.6017   -5.9004   26.9187 C   0  0  0  0  0  0  0  0  0  0  0  0
    2.4761   -6.9940   26.4111 N   0  0  0  0  0  0  0  0  0  0  0  0
    9.1353   -5.4053   27.8239 C   0  0  0  0  0  0  0  0  0  0  0  0
    0.9922   -9.3232   16.5995 O   0  0  0  0  0  0  0  0  0  0  0  0
    1.5232   -7.6869   27.1182 C   0  0  0  0  0  0  0  0  0  0  0  0
    8.6878   -6.6715   27.7262 N   0  0  0  0  0  0  0  0  0  0  0  0
    6.9911   -8.2423   27.1808 C   0  0  0  0  0  0  0  0  0  0  0  0
    3.8436   -7.2758   16.0578 C   0  0  0  0  0  0  0  0  0  0  0  0
    3.1882   -9.7190   17.2566 C   0  0  0  0  0  0  0  0  0  0  0  0
    5.3488   -6.1737   26.5092 C   0  0  0  0  0  0  0  0  0  0  0  0
    7.4567   -6.9464   27.2858 C   0  0  0  0  0  0  0  0  0  0  0  0
    0.1921   -5.7592   27.1123 C   0  0  0  0  0  0  0  0  0  0  0  0
    3.5517   -7.7407   25.9711 C   0  0  0  0  0  0  0  0  0  0  0  0
  1  4  4  0
  1 22  4  0
  2 20  4  0
  2 27  4  0
  3 12  4  0
  3 23  4  0
  4 25  4  0
  4 28  1  0
  5  8  4  0
  5 17  4  0
  6  7  4  0
  6 16  4  0
  7 18  4  0
  8 27  4  0
  9 13  4  0
  9 23  4  0
 10 11  1  0
 11 14  2  0
 11 27  1  0
 12 19  1  0
 12 24  4  0
 13 24  4  0
 15 18  1  0
 16 25  4  0
 16 26  4  0
 17 20  4  0
 17 28  1  0
 18 21  4  0
 21 26  4  0
 22 26  4  0
M  END
$$$$

 Created by Python create_sdf_string function

 28 30  0  0  0  0  0  0  0  0999 V2000
    5.7174   -8.4529   26.7190 C   0  0  0  0  0  0  0  0  0  0  0  0
    0.3974   -7.0711   27.5149 C   0  0  0  0  0  0  0  0  0  0  0  0
    2.5338   -7.6891   16.0102 C   0  0  0  0  0  0  0  0  0  0  0  0
    4.8690   -7.4380   26.4151 C   0  0  0  0  0  0  0  0  0  0  0  0
    2.3021   -5.6726   26.0378 C   0  0  0  0  0  0  0  0  0  0  0  0
    7.0880   -4.6163   27.0010 C   0  0  0  0  0  0  0  0  0  0  0  0
    8.3117   -4.3698   27.4436 C   0  0  0  0  0  0  0  0  0  0  0  0
    1.1339   -5.0515   26.3541 C   0  0  0  0  0  0  0  0  0  0  0  0
    4.8080   -8.0362   16.7101 C   0  0  0  0  0  0  0  0  0  0  0  0
   -1.2173   -3.9294   26.9717 O   0  0  0  0  0  0  0  0  0  0  0  0
   -1.0025   -5.0942   27.4586 C   0  0  0  0  0  0  0  0  0  0  0  0
    2.2474   -8.9123   16.6273 C   0  0  0  0  0  0  0  0  0  0  0  0
    4.4957   -9.2636   17.3041 C   0  0  0  0  0  0  0  0  0  0  0  0
   -1.8070   -5.6086   28.1920 O   0  0  0  0  0  0  0  0  0  0  0  0
   10.4296   -5.1799   28.3140 C   0  0  0  0  0  0  0  0  0  0  0  0
    6.6017   -5.9004   26.9187 C   0  0  0  0  0  0  0  0  0  0  0  0
    2.4761   -6.9940   26.4111 N   0  0  0  0  0  0  0  0  0  0  0  0
    9.1353   -5.4053   27.8239 C   0  0  0  0  0  0  0  0  0  0  0  0
    0.9922   -9.3232   16.5995 O   0  0  0  0  0  0  0  0  0  0  0  0
    1.5232   -7.6869   27.1182 C   0  0  0  0  0  0  0  0  0  0  0  0
    8.6878   -6.6715   27.7262 N   0  0  0  0  0  0  0  0  0  0  0  0
    6.9911   -8.2423   27.1808 C   0  0  0  0  0  0  0  0  0  0  0  0
    3.8436   -7.2758   16.0578 C   0  0  0  0  0  0  0  0  0  0  0  0
    3.1882   -9.7190   17.2566 C   0  0  0  0  0  0  0  0  0  0  0  0
    5.3488   -6.1737   26.5092 C   0  0  0  0  0  0  0  0  0  0  0  0
    7.4567   -6.9464   27.2858 C   0  0  0  0  0  0  0  0  0  0  0  0
    0.1921   -5.7592   27.1123 C   0  0  0  0  0  0  0  0  0  0  0  0
    3.5517   -7.7407   25.9711 C   0  0  0  0  0  0  0  0  0  0  0  0
  1  4  4  0
  1 22  4  0
  2 20  4  0
  2 27  4  0
  3 12  4  0
  3 23  4  0
  4 25  4  0
  4 28  1  0
  5  8  4  0
  5 17  4  0
  6  7  4  0
  6 16  4  0
  7 18  4  0
  8 27  4  0
  9 13  4  0
  9 23  4  0
 10 11  1  0
 11 14  2  0
 11 27  1  0
 12 19  1  0
 12 24  4  0
 13 24  4  0
 15 18  1  0
 16 25  4  0
 16 26  4  0
 17 20  4  0
 17 28  1  0
 18 21  4  0
 21 26  4  0
 22 26  4  0
M  END
$$$$

 Created by Python create_sdf_string function

 28 30  0  0  0  0  0  0  0  0999 V2000
    5.7174   -8.4529   26.7190 C   0  0  0  0  0  0  0  0  0  0  0  0
    0.3974   -7.0711   27.5149 C   0  0  0  0  0  0  0  0  0  0  0  0
    2.5338   -7.6891   16.0102 C   0  0  0  0  0  0  0  0  0  0  0  0
    4.8690   -7.4380   26.4151 C   0  0  0  0  0  0  0  0  0  0  0  0
    2.3021   -5.6726   26.0378 C   0  0  0  0  0  0  0  0  0  0  0  0
    7.0880   -4.6163   27.0010 C   0  0  0  0  0  0  0  0  0  0  0  0
    8.3117   -4.3698   27.4436 C   0  0  0  0  0  0  0  0  0  0  0  0
    1.1339   -5.0515   26.3541 C   0  0  0  0  0  0  0  0  0  0  0  0
    4.8080   -8.0362   16.7101 C   0  0  0  0  0  0  0  0  0  0  0  0
   -1.2173   -3.9294   26.9717 O   0  0  0  0  0  0  0  0  0  0  0  0
   -1.0025   -5.0942   27.4586 C   0  0  0  0  0  0  0  0  0  0  0  0
    2.2474   -8.9123   16.6273 C   0  0  0  0  0  0  0  0  0  0  0  0
    4.4957   -9.2636   17.3041 C   0  0  0  0  0  0  0  0  0  0  0  0
   -1.8070   -5.6086   28.1920 O   0  0  0  0  0  0  0  0  0  0  0  0
   10.4296   -5.1799   28.3140 C   0  0  0  0  0  0  0  0  0  0  0  0
    6.6017   -5.9004   26.9187 C   0  0  0  0  0  0  0  0  0  0  0  0
    2.4761   -6.9940   26.4111 N   0  0  0  0  0  0  0  0  0  0  0  0
    9.1353   -5.4053   27.8239 C   0  0  0  0  0  0  0  0  0  0  0  0
    0.9922   -9.3232   16.5995 O   0  0  0  0  0  0  0  0  0  0  0  0
    1.5232   -7.6869   27.1182 C   0  0  0  0  0  0  0  0  0  0  0  0
    8.6878   -6.6715   27.7262 N   0  0  0  0  0  0  0  0  0  0  0  0
    6.9911   -8.2423   27.1808 C   0  0  0  0  0  0  0  0  0  0  0  0
    3.8436   -7.2758   16.0578 C   0  0  0  0  0  0  0  0  0  0  0  0
    3.1882   -9.7190   17.2566 C   0  0  0  0  0  0  0  0  0  0  0  0
    5.3488   -6.1737   26.5092 C   0  0  0  0  0  0  0  0  0  0  0  0
    7.4567   -6.9464   27.2858 C   0  0  0  0  0  0  0  0  0  0  0  0
    0.1921   -5.7592   27.1123 C   0  0  0  0  0  0  0  0  0  0  0  0
    3.5517   -7.7407   25.9711 C   0  0  0  0  0  0  0  0  0  0  0  0
  1  4  4  0
  1 22  4  0
  2 20  4  0
  2 27  4  0
  3 12  4  0
  3 23  4  0
  4 25  4  0
  4 28  1  0
  5  8  4  0
  5 17  4  0
  6  7  4  0
  6 16  4  0
  7 18  4  0
  8 27  4  0
  9 13  4  0
  9 23  4  0
 10 11  1  0
 11 14  2  0
 11 27  1  0
 12 19  1  0
 12 24  4  0
 13 24  4  0
 15 18  1  0
 16 25  4  0
 16 26  4  0
 17 20  4  0
 17 28  1  0
 18 21  4  0
 21 26  4  0
 22 26  4  0
M  END
$$$$

 Created by Python create_sdf_string function

 28 30  0  0  0  0  0  0  0  0999 V2000
    5.7174   -8.4529   26.7190 C   0  0  0  0  0  0  0  0  0  0  0  0
    0.3974   -7.0711   27.5149 C   0  0  0  0  0  0  0  0  0  0  0  0
    2.5338   -7.6891   16.0102 C   0  0  0  0  0  0  0  0  0  0  0  0
    4.8690   -7.4380   26.4151 C   0  0  0  0  0  0  0  0  0  0  0  0
    2.3021   -5.6726   26.0378 C   0  0  0  0  0  0  0  0  0  0  0  0
    7.0880   -4.6163   27.0010 C   0  0  0  0  0  0  0  0  0  0  0  0
    8.3117   -4.3698   27.4436 C   0  0  0  0  0  0  0  0  0  0  0  0
    1.1339   -5.0515   26.3541 C   0  0  0  0  0  0  0  0  0  0  0  0
    4.8080   -8.0362   16.7101 C   0  0  0  0  0  0  0  0  0  0  0  0
   -1.2173   -3.9294   26.9717 O   0  0  0  0  0  0  0  0  0  0  0  0
   -1.0025   -5.0942   27.4586 C   0  0  0  0  0  0  0  0  0  0  0  0
    2.2474   -8.9123   16.6273 C   0  0  0  0  0  0  0  0  0  0  0  0
    4.4957   -9.2636   17.3041 C   0  0  0  0  0  0  0  0  0  0  0  0
   -1.8070   -5.6086   28.1920 O   0  0  0  0  0  0  0  0  0  0  0  0
   10.4296   -5.1799   28.3140 C   0  0  0  0  0  0  0  0  0  0  0  0
    6.6017   -5.9004   26.9187 C   0  0  0  0  0  0  0  0  0  0  0  0
    2.4761   -6.9940   26.4111 N   0  0  0  0  0  0  0  0  0  0  0  0
    9.1353   -5.4053   27.8239 C   0  0  0  0  0  0  0  0  0  0  0  0
    0.9922   -9.3232   16.5995 O   0  0  0  0  0  0  0  0  0  0  0  0
    1.5232   -7.6869   27.1182 C   0  0  0  0  0  0  0  0  0  0  0  0
    8.6878   -6.6715   27.7262 N   0  0  0  0  0  0  0  0  0  0  0  0
    6.9911   -8.2423   27.1808 C   0  0  0  0  0  0  0  0  0  0  0  0
    3.8436   -7.2758   16.0578 C   0  0  0  0  0  0  0  0  0  0  0  0
    3.1882   -9.7190   17.2566 C   0  0  0  0  0  0  0  0  0  0  0  0
    5.3488   -6.1737   26.5092 C   0  0  0  0  0  0  0  0  0  0  0  0
    7.4567   -6.9464   27.2858 C   0  0  0  0  0  0  0  0  0  0  0  0
    0.1921   -5.7592   27.1123 C   0  0  0  0  0  0  0  0  0  0  0  0
    3.5517   -7.7407   25.9711 C   0  0  0  0  0  0  0  0  0  0  0  0
  1  4  4  0
  1 22  4  0
  2 20  4  0
  2 27  4  0
  3 12  4  0
  3 23  4  0
  4 25  4  0
  4 28  1  0
  5  8  4  0
  5 17  4  0
  6  7  4  0
  6 16  4  0
  7 18  4  0
  8 27  4  0
  9 13  4  0
  9 23  4  0
 10 11  1  0
 11 14  2  0
 11 27  1  0
 12 19  1  0
 12 24  4  0
 13 24  4  0
 15 18  1  0
 16 25  4  0
 16 26  4  0
 17 20  4  0
 17 28  1  0
 18 21  4  0
 21 26  4  0
 22 26  4  0
M  END
$$$$

 Created by Python create_sdf_string function

 28 30  0  0  0  0  0  0  0  0999 V2000
    5.7174   -8.4529   26.7190 C   0  0  0  0  0  0  0  0  0  0  0  0
    0.3974   -7.0711   27.5149 C   0  0  0  0  0  0  0  0  0  0  0  0
    2.5338   -7.6891   16.0102 C   0  0  0  0  0  0  0  0  0  0  0  0
    4.8690   -7.4380   26.4151 C   0  0  0  0  0  0  0  0  0  0  0  0
    2.3021   -5.6726   26.0378 C   0  0  0  0  0  0  0  0  0  0  0  0
    7.0880   -4.6163   27.0010 C   0  0  0  0  0  0  0  0  0  0  0  0
    8.3117   -4.3698   27.4436 C   0  0  0  0  0  0  0  0  0  0  0  0
    1.1339   -5.0515   26.3541 C   0  0  0  0  0  0  0  0  0  0  0  0
    4.8080   -8.0362   16.7101 C   0  0  0  0  0  0  0  0  0  0  0  0
   -1.2173   -3.9294   26.9717 O   0  0  0  0  0  0  0  0  0  0  0  0
   -1.0025   -5.0942   27.4586 C   0  0  0  0  0  0  0  0  0  0  0  0
    2.2474   -8.9123   16.6273 C   0  0  0  0  0  0  0  0  0  0  0  0
    4.4957   -9.2636   17.3041 C   0  0  0  0  0  0  0  0  0  0  0  0
   -1.8070   -5.6086   28.1920 O   0  0  0  0  0  0  0  0  0  0  0  0
   10.4296   -5.1799   28.3140 C   0  0  0  0  0  0  0  0  0  0  0  0
    6.6017   -5.9004   26.9187 C   0  0  0  0  0  0  0  0  0  0  0  0
    2.4761   -6.9940   26.4111 N   0  0  0  0  0  0  0  0  0  0  0  0
    9.1353   -5.4053   27.8239 C   0  0  0  0  0  0  0  0  0  0  0  0
    0.9922   -9.3232   16.5995 O   0  0  0  0  0  0  0  0  0  0  0  0
    1.5232   -7.6869   27.1182 C   0  0  0  0  0  0  0  0  0  0  0  0
    8.6878   -6.6715   27.7262 N   0  0  0  0  0  0  0  0  0  0  0  0
    6.9911   -8.2423   27.1808 C   0  0  0  0  0  0  0  0  0  0  0  0
    3.8436   -7.2758   16.0578 C   0  0  0  0  0  0  0  0  0  0  0  0
    3.1882   -9.7190   17.2566 C   0  0  0  0  0  0  0  0  0  0  0  0
    5.3488   -6.1737   26.5092 C   0  0  0  0  0  0  0  0  0  0  0  0
    7.4567   -6.9464   27.2858 C   0  0  0  0  0  0  0  0  0  0  0  0
    0.1921   -5.7592   27.1123 C   0  0  0  0  0  0  0  0  0  0  0  0
    3.5517   -7.7407   25.9711 C   0  0  0  0  0  0  0  0  0  0  0  0
  1  4  4  0
  1 22  4  0
  2 20  4  0
  2 27  4  0
  3 12  4  0
  3 23  4  0
  4 25  4  0
  4 28  1  0
  5  8  4  0
  5 17  4  0
  6  7  4  0
  6 16  4  0
  7 18  4  0
  8 27  4  0
  9 13  4  0
  9 23  4  0
 10 11  1  0
 11 14  2  0
 11 27  1  0
 12 19  1  0
 12 24  4  0
 13 24  4  0
 15 18  1  0
 16 25  4  0
 16 26  4  0
 17 20  4  0
 17 28  1  0
 18 21  4  0
 21 26  4  0
 22 26  4  0
M  END
$$$$

 Created by Python create_sdf_string function

 28 30  0  0  0  0  0  0  0  0999 V2000
    5.7174   -8.4529   26.7190 C   0  0  0  0  0  0  0  0  0  0  0  0
    0.3974   -7.0711   27.5149 C   0  0  0  0  0  0  0  0  0  0  0  0
    2.5338   -7.6891   16.0102 C   0  0  0  0  0  0  0  0  0  0  0  0
    4.8690   -7.4380   26.4151 C   0  0  0  0  0  0  0  0  0  0  0  0
    2.3021   -5.6726   26.0378 C   0  0  0  0  0  0  0  0  0  0  0  0
    7.0880   -4.6163   27.0010 C   0  0  0  0  0  0  0  0  0  0  0  0
    8.3117   -4.3698   27.4436 C   0  0  0  0  0  0  0  0  0  0  0  0
    1.1339   -5.0515   26.3541 C   0  0  0  0  0  0  0  0  0  0  0  0
    4.8080   -8.0362   16.7101 C   0  0  0  0  0  0  0  0  0  0  0  0
   -1.2173   -3.9294   26.9717 O   0  0  0  0  0  0  0  0  0  0  0  0
   -1.0025   -5.0942   27.4586 C   0  0  0  0  0  0  0  0  0  0  0  0
    2.2474   -8.9123   16.6273 C   0  0  0  0  0  0  0  0  0  0  0  0
    4.4957   -9.2636   17.3041 C   0  0  0  0  0  0  0  0  0  0  0  0
   -1.8070   -5.6086   28.1920 O   0  0  0  0  0  0  0  0  0  0  0  0
   10.4296   -5.1799   28.3140 C   0  0  0  0  0  0  0  0  0  0  0  0
    6.6017   -5.9004   26.9187 C   0  0  0  0  0  0  0  0  0  0  0  0
    2.4761   -6.9940   26.4111 N   0  0  0  0  0  0  0  0  0  0  0  0
    9.1353   -5.4053   27.8239 C   0  0  0  0  0  0  0  0  0  0  0  0
    0.9922   -9.3232   16.5995 O   0  0  0  0  0  0  0  0  0  0  0  0
    1.5232   -7.6869   27.1182 C   0  0  0  0  0  0  0  0  0  0  0  0
    8.6878   -6.6715   27.7262 N   0  0  0  0  0  0  0  0  0  0  0  0
    6.9911   -8.2423   27.1808 C   0  0  0  0  0  0  0  0  0  0  0  0
    3.8436   -7.2758   16.0578 C   0  0  0  0  0  0  0  0  0  0  0  0
    3.1882   -9.7190   17.2566 C   0  0  0  0  0  0  0  0  0  0  0  0
    5.3488   -6.1737   26.5092 C   0  0  0  0  0  0  0  0  0  0  0  0
    7.4567   -6.9464   27.2858 C   0  0  0  0  0  0  0  0  0  0  0  0
    0.1921   -5.7592   27.1123 C   0  0  0  0  0  0  0  0  0  0  0  0
    3.5517   -7.7407   25.9711 C   0  0  0  0  0  0  0  0  0  0  0  0
  1  4  4  0
  1 22  4  0
  2 20  4  0
  2 27  4  0
  3 12  4  0
  3 23  4  0
  4 25  4  0
  4 28  1  0
  5  8  4  0
  5 17  4  0
  6  7  4  0
  6 16  4  0
  7 18  4  0
  8 27  4  0
  9 13  4  0
  9 23  4  0
 10 11  1  0
 11 14  2  0
 11 27  1  0
 12 19  1  0
 12 24  4  0
 13 24  4  0
 15 18  1  0
 16 25  4  0
 16 26  4  0
 17 20  4  0
 17 28  1  0
 18 21  4  0
 21 26  4  0
 22 26  4  0
M  END
$$$$

 Created by Python create_sdf_string function

 28 30  0  0  0  0  0  0  0  0999 V2000
    5.7174   -8.4529   26.7190 C   0  0  0  0  0  0  0  0  0  0  0  0
    0.3974   -7.0711   27.5149 C   0  0  0  0  0  0  0  0  0  0  0  0
    2.5338   -7.6891   16.0102 C   0  0  0  0  0  0  0  0  0  0  0  0
    4.8690   -7.4380   26.4151 C   0  0  0  0  0  0  0  0  0  0  0  0
    2.3021   -5.6726   26.0378 C   0  0  0  0  0  0  0  0  0  0  0  0
    7.0880   -4.6163   27.0010 C   0  0  0  0  0  0  0  0  0  0  0  0
    8.3117   -4.3698   27.4436 C   0  0  0  0  0  0  0  0  0  0  0  0
    1.1339   -5.0515   26.3541 C   0  0  0  0  0  0  0  0  0  0  0  0
    4.8080   -8.0362   16.7101 C   0  0  0  0  0  0  0  0  0  0  0  0
   -1.2173   -3.9294   26.9717 O   0  0  0  0  0  0  0  0  0  0  0  0
   -1.0025   -5.0942   27.4586 C   0  0  0  0  0  0  0  0  0  0  0  0
    2.2474   -8.9123   16.6273 C   0  0  0  0  0  0  0  0  0  0  0  0
    4.4957   -9.2636   17.3041 C   0  0  0  0  0  0  0  0  0  0  0  0
   -1.8070   -5.6086   28.1920 O   0  0  0  0  0  0  0  0  0  0  0  0
   10.4296   -5.1799   28.3140 C   0  0  0  0  0  0  0  0  0  0  0  0
    6.6017   -5.9004   26.9187 C   0  0  0  0  0  0  0  0  0  0  0  0
    2.4761   -6.9940   26.4111 N   0  0  0  0  0  0  0  0  0  0  0  0
    9.1353   -5.4053   27.8239 C   0  0  0  0  0  0  0  0  0  0  0  0
    0.9922   -9.3232   16.5995 O   0  0  0  0  0  0  0  0  0  0  0  0
    1.5232   -7.6869   27.1182 C   0  0  0  0  0  0  0  0  0  0  0  0
    8.6878   -6.6715   27.7262 N   0  0  0  0  0  0  0  0  0  0  0  0
    6.9911   -8.2423   27.1808 C   0  0  0  0  0  0  0  0  0  0  0  0
    3.8436   -7.2758   16.0578 C   0  0  0  0  0  0  0  0  0  0  0  0
    3.1882   -9.7190   17.2566 C   0  0  0  0  0  0  0  0  0  0  0  0
    5.3488   -6.1737   26.5092 C   0  0  0  0  0  0  0  0  0  0  0  0
    7.4567   -6.9464   27.2858 C   0  0  0  0  0  0  0  0  0  0  0  0
    0.1921   -5.7592   27.1123 C   0  0  0  0  0  0  0  0  0  0  0  0
    3.5517   -7.7407   25.9711 C   0  0  0  0  0  0  0  0  0  0  0  0
  1  4  4  0
  1 22  4  0
  2 20  4  0
  2 27  4  0
  3 12  4  0
  3 23  4  0
  4 25  4  0
  4 28  1  0
  5  8  4  0
  5 17  4  0
  6  7  4  0
  6 16  4  0
  7 18  4  0
  8 27  4  0
  9 13  4  0
  9 23  4  0
 10 11  1  0
 11 14  2  0
 11 27  1  0
 12 19  1  0
 12 24  4  0
 13 24  4  0
 15 18  1  0
 16 25  4  0
 16 26  4  0
 17 20  4  0
 17 28  1  0
 18 21  4  0
 21 26  4  0
 22 26  4  0
M  END
$$$$

 Created by Python create_sdf_string function

 28 30  0  0  0  0  0  0  0  0999 V2000
    5.7174   -8.4529   26.7190 C   0  0  0  0  0  0  0  0  0  0  0  0
    0.3974   -7.0711   27.5149 C   0  0  0  0  0  0  0  0  0  0  0  0
    2.5338   -7.6891   16.0102 C   0  0  0  0  0  0  0  0  0  0  0  0
    4.8690   -7.4380   26.4151 C   0  0  0  0  0  0  0  0  0  0  0  0
    2.3021   -5.6726   26.0378 C   0  0  0  0  0  0  0  0  0  0  0  0
    7.0880   -4.6163   27.0010 C   0  0  0  0  0  0  0  0  0  0  0  0
    8.3117   -4.3698   27.4436 C   0  0  0  0  0  0  0  0  0  0  0  0
    1.1339   -5.0515   26.3541 C   0  0  0  0  0  0  0  0  0  0  0  0
    4.8080   -8.0362   16.7101 C   0  0  0  0  0  0  0  0  0  0  0  0
   -1.2173   -3.9294   26.9717 O   0  0  0  0  0  0  0  0  0  0  0  0
   -1.0025   -5.0942   27.4586 C   0  0  0  0  0  0  0  0  0  0  0  0
    2.2474   -8.9123   16.6273 C   0  0  0  0  0  0  0  0  0  0  0  0
    4.4957   -9.2636   17.3041 C   0  0  0  0  0  0  0  0  0  0  0  0
   -1.8070   -5.6086   28.1920 O   0  0  0  0  0  0  0  0  0  0  0  0
   10.4296   -5.1799   28.3140 C   0  0  0  0  0  0  0  0  0  0  0  0
    6.6017   -5.9004   26.9187 C   0  0  0  0  0  0  0  0  0  0  0  0
    2.4761   -6.9940   26.4111 N   0  0  0  0  0  0  0  0  0  0  0  0
    9.1353   -5.4053   27.8239 C   0  0  0  0  0  0  0  0  0  0  0  0
    0.9922   -9.3232   16.5995 O   0  0  0  0  0  0  0  0  0  0  0  0
    1.5232   -7.6869   27.1182 C   0  0  0  0  0  0  0  0  0  0  0  0
    8.6878   -6.6715   27.7262 N   0  0  0  0  0  0  0  0  0  0  0  0
    6.9911   -8.2423   27.1808 C   0  0  0  0  0  0  0  0  0  0  0  0
    3.8436   -7.2758   16.0578 C   0  0  0  0  0  0  0  0  0  0  0  0
    3.1882   -9.7190   17.2566 C   0  0  0  0  0  0  0  0  0  0  0  0
    5.3488   -6.1737   26.5092 C   0  0  0  0  0  0  0  0  0  0  0  0
    7.4567   -6.9464   27.2858 C   0  0  0  0  0  0  0  0  0  0  0  0
    0.1921   -5.7592   27.1123 C   0  0  0  0  0  0  0  0  0  0  0  0
    3.5517   -7.7407   25.9711 C   0  0  0  0  0  0  0  0  0  0  0  0
  1  4  4  0
  1 22  4  0
  2 20  4  0
  2 27  4  0
  3 12  4  0
  3 23  4  0
  4 25  4  0
  4 28  1  0
  5  8  4  0
  5 17  4  0
  6  7  4  0
  6 16  4  0
  7 18  4  0
  8 27  4  0
  9 13  4  0
  9 23  4  0
 10 11  1  0
 11 14  2  0
 11 27  1  0
 12 19  1  0
 12 24  4  0
 13 24  4  0
 15 18  1  0
 16 25  4  0
 16 26  4  0
 17 20  4  0
 17 28  1  0
 18 21  4  0
 21 26  4  0
 22 26  4  0
M  END
$$$$

 Created by Python create_sdf_string function

 28 30  0  0  0  0  0  0  0  0999 V2000
    5.7174   -8.4529   26.7190 C   0  0  0  0  0  0  0  0  0  0  0  0
    0.3974   -7.0711   27.5149 C   0  0  0  0  0  0  0  0  0  0  0  0
    2.5338   -7.6891   16.0102 C   0  0  0  0  0  0  0  0  0  0  0  0
    4.8690   -7.4380   26.4151 C   0  0  0  0  0  0  0  0  0  0  0  0
    2.3021   -5.6726   26.0378 C   0  0  0  0  0  0  0  0  0  0  0  0
    7.0880   -4.6163   27.0010 C   0  0  0  0  0  0  0  0  0  0  0  0
    8.3117   -4.3698   27.4436 C   0  0  0  0  0  0  0  0  0  0  0  0
    1.1339   -5.0515   26.3541 C   0  0  0  0  0  0  0  0  0  0  0  0
    4.8080   -8.0362   16.7101 C   0  0  0  0  0  0  0  0  0  0  0  0
   -1.2173   -3.9294   26.9717 O   0  0  0  0  0  0  0  0  0  0  0  0
   -1.0025   -5.0942   27.4586 C   0  0  0  0  0  0  0  0  0  0  0  0
    2.2474   -8.9123   16.6273 C   0  0  0  0  0  0  0  0  0  0  0  0
    4.4957   -9.2636   17.3041 C   0  0  0  0  0  0  0  0  0  0  0  0
   -1.8070   -5.6086   28.1920 O   0  0  0  0  0  0  0  0  0  0  0  0
   10.4296   -5.1799   28.3140 C   0  0  0  0  0  0  0  0  0  0  0  0
    6.6017   -5.9004   26.9187 C   0  0  0  0  0  0  0  0  0  0  0  0
    2.4761   -6.9940   26.4111 N   0  0  0  0  0  0  0  0  0  0  0  0
    9.1353   -5.4053   27.8239 C   0  0  0  0  0  0  0  0  0  0  0  0
    0.9922   -9.3232   16.5995 O   0  0  0  0  0  0  0  0  0  0  0  0
    1.5232   -7.6869   27.1182 C   0  0  0  0  0  0  0  0  0  0  0  0
    8.6878   -6.6715   27.7262 N   0  0  0  0  0  0  0  0  0  0  0  0
    6.9911   -8.2423   27.1808 C   0  0  0  0  0  0  0  0  0  0  0  0
    3.8436   -7.2758   16.0578 C   0  0  0  0  0  0  0  0  0  0  0  0
    3.1882   -9.7190   17.2566 C   0  0  0  0  0  0  0  0  0  0  0  0
    5.3488   -6.1737   26.5092 C   0  0  0  0  0  0  0  0  0  0  0  0
    7.4567   -6.9464   27.2858 C   0  0  0  0  0  0  0  0  0  0  0  0
    0.1921   -5.7592   27.1123 C   0  0  0  0  0  0  0  0  0  0  0  0
    3.5517   -7.7407   25.9711 C   0  0  0  0  0  0  0  0  0  0  0  0
  1  4  4  0
  1 22  4  0
  2 20  4  0
  2 27  4  0
  3 12  4  0
  3 23  4  0
  4 25  4  0
  4 28  1  0
  5  8  4  0
  5 17  4  0
  6  7  4  0
  6 16  4  0
  7 18  4  0
  8 27  4  0
  9 13  4  0
  9 23  4  0
 10 11  1  0
 11 14  2  0
 11 27  1  0
 12 19  1  0
 12 24  4  0
 13 24  4  0
 15 18  1  0
 16 25  4  0
 16 26  4  0
 17 20  4  0
 17 28  1  0
 18 21  4  0
 21 26  4  0
 22 26  4  0
M  END
$$$$

 Created by Python create_sdf_string function

 28 30  0  0  0  0  0  0  0  0999 V2000
    5.7174   -8.4529   26.7190 C   0  0  0  0  0  0  0  0  0  0  0  0
    0.3974   -7.0711   27.5149 C   0  0  0  0  0  0  0  0  0  0  0  0
    2.5338   -7.6891   16.0102 C   0  0  0  0  0  0  0  0  0  0  0  0
    4.8690   -7.4380   26.4151 C   0  0  0  0  0  0  0  0  0  0  0  0
    2.3021   -5.6726   26.0378 C   0  0  0  0  0  0  0  0  0  0  0  0
    7.0880   -4.6163   27.0010 C   0  0  0  0  0  0  0  0  0  0  0  0
    8.3117   -4.3698   27.4436 C   0  0  0  0  0  0  0  0  0  0  0  0
    1.1339   -5.0515   26.3541 C   0  0  0  0  0  0  0  0  0  0  0  0
    4.8080   -8.0362   16.7101 C   0  0  0  0  0  0  0  0  0  0  0  0
   -1.2173   -3.9294   26.9717 O   0  0  0  0  0  0  0  0  0  0  0  0
   -1.0025   -5.0942   27.4586 C   0  0  0  0  0  0  0  0  0  0  0  0
    2.2474   -8.9123   16.6273 C   0  0  0  0  0  0  0  0  0  0  0  0
    4.4957   -9.2636   17.3041 C   0  0  0  0  0  0  0  0  0  0  0  0
   -1.8070   -5.6086   28.1920 O   0  0  0  0  0  0  0  0  0  0  0  0
   10.4296   -5.1799   28.3140 C   0  0  0  0  0  0  0  0  0  0  0  0
    6.6017   -5.9004   26.9187 C   0  0  0  0  0  0  0  0  0  0  0  0
    2.4761   -6.9940   26.4111 N   0  0  0  0  0  0  0  0  0  0  0  0
    9.1353   -5.4053   27.8239 C   0  0  0  0  0  0  0  0  0  0  0  0
    0.9922   -9.3232   16.5995 O   0  0  0  0  0  0  0  0  0  0  0  0
    1.5232   -7.6869   27.1182 C   0  0  0  0  0  0  0  0  0  0  0  0
    8.6878   -6.6715   27.7262 N   0  0  0  0  0  0  0  0  0  0  0  0
    6.9911   -8.2423   27.1808 C   0  0  0  0  0  0  0  0  0  0  0  0
    3.8436   -7.2758   16.0578 C   0  0  0  0  0  0  0  0  0  0  0  0
    3.1882   -9.7190   17.2566 C   0  0  0  0  0  0  0  0  0  0  0  0
    5.3488   -6.1737   26.5092 C   0  0  0  0  0  0  0  0  0  0  0  0
    7.4567   -6.9464   27.2858 C   0  0  0  0  0  0  0  0  0  0  0  0
    0.1921   -5.7592   27.1123 C   0  0  0  0  0  0  0  0  0  0  0  0
    3.5517   -7.7407   25.9711 C   0  0  0  0  0  0  0  0  0  0  0  0
  1  4  4  0
  1 22  4  0
  2 20  4  0
  2 27  4  0
  3 12  4  0
  3 23  4  0
  4 25  4  0
  4 28  1  0
  5  8  4  0
  5 17  4  0
  6  7  4  0
  6 16  4  0
  7 18  4  0
  8 27  4  0
  9 13  4  0
  9 23  4  0
 10 11  1  0
 11 14  2  0
 11 27  1  0
 12 19  1  0
 12 24  4  0
 13 24  4  0
 15 18  1  0
 16 25  4  0
 16 26  4  0
 17 20  4  0
 17 28  1  0
 18 21  4  0
 21 26  4  0
 22 26  4  0
M  END
$$$$

 Created by Python create_sdf_string function

 28 30  0  0  0  0  0  0  0  0999 V2000
    5.7174   -8.4529   26.7190 C   0  0  0  0  0  0  0  0  0  0  0  0
    0.3974   -7.0711   27.5149 C   0  0  0  0  0  0  0  0  0  0  0  0
    2.5338   -7.6891   16.0102 C   0  0  0  0  0  0  0  0  0  0  0  0
    4.8690   -7.4380   26.4151 C   0  0  0  0  0  0  0  0  0  0  0  0
    2.3021   -5.6726   26.0378 C   0  0  0  0  0  0  0  0  0  0  0  0
    7.0880   -4.6163   27.0010 C   0  0  0  0  0  0  0  0  0  0  0  0
    8.3117   -4.3698   27.4436 C   0  0  0  0  0  0  0  0  0  0  0  0
    1.1339   -5.0515   26.3541 C   0  0  0  0  0  0  0  0  0  0  0  0
    4.8080   -8.0362   16.7101 C   0  0  0  0  0  0  0  0  0  0  0  0
   -1.2173   -3.9294   26.9717 O   0  0  0  0  0  0  0  0  0  0  0  0
   -1.0025   -5.0942   27.4586 C   0  0  0  0  0  0  0  0  0  0  0  0
    2.2474   -8.9123   16.6273 C   0  0  0  0  0  0  0  0  0  0  0  0
    4.4957   -9.2636   17.3041 C   0  0  0  0  0  0  0  0  0  0  0  0
   -1.8070   -5.6086   28.1920 O   0  0  0  0  0  0  0  0  0  0  0  0
   10.4296   -5.1799   28.3140 C   0  0  0  0  0  0  0  0  0  0  0  0
    6.6017   -5.9004   26.9187 C   0  0  0  0  0  0  0  0  0  0  0  0
    2.4761   -6.9940   26.4111 N   0  0  0  0  0  0  0  0  0  0  0  0
    9.1353   -5.4053   27.8239 C   0  0  0  0  0  0  0  0  0  0  0  0
    0.9922   -9.3232   16.5995 O   0  0  0  0  0  0  0  0  0  0  0  0
    1.5232   -7.6869   27.1182 C   0  0  0  0  0  0  0  0  0  0  0  0
    8.6878   -6.6715   27.7262 N   0  0  0  0  0  0  0  0  0  0  0  0
    6.9911   -8.2423   27.1808 C   0  0  0  0  0  0  0  0  0  0  0  0
    3.8436   -7.2758   16.0578 C   0  0  0  0  0  0  0  0  0  0  0  0
    3.1882   -9.7190   17.2566 C   0  0  0  0  0  0  0  0  0  0  0  0
    5.3488   -6.1737   26.5092 C   0  0  0  0  0  0  0  0  0  0  0  0
    7.4567   -6.9464   27.2858 C   0  0  0  0  0  0  0  0  0  0  0  0
    0.1921   -5.7592   27.1123 C   0  0  0  0  0  0  0  0  0  0  0  0
    3.5517   -7.7407   25.9711 C   0  0  0  0  0  0  0  0  0  0  0  0
  1  4  4  0
  1 22  4  0
  2 20  4  0
  2 27  4  0
  3 12  4  0
  3 23  4  0
  4 25  4  0
  4 28  1  0
  5  8  4  0
  5 17  4  0
  6  7  4  0
  6 16  4  0
  7 18  4  0
  8 27  4  0
  9 13  4  0
  9 23  4  0
 10 11  1  0
 11 14  2  0
 11 27  1  0
 12 19  1  0
 12 24  4  0
 13 24  4  0
 15 18  1  0
 16 25  4  0
 16 26  4  0
 17 20  4  0
 17 28  1  0
 18 21  4  0
 21 26  4  0
 22 26  4  0
M  END
$$$$

 Created by Python create_sdf_string function

 28 30  0  0  0  0  0  0  0  0999 V2000
    5.7174   -8.4529   26.7190 C   0  0  0  0  0  0  0  0  0  0  0  0
    0.3974   -7.0711   27.5149 C   0  0  0  0  0  0  0  0  0  0  0  0
    2.5338   -7.6891   16.0102 C   0  0  0  0  0  0  0  0  0  0  0  0
    4.8690   -7.4380   26.4151 C   0  0  0  0  0  0  0  0  0  0  0  0
    2.3021   -5.6726   26.0378 C   0  0  0  0  0  0  0  0  0  0  0  0
    7.0880   -4.6163   27.0010 C   0  0  0  0  0  0  0  0  0  0  0  0
    8.3117   -4.3698   27.4436 C   0  0  0  0  0  0  0  0  0  0  0  0
    1.1339   -5.0515   26.3541 C   0  0  0  0  0  0  0  0  0  0  0  0
    4.8080   -8.0362   16.7101 C   0  0  0  0  0  0  0  0  0  0  0  0
   -1.2173   -3.9294   26.9717 O   0  0  0  0  0  0  0  0  0  0  0  0
   -1.0025   -5.0942   27.4586 C   0  0  0  0  0  0  0  0  0  0  0  0
    2.2474   -8.9123   16.6273 C   0  0  0  0  0  0  0  0  0  0  0  0
    4.4957   -9.2636   17.3041 C   0  0  0  0  0  0  0  0  0  0  0  0
   -1.8070   -5.6086   28.1920 O   0  0  0  0  0  0  0  0  0  0  0  0
   10.4296   -5.1799   28.3140 C   0  0  0  0  0  0  0  0  0  0  0  0
    6.6017   -5.9004   26.9187 C   0  0  0  0  0  0  0  0  0  0  0  0
    2.4761   -6.9940   26.4111 N   0  0  0  0  0  0  0  0  0  0  0  0
    9.1353   -5.4053   27.8239 C   0  0  0  0  0  0  0  0  0  0  0  0
    0.9922   -9.3232   16.5995 O   0  0  0  0  0  0  0  0  0  0  0  0
    1.5232   -7.6869   27.1182 C   0  0  0  0  0  0  0  0  0  0  0  0
    8.6878   -6.6715   27.7262 N   0  0  0  0  0  0  0  0  0  0  0  0
    6.9911   -8.2423   27.1808 C   0  0  0  0  0  0  0  0  0  0  0  0
    3.8436   -7.2758   16.0578 C   0  0  0  0  0  0  0  0  0  0  0  0
    3.1882   -9.7190   17.2566 C   0  0  0  0  0  0  0  0  0  0  0  0
    5.3488   -6.1737   26.5092 C   0  0  0  0  0  0  0  0  0  0  0  0
    7.4567   -6.9464   27.2858 C   0  0  0  0  0  0  0  0  0  0  0  0
    0.1921   -5.7592   27.1123 C   0  0  0  0  0  0  0  0  0  0  0  0
    3.5517   -7.7407   25.9711 C   0  0  0  0  0  0  0  0  0  0  0  0
  1  4  4  0
  1 22  4  0
  2 20  4  0
  2 27  4  0
  3 12  4  0
  3 23  4  0
  4 25  4  0
  4 28  1  0
  5  8  4  0
  5 17  4  0
  6  7  4  0
  6 16  4  0
  7 18  4  0
  8 27  4  0
  9 13  4  0
  9 23  4  0
 10 11  1  0
 11 14  2  0
 11 27  1  0
 12 19  1  0
 12 24  4  0
 13 24  4  0
 15 18  1  0
 16 25  4  0
 16 26  4  0
 17 20  4  0
 17 28  1  0
 18 21  4  0
 21 26  4  0
 22 26  4  0
M  END
$$$$

 Created by Python create_sdf_string function

 28 30  0  0  0  0  0  0  0  0999 V2000
    5.7174   -8.4529   26.7190 C   0  0  0  0  0  0  0  0  0  0  0  0
    0.3974   -7.0711   27.5149 C   0  0  0  0  0  0  0  0  0  0  0  0
    2.5338   -7.6891   16.0102 C   0  0  0  0  0  0  0  0  0  0  0  0
    4.8690   -7.4380   26.4151 C   0  0  0  0  0  0  0  0  0  0  0  0
    2.3021   -5.6726   26.0378 C   0  0  0  0  0  0  0  0  0  0  0  0
    7.0880   -4.6163   27.0010 C   0  0  0  0  0  0  0  0  0  0  0  0
    8.3117   -4.3698   27.4436 C   0  0  0  0  0  0  0  0  0  0  0  0
    1.1339   -5.0515   26.3541 C   0  0  0  0  0  0  0  0  0  0  0  0
    4.8080   -8.0362   16.7101 C   0  0  0  0  0  0  0  0  0  0  0  0
   -1.2173   -3.9294   26.9717 O   0  0  0  0  0  0  0  0  0  0  0  0
   -1.0025   -5.0942   27.4586 C   0  0  0  0  0  0  0  0  0  0  0  0
    2.2474   -8.9123   16.6273 C   0  0  0  0  0  0  0  0  0  0  0  0
    4.4957   -9.2636   17.3041 C   0  0  0  0  0  0  0  0  0  0  0  0
   -1.8070   -5.6086   28.1920 O   0  0  0  0  0  0  0  0  0  0  0  0
   10.4296   -5.1799   28.3140 C   0  0  0  0  0  0  0  0  0  0  0  0
    6.6017   -5.9004   26.9187 C   0  0  0  0  0  0  0  0  0  0  0  0
    2.4761   -6.9940   26.4111 N   0  0  0  0  0  0  0  0  0  0  0  0
    9.1353   -5.4053   27.8239 C   0  0  0  0  0  0  0  0  0  0  0  0
    0.9922   -9.3232   16.5995 O   0  0  0  0  0  0  0  0  0  0  0  0
    1.5232   -7.6869   27.1182 C   0  0  0  0  0  0  0  0  0  0  0  0
    8.6878   -6.6715   27.7262 N   0  0  0  0  0  0  0  0  0  0  0  0
    6.9911   -8.2423   27.1808 C   0  0  0  0  0  0  0  0  0  0  0  0
    3.8436   -7.2758   16.0578 C   0  0  0  0  0  0  0  0  0  0  0  0
    3.1882   -9.7190   17.2566 C   0  0  0  0  0  0  0  0  0  0  0  0
    5.3488   -6.1737   26.5092 C   0  0  0  0  0  0  0  0  0  0  0  0
    7.4567   -6.9464   27.2858 C   0  0  0  0  0  0  0  0  0  0  0  0
    0.1921   -5.7592   27.1123 C   0  0  0  0  0  0  0  0  0  0  0  0
    3.5517   -7.7407   25.9711 C   0  0  0  0  0  0  0  0  0  0  0  0
  1  4  4  0
  1 22  4  0
  2 20  4  0
  2 27  4  0
  3 12  4  0
  3 23  4  0
  4 25  4  0
  4 28  1  0
  5  8  4  0
  5 17  4  0
  6  7  4  0
  6 16  4  0
  7 18  4  0
  8 27  4  0
  9 13  4  0
  9 23  4  0
 10 11  1  0
 11 14  2  0
 11 27  1  0
 12 19  1  0
 12 24  4  0
 13 24  4  0
 15 18  1  0
 16 25  4  0
 16 26  4  0
 17 20  4  0
 17 28  1  0
 18 21  4  0
 21 26  4  0
 22 26  4  0
M  END
$$$$

 Created by Python create_sdf_string function

 28 30  0  0  0  0  0  0  0  0999 V2000
    5.7174   -8.4529   26.7190 C   0  0  0  0  0  0  0  0  0  0  0  0
    0.3974   -7.0711   27.5149 C   0  0  0  0  0  0  0  0  0  0  0  0
    2.5338   -7.6891   16.0102 C   0  0  0  0  0  0  0  0  0  0  0  0
    4.8690   -7.4380   26.4151 C   0  0  0  0  0  0  0  0  0  0  0  0
    2.3021   -5.6726   26.0378 C   0  0  0  0  0  0  0  0  0  0  0  0
    7.0880   -4.6163   27.0010 C   0  0  0  0  0  0  0  0  0  0  0  0
    8.3117   -4.3698   27.4436 C   0  0  0  0  0  0  0  0  0  0  0  0
    1.1339   -5.0515   26.3541 C   0  0  0  0  0  0  0  0  0  0  0  0
    4.8080   -8.0362   16.7101 C   0  0  0  0  0  0  0  0  0  0  0  0
   -1.2173   -3.9294   26.9717 O   0  0  0  0  0  0  0  0  0  0  0  0
   -1.0025   -5.0942   27.4586 C   0  0  0  0  0  0  0  0  0  0  0  0
    2.2474   -8.9123   16.6273 C   0  0  0  0  0  0  0  0  0  0  0  0
    4.4957   -9.2636   17.3041 C   0  0  0  0  0  0  0  0  0  0  0  0
   -1.8070   -5.6086   28.1920 O   0  0  0  0  0  0  0  0  0  0  0  0
   10.4296   -5.1799   28.3140 C   0  0  0  0  0  0  0  0  0  0  0  0
    6.6017   -5.9004   26.9187 C   0  0  0  0  0  0  0  0  0  0  0  0
    2.4761   -6.9940   26.4111 N   0  0  0  0  0  0  0  0  0  0  0  0
    9.1353   -5.4053   27.8239 C   0  0  0  0  0  0  0  0  0  0  0  0
    0.9922   -9.3232   16.5995 O   0  0  0  0  0  0  0  0  0  0  0  0
    1.5232   -7.6869   27.1182 C   0  0  0  0  0  0  0  0  0  0  0  0
    8.6878   -6.6715   27.7262 N   0  0  0  0  0  0  0  0  0  0  0  0
    6.9911   -8.2423   27.1808 C   0  0  0  0  0  0  0  0  0  0  0  0
    3.8436   -7.2758   16.0578 C   0  0  0  0  0  0  0  0  0  0  0  0
    3.1882   -9.7190   17.2566 C   0  0  0  0  0  0  0  0  0  0  0  0
    5.3488   -6.1737   26.5092 C   0  0  0  0  0  0  0  0  0  0  0  0
    7.4567   -6.9464   27.2858 C   0  0  0  0  0  0  0  0  0  0  0  0
    0.1921   -5.7592   27.1123 C   0  0  0  0  0  0  0  0  0  0  0  0
    3.5517   -7.7407   25.9711 C   0  0  0  0  0  0  0  0  0  0  0  0
  1  4  4  0
  1 22  4  0
  2 20  4  0
  2 27  4  0
  3 12  4  0
  3 23  4  0
  4 25  4  0
  4 28  1  0
  5  8  4  0
  5 17  4  0
  6  7  4  0
  6 16  4  0
  7 18  4  0
  8 27  4  0
  9 13  4  0
  9 23  4  0
 10 11  1  0
 11 14  2  0
 11 27  1  0
 12 19  1  0
 12 24  4  0
 13 24  4  0
 15 18  1  0
 16 25  4  0
 16 26  4  0
 17 20  4  0
 17 28  1  0
 18 21  4  0
 21 26  4  0
 22 26  4  0
M  END
$$$$

 Created by Python create_sdf_string function

 28 30  0  0  0  0  0  0  0  0999 V2000
    5.7174   -8.4529   26.7190 C   0  0  0  0  0  0  0  0  0  0  0  0
    0.3974   -7.0711   27.5149 C   0  0  0  0  0  0  0  0  0  0  0  0
    2.5338   -7.6891   16.0102 C   0  0  0  0  0  0  0  0  0  0  0  0
    4.8690   -7.4380   26.4151 C   0  0  0  0  0  0  0  0  0  0  0  0
    2.3021   -5.6726   26.0378 C   0  0  0  0  0  0  0  0  0  0  0  0
    7.0880   -4.6163   27.0010 C   0  0  0  0  0  0  0  0  0  0  0  0
    8.3117   -4.3698   27.4436 C   0  0  0  0  0  0  0  0  0  0  0  0
    1.1339   -5.0515   26.3541 C   0  0  0  0  0  0  0  0  0  0  0  0
    4.8080   -8.0362   16.7101 C   0  0  0  0  0  0  0  0  0  0  0  0
   -1.2173   -3.9294   26.9717 O   0  0  0  0  0  0  0  0  0  0  0  0
   -1.0025   -5.0942   27.4586 C   0  0  0  0  0  0  0  0  0  0  0  0
    2.2474   -8.9123   16.6273 C   0  0  0  0  0  0  0  0  0  0  0  0
    4.4957   -9.2636   17.3041 C   0  0  0  0  0  0  0  0  0  0  0  0
   -1.8070   -5.6086   28.1920 O   0  0  0  0  0  0  0  0  0  0  0  0
   10.4296   -5.1799   28.3140 C   0  0  0  0  0  0  0  0  0  0  0  0
    6.6017   -5.9004   26.9187 C   0  0  0  0  0  0  0  0  0  0  0  0
    2.4761   -6.9940   26.4111 N   0  0  0  0  0  0  0  0  0  0  0  0
    9.1353   -5.4053   27.8239 C   0  0  0  0  0  0  0  0  0  0  0  0
    0.9922   -9.3232   16.5995 O   0  0  0  0  0  0  0  0  0  0  0  0
    1.5232   -7.6869   27.1182 C   0  0  0  0  0  0  0  0  0  0  0  0
    8.6878   -6.6715   27.7262 N   0  0  0  0  0  0  0  0  0  0  0  0
    6.9911   -8.2423   27.1808 C   0  0  0  0  0  0  0  0  0  0  0  0
    3.8436   -7.2758   16.0578 C   0  0  0  0  0  0  0  0  0  0  0  0
    3.1882   -9.7190   17.2566 C   0  0  0  0  0  0  0  0  0  0  0  0
    5.3488   -6.1737   26.5092 C   0  0  0  0  0  0  0  0  0  0  0  0
    7.4567   -6.9464   27.2858 C   0  0  0  0  0  0  0  0  0  0  0  0
    0.1921   -5.7592   27.1123 C   0  0  0  0  0  0  0  0  0  0  0  0
    3.5517   -7.7407   25.9711 C   0  0  0  0  0  0  0  0  0  0  0  0
  1  4  4  0
  1 22  4  0
  2 20  4  0
  2 27  4  0
  3 12  4  0
  3 23  4  0
  4 25  4  0
  4 28  1  0
  5  8  4  0
  5 17  4  0
  6  7  4  0
  6 16  4  0
  7 18  4  0
  8 27  4  0
  9 13  4  0
  9 23  4  0
 10 11  1  0
 11 14  2  0
 11 27  1  0
 12 19  1  0
 12 24  4  0
 13 24  4  0
 15 18  1  0
 16 25  4  0
 16 26  4  0
 17 20  4  0
 17 28  1  0
 18 21  4  0
 21 26  4  0
 22 26  4  0
M  END
$$$$

 Created by Python create_sdf_string function

 28 30  0  0  0  0  0  0  0  0999 V2000
    5.7174   -8.4529   26.7190 C   0  0  0  0  0  0  0  0  0  0  0  0
    0.3974   -7.0711   27.5149 C   0  0  0  0  0  0  0  0  0  0  0  0
    2.5338   -7.6891   16.0102 C   0  0  0  0  0  0  0  0  0  0  0  0
    4.8690   -7.4380   26.4151 C   0  0  0  0  0  0  0  0  0  0  0  0
    2.3021   -5.6726   26.0378 C   0  0  0  0  0  0  0  0  0  0  0  0
    7.0880   -4.6163   27.0010 C   0  0  0  0  0  0  0  0  0  0  0  0
    8.3117   -4.3698   27.4436 C   0  0  0  0  0  0  0  0  0  0  0  0
    1.1339   -5.0515   26.3541 C   0  0  0  0  0  0  0  0  0  0  0  0
    4.8080   -8.0362   16.7101 C   0  0  0  0  0  0  0  0  0  0  0  0
   -1.2173   -3.9294   26.9717 O   0  0  0  0  0  0  0  0  0  0  0  0
   -1.0025   -5.0942   27.4586 C   0  0  0  0  0  0  0  0  0  0  0  0
    2.2474   -8.9123   16.6273 C   0  0  0  0  0  0  0  0  0  0  0  0
    4.4957   -9.2636   17.3041 C   0  0  0  0  0  0  0  0  0  0  0  0
   -1.8070   -5.6086   28.1920 O   0  0  0  0  0  0  0  0  0  0  0  0
   10.4296   -5.1799   28.3140 C   0  0  0  0  0  0  0  0  0  0  0  0
    6.6017   -5.9004   26.9187 C   0  0  0  0  0  0  0  0  0  0  0  0
    2.4761   -6.9940   26.4111 N   0  0  0  0  0  0  0  0  0  0  0  0
    9.1353   -5.4053   27.8239 C   0  0  0  0  0  0  0  0  0  0  0  0
    0.9922   -9.3232   16.5995 O   0  0  0  0  0  0  0  0  0  0  0  0
    1.5232   -7.6869   27.1182 C   0  0  0  0  0  0  0  0  0  0  0  0
    8.6878   -6.6715   27.7262 N   0  0  0  0  0  0  0  0  0  0  0  0
    6.9911   -8.2423   27.1808 C   0  0  0  0  0  0  0  0  0  0  0  0
    3.8436   -7.2758   16.0578 C   0  0  0  0  0  0  0  0  0  0  0  0
    3.1882   -9.7190   17.2566 C   0  0  0  0  0  0  0  0  0  0  0  0
    5.3488   -6.1737   26.5092 C   0  0  0  0  0  0  0  0  0  0  0  0
    7.4567   -6.9464   27.2858 C   0  0  0  0  0  0  0  0  0  0  0  0
    0.1921   -5.7592   27.1123 C   0  0  0  0  0  0  0  0  0  0  0  0
    3.5517   -7.7407   25.9711 C   0  0  0  0  0  0  0  0  0  0  0  0
  1  4  4  0
  1 22  4  0
  2 20  4  0
  2 27  4  0
  3 12  4  0
  3 23  4  0
  4 25  4  0
  4 28  1  0
  5  8  4  0
  5 17  4  0
  6  7  4  0
  6 16  4  0
  7 18  4  0
  8 27  4  0
  9 13  4  0
  9 23  4  0
 10 11  1  0
 11 14  2  0
 11 27  1  0
 12 19  1  0
 12 24  4  0
 13 24  4  0
 15 18  1  0
 16 25  4  0
 16 26  4  0
 17 20  4  0
 17 28  1  0
 18 21  4  0
 21 26  4  0
 22 26  4  0
M  END
$$$$

 Created by Python create_sdf_string function

 28 30  0  0  0  0  0  0  0  0999 V2000
    5.7174   -8.4529   26.7190 C   0  0  0  0  0  0  0  0  0  0  0  0
    0.3974   -7.0711   27.5149 C   0  0  0  0  0  0  0  0  0  0  0  0
    2.5338   -7.6891   16.0102 C   0  0  0  0  0  0  0  0  0  0  0  0
    4.8690   -7.4380   26.4151 C   0  0  0  0  0  0  0  0  0  0  0  0
    2.3021   -5.6726   26.0378 C   0  0  0  0  0  0  0  0  0  0  0  0
    7.0880   -4.6163   27.0010 C   0  0  0  0  0  0  0  0  0  0  0  0
    8.3117   -4.3698   27.4436 C   0  0  0  0  0  0  0  0  0  0  0  0
    1.1339   -5.0515   26.3541 C   0  0  0  0  0  0  0  0  0  0  0  0
    4.8080   -8.0362   16.7101 C   0  0  0  0  0  0  0  0  0  0  0  0
   -1.2173   -3.9294   26.9717 O   0  0  0  0  0  0  0  0  0  0  0  0
   -1.0025   -5.0942   27.4586 C   0  0  0  0  0  0  0  0  0  0  0  0
    2.2474   -8.9123   16.6273 C   0  0  0  0  0  0  0  0  0  0  0  0
    4.4957   -9.2636   17.3041 C   0  0  0  0  0  0  0  0  0  0  0  0
   -1.8070   -5.6086   28.1920 O   0  0  0  0  0  0  0  0  0  0  0  0
   10.4296   -5.1799   28.3140 C   0  0  0  0  0  0  0  0  0  0  0  0
    6.6017   -5.9004   26.9187 C   0  0  0  0  0  0  0  0  0  0  0  0
    2.4761   -6.9940   26.4111 N   0  0  0  0  0  0  0  0  0  0  0  0
    9.1353   -5.4053   27.8239 C   0  0  0  0  0  0  0  0  0  0  0  0
    0.9922   -9.3232   16.5995 O   0  0  0  0  0  0  0  0  0  0  0  0
    1.5232   -7.6869   27.1182 C   0  0  0  0  0  0  0  0  0  0  0  0
    8.6878   -6.6715   27.7262 N   0  0  0  0  0  0  0  0  0  0  0  0
    6.9911   -8.2423   27.1808 C   0  0  0  0  0  0  0  0  0  0  0  0
    3.8436   -7.2758   16.0578 C   0  0  0  0  0  0  0  0  0  0  0  0
    3.1882   -9.7190   17.2566 C   0  0  0  0  0  0  0  0  0  0  0  0
    5.3488   -6.1737   26.5092 C   0  0  0  0  0  0  0  0  0  0  0  0
    7.4567   -6.9464   27.2858 C   0  0  0  0  0  0  0  0  0  0  0  0
    0.1921   -5.7592   27.1123 C   0  0  0  0  0  0  0  0  0  0  0  0
    3.5517   -7.7407   25.9711 C   0  0  0  0  0  0  0  0  0  0  0  0
  1  4  4  0
  1 22  4  0
  2 20  4  0
  2 27  4  0
  3 12  4  0
  3 23  4  0
  4 25  4  0
  4 28  1  0
  5  8  4  0
  5 17  4  0
  6  7  4  0
  6 16  4  0
  7 18  4  0
  8 27  4  0
  9 13  4  0
  9 23  4  0
 10 11  1  0
 11 14  2  0
 11 27  1  0
 12 19  1  0
 12 24  4  0
 13 24  4  0
 15 18  1  0
 16 25  4  0
 16 26  4  0
 17 20  4  0
 17 28  1  0
 18 21  4  0
 21 26  4  0
 22 26  4  0
M  END
$$$$

 Created by Python create_sdf_string function

 28 30  0  0  0  0  0  0  0  0999 V2000
    5.7174   -8.4529   26.7190 C   0  0  0  0  0  0  0  0  0  0  0  0
    0.3974   -7.0711   27.5149 C   0  0  0  0  0  0  0  0  0  0  0  0
    2.5338   -7.6891   16.0102 C   0  0  0  0  0  0  0  0  0  0  0  0
    4.8690   -7.4380   26.4151 C   0  0  0  0  0  0  0  0  0  0  0  0
    2.3021   -5.6726   26.0378 C   0  0  0  0  0  0  0  0  0  0  0  0
    7.0880   -4.6163   27.0010 C   0  0  0  0  0  0  0  0  0  0  0  0
    8.3117   -4.3698   27.4436 C   0  0  0  0  0  0  0  0  0  0  0  0
    1.1339   -5.0515   26.3541 C   0  0  0  0  0  0  0  0  0  0  0  0
    4.8080   -8.0362   16.7101 C   0  0  0  0  0  0  0  0  0  0  0  0
   -1.2173   -3.9294   26.9717 O   0  0  0  0  0  0  0  0  0  0  0  0
   -1.0025   -5.0942   27.4586 C   0  0  0  0  0  0  0  0  0  0  0  0
    2.2474   -8.9123   16.6273 C   0  0  0  0  0  0  0  0  0  0  0  0
    4.4957   -9.2636   17.3041 C   0  0  0  0  0  0  0  0  0  0  0  0
   -1.8070   -5.6086   28.1920 O   0  0  0  0  0  0  0  0  0  0  0  0
   10.4296   -5.1799   28.3140 C   0  0  0  0  0  0  0  0  0  0  0  0
    6.6017   -5.9004   26.9187 C   0  0  0  0  0  0  0  0  0  0  0  0
    2.4761   -6.9940   26.4111 N   0  0  0  0  0  0  0  0  0  0  0  0
    9.1353   -5.4053   27.8239 C   0  0  0  0  0  0  0  0  0  0  0  0
    0.9922   -9.3232   16.5995 O   0  0  0  0  0  0  0  0  0  0  0  0
    1.5232   -7.6869   27.1182 C   0  0  0  0  0  0  0  0  0  0  0  0
    8.6878   -6.6715   27.7262 N   0  0  0  0  0  0  0  0  0  0  0  0
    6.9911   -8.2423   27.1808 C   0  0  0  0  0  0  0  0  0  0  0  0
    3.8436   -7.2758   16.0578 C   0  0  0  0  0  0  0  0  0  0  0  0
    3.1882   -9.7190   17.2566 C   0  0  0  0  0  0  0  0  0  0  0  0
    5.3488   -6.1737   26.5092 C   0  0  0  0  0  0  0  0  0  0  0  0
    7.4567   -6.9464   27.2858 C   0  0  0  0  0  0  0  0  0  0  0  0
    0.1921   -5.7592   27.1123 C   0  0  0  0  0  0  0  0  0  0  0  0
    3.5517   -7.7407   25.9711 C   0  0  0  0  0  0  0  0  0  0  0  0
  1  4  4  0
  1 22  4  0
  2 20  4  0
  2 27  4  0
  3 12  4  0
  3 23  4  0
  4 25  4  0
  4 28  1  0
  5  8  4  0
  5 17  4  0
  6  7  4  0
  6 16  4  0
  7 18  4  0
  8 27  4  0
  9 13  4  0
  9 23  4  0
 10 11  1  0
 11 14  2  0
 11 27  1  0
 12 19  1  0
 12 24  4  0
 13 24  4  0
 15 18  1  0
 16 25  4  0
 16 26  4  0
 17 20  4  0
 17 28  1  0
 18 21  4  0
 21 26  4  0
 22 26  4  0
M  END
$$$$

 Created by Python create_sdf_string function

 28 30  0  0  0  0  0  0  0  0999 V2000
    5.7174   -8.4529   26.7190 C   0  0  0  0  0  0  0  0  0  0  0  0
    0.3974   -7.0711   27.5149 C   0  0  0  0  0  0  0  0  0  0  0  0
    2.5338   -7.6891   16.0102 C   0  0  0  0  0  0  0  0  0  0  0  0
    4.8690   -7.4380   26.4151 C   0  0  0  0  0  0  0  0  0  0  0  0
    2.3021   -5.6726   26.0378 C   0  0  0  0  0  0  0  0  0  0  0  0
    7.0880   -4.6163   27.0010 C   0  0  0  0  0  0  0  0  0  0  0  0
    8.3117   -4.3698   27.4436 C   0  0  0  0  0  0  0  0  0  0  0  0
    1.1339   -5.0515   26.3541 C   0  0  0  0  0  0  0  0  0  0  0  0
    4.8080   -8.0362   16.7101 C   0  0  0  0  0  0  0  0  0  0  0  0
   -1.2173   -3.9294   26.9717 O   0  0  0  0  0  0  0  0  0  0  0  0
   -1.0025   -5.0942   27.4586 C   0  0  0  0  0  0  0  0  0  0  0  0
    2.2474   -8.9123   16.6273 C   0  0  0  0  0  0  0  0  0  0  0  0
    4.4957   -9.2636   17.3041 C   0  0  0  0  0  0  0  0  0  0  0  0
   -1.8070   -5.6086   28.1920 O   0  0  0  0  0  0  0  0  0  0  0  0
   10.4296   -5.1799   28.3140 C   0  0  0  0  0  0  0  0  0  0  0  0
    6.6017   -5.9004   26.9187 C   0  0  0  0  0  0  0  0  0  0  0  0
    2.4761   -6.9940   26.4111 N   0  0  0  0  0  0  0  0  0  0  0  0
    9.1353   -5.4053   27.8239 C   0  0  0  0  0  0  0  0  0  0  0  0
    0.9922   -9.3232   16.5995 O   0  0  0  0  0  0  0  0  0  0  0  0
    1.5232   -7.6869   27.1182 C   0  0  0  0  0  0  0  0  0  0  0  0
    8.6878   -6.6715   27.7262 N   0  0  0  0  0  0  0  0  0  0  0  0
    6.9911   -8.2423   27.1808 C   0  0  0  0  0  0  0  0  0  0  0  0
    3.8436   -7.2758   16.0578 C   0  0  0  0  0  0  0  0  0  0  0  0
    3.1882   -9.7190   17.2566 C   0  0  0  0  0  0  0  0  0  0  0  0
    5.3488   -6.1737   26.5092 C   0  0  0  0  0  0  0  0  0  0  0  0
    7.4567   -6.9464   27.2858 C   0  0  0  0  0  0  0  0  0  0  0  0
    0.1921   -5.7592   27.1123 C   0  0  0  0  0  0  0  0  0  0  0  0
    3.5517   -7.7407   25.9711 C   0  0  0  0  0  0  0  0  0  0  0  0
  1  4  4  0
  1 22  4  0
  2 20  4  0
  2 27  4  0
  3 12  4  0
  3 23  4  0
  4 25  4  0
  4 28  1  0
  5  8  4  0
  5 17  4  0
  6  7  4  0
  6 16  4  0
  7 18  4  0
  8 27  4  0
  9 13  4  0
  9 23  4  0
 10 11  1  0
 11 14  2  0
 11 27  1  0
 12 19  1  0
 12 24  4  0
 13 24  4  0
 15 18  1  0
 16 25  4  0
 16 26  4  0
 17 20  4  0
 17 28  1  0
 18 21  4  0
 21 26  4  0
 22 26  4  0
M  END
$$$$

 Created by Python create_sdf_string function

 28 30  0  0  0  0  0  0  0  0999 V2000
    5.7174   -8.4529   26.7190 C   0  0  0  0  0  0  0  0  0  0  0  0
    0.3974   -7.0711   27.5149 C   0  0  0  0  0  0  0  0  0  0  0  0
    2.5338   -7.6891   16.0102 C   0  0  0  0  0  0  0  0  0  0  0  0
    4.8690   -7.4380   26.4151 C   0  0  0  0  0  0  0  0  0  0  0  0
    2.3021   -5.6726   26.0378 C   0  0  0  0  0  0  0  0  0  0  0  0
    7.0880   -4.6163   27.0010 C   0  0  0  0  0  0  0  0  0  0  0  0
    8.3117   -4.3698   27.4436 C   0  0  0  0  0  0  0  0  0  0  0  0
    1.1339   -5.0515   26.3541 C   0  0  0  0  0  0  0  0  0  0  0  0
    4.8080   -8.0362   16.7101 C   0  0  0  0  0  0  0  0  0  0  0  0
   -1.2173   -3.9294   26.9717 O   0  0  0  0  0  0  0  0  0  0  0  0
   -1.0025   -5.0942   27.4586 C   0  0  0  0  0  0  0  0  0  0  0  0
    2.2474   -8.9123   16.6273 C   0  0  0  0  0  0  0  0  0  0  0  0
    4.4957   -9.2636   17.3041 C   0  0  0  0  0  0  0  0  0  0  0  0
   -1.8070   -5.6086   28.1920 O   0  0  0  0  0  0  0  0  0  0  0  0
   10.4296   -5.1799   28.3140 C   0  0  0  0  0  0  0  0  0  0  0  0
    6.6017   -5.9004   26.9187 C   0  0  0  0  0  0  0  0  0  0  0  0
    2.4761   -6.9940   26.4111 N   0  0  0  0  0  0  0  0  0  0  0  0
    9.1353   -5.4053   27.8239 C   0  0  0  0  0  0  0  0  0  0  0  0
    0.9922   -9.3232   16.5995 O   0  0  0  0  0  0  0  0  0  0  0  0
    1.5232   -7.6869   27.1182 C   0  0  0  0  0  0  0  0  0  0  0  0
    8.6878   -6.6715   27.7262 N   0  0  0  0  0  0  0  0  0  0  0  0
    6.9911   -8.2423   27.1808 C   0  0  0  0  0  0  0  0  0  0  0  0
    3.8436   -7.2758   16.0578 C   0  0  0  0  0  0  0  0  0  0  0  0
    3.1882   -9.7190   17.2566 C   0  0  0  0  0  0  0  0  0  0  0  0
    5.3488   -6.1737   26.5092 C   0  0  0  0  0  0  0  0  0  0  0  0
    7.4567   -6.9464   27.2858 C   0  0  0  0  0  0  0  0  0  0  0  0
    0.1921   -5.7592   27.1123 C   0  0  0  0  0  0  0  0  0  0  0  0
    3.5517   -7.7407   25.9711 C   0  0  0  0  0  0  0  0  0  0  0  0
  1  4  4  0
  1 22  4  0
  2 20  4  0
  2 27  4  0
  3 12  4  0
  3 23  4  0
  4 25  4  0
  4 28  1  0
  5  8  4  0
  5 17  4  0
  6  7  4  0
  6 16  4  0
  7 18  4  0
  8 27  4  0
  9 13  4  0
  9 23  4  0
 10 11  1  0
 11 14  2  0
 11 27  1  0
 12 19  1  0
 12 24  4  0
 13 24  4  0
 15 18  1  0
 16 25  4  0
 16 26  4  0
 17 20  4  0
 17 28  1  0
 18 21  4  0
 21 26  4  0
 22 26  4  0
M  END
$$$$

 Created by Python create_sdf_string function

 28 30  0  0  0  0  0  0  0  0999 V2000
    5.7174   -8.4529   26.7190 C   0  0  0  0  0  0  0  0  0  0  0  0
    0.3974   -7.0711   27.5149 C   0  0  0  0  0  0  0  0  0  0  0  0
    2.5338   -7.6891   16.0102 C   0  0  0  0  0  0  0  0  0  0  0  0
    4.8690   -7.4380   26.4151 C   0  0  0  0  0  0  0  0  0  0  0  0
    2.3021   -5.6726   26.0378 C   0  0  0  0  0  0  0  0  0  0  0  0
    7.0880   -4.6163   27.0010 C   0  0  0  0  0  0  0  0  0  0  0  0
    8.3117   -4.3698   27.4436 C   0  0  0  0  0  0  0  0  0  0  0  0
    1.1339   -5.0515   26.3541 C   0  0  0  0  0  0  0  0  0  0  0  0
    4.8080   -8.0362   16.7101 C   0  0  0  0  0  0  0  0  0  0  0  0
   -1.2173   -3.9294   26.9717 O   0  0  0  0  0  0  0  0  0  0  0  0
   -1.0025   -5.0942   27.4586 C   0  0  0  0  0  0  0  0  0  0  0  0
    2.2474   -8.9123   16.6273 C   0  0  0  0  0  0  0  0  0  0  0  0
    4.4957   -9.2636   17.3041 C   0  0  0  0  0  0  0  0  0  0  0  0
   -1.8070   -5.6086   28.1920 O   0  0  0  0  0  0  0  0  0  0  0  0
   10.4296   -5.1799   28.3140 C   0  0  0  0  0  0  0  0  0  0  0  0
    6.6017   -5.9004   26.9187 C   0  0  0  0  0  0  0  0  0  0  0  0
    2.4761   -6.9940   26.4111 N   0  0  0  0  0  0  0  0  0  0  0  0
    9.1353   -5.4053   27.8239 C   0  0  0  0  0  0  0  0  0  0  0  0
    0.9922   -9.3232   16.5995 O   0  0  0  0  0  0  0  0  0  0  0  0
    1.5232   -7.6869   27.1182 C   0  0  0  0  0  0  0  0  0  0  0  0
    8.6878   -6.6715   27.7262 N   0  0  0  0  0  0  0  0  0  0  0  0
    6.9911   -8.2423   27.1808 C   0  0  0  0  0  0  0  0  0  0  0  0
    3.8436   -7.2758   16.0578 C   0  0  0  0  0  0  0  0  0  0  0  0
    3.1882   -9.7190   17.2566 C   0  0  0  0  0  0  0  0  0  0  0  0
    5.3488   -6.1737   26.5092 C   0  0  0  0  0  0  0  0  0  0  0  0
    7.4567   -6.9464   27.2858 C   0  0  0  0  0  0  0  0  0  0  0  0
    0.1921   -5.7592   27.1123 C   0  0  0  0  0  0  0  0  0  0  0  0
    3.5517   -7.7407   25.9711 C   0  0  0  0  0  0  0  0  0  0  0  0
  1  4  4  0
  1 22  4  0
  2 20  4  0
  2 27  4  0
  3 12  4  0
  3 23  4  0
  4 25  4  0
  4 28  1  0
  5  8  4  0
  5 17  4  0
  6  7  4  0
  6 16  4  0
  7 18  4  0
  8 27  4  0
  9 13  4  0
  9 23  4  0
 10 11  1  0
 11 14  2  0
 11 27  1  0
 12 19  1  0
 12 24  4  0
 13 24  4  0
 15 18  1  0
 16 25  4  0
 16 26  4  0
 17 20  4  0
 17 28  1  0
 18 21  4  0
 21 26  4  0
 22 26  4  0
M  END
$$$$

 Created by Python create_sdf_string function

 28 30  0  0  0  0  0  0  0  0999 V2000
    5.7174   -8.4529   26.7190 C   0  0  0  0  0  0  0  0  0  0  0  0
    0.3974   -7.0711   27.5149 C   0  0  0  0  0  0  0  0  0  0  0  0
    2.5338   -7.6891   16.0102 C   0  0  0  0  0  0  0  0  0  0  0  0
    4.8690   -7.4380   26.4151 C   0  0  0  0  0  0  0  0  0  0  0  0
    2.3021   -5.6726   26.0378 C   0  0  0  0  0  0  0  0  0  0  0  0
    7.0880   -4.6163   27.0010 C   0  0  0  0  0  0  0  0  0  0  0  0
    8.3117   -4.3698   27.4436 C   0  0  0  0  0  0  0  0  0  0  0  0
    1.1339   -5.0515   26.3541 C   0  0  0  0  0  0  0  0  0  0  0  0
    4.8080   -8.0362   16.7101 C   0  0  0  0  0  0  0  0  0  0  0  0
   -1.2173   -3.9294   26.9717 O   0  0  0  0  0  0  0  0  0  0  0  0
   -1.0025   -5.0942   27.4586 C   0  0  0  0  0  0  0  0  0  0  0  0
    2.2474   -8.9123   16.6273 C   0  0  0  0  0  0  0  0  0  0  0  0
    4.4957   -9.2636   17.3041 C   0  0  0  0  0  0  0  0  0  0  0  0
   -1.8070   -5.6086   28.1920 O   0  0  0  0  0  0  0  0  0  0  0  0
   10.4296   -5.1799   28.3140 C   0  0  0  0  0  0  0  0  0  0  0  0
    6.6017   -5.9004   26.9187 C   0  0  0  0  0  0  0  0  0  0  0  0
    2.4761   -6.9940   26.4111 N   0  0  0  0  0  0  0  0  0  0  0  0
    9.1353   -5.4053   27.8239 C   0  0  0  0  0  0  0  0  0  0  0  0
    0.9922   -9.3232   16.5995 O   0  0  0  0  0  0  0  0  0  0  0  0
    1.5232   -7.6869   27.1182 C   0  0  0  0  0  0  0  0  0  0  0  0
    8.6878   -6.6715   27.7262 N   0  0  0  0  0  0  0  0  0  0  0  0
    6.9911   -8.2423   27.1808 C   0  0  0  0  0  0  0  0  0  0  0  0
    3.8436   -7.2758   16.0578 C   0  0  0  0  0  0  0  0  0  0  0  0
    3.1882   -9.7190   17.2566 C   0  0  0  0  0  0  0  0  0  0  0  0
    5.3488   -6.1737   26.5092 C   0  0  0  0  0  0  0  0  0  0  0  0
    7.4567   -6.9464   27.2858 C   0  0  0  0  0  0  0  0  0  0  0  0
    0.1921   -5.7592   27.1123 C   0  0  0  0  0  0  0  0  0  0  0  0
    3.5517   -7.7407   25.9711 C   0  0  0  0  0  0  0  0  0  0  0  0
  1  4  4  0
  1 22  4  0
  2 20  4  0
  2 27  4  0
  3 12  4  0
  3 23  4  0
  4 25  4  0
  4 28  1  0
  5  8  4  0
  5 17  4  0
  6  7  4  0
  6 16  4  0
  7 18  4  0
  8 27  4  0
  9 13  4  0
  9 23  4  0
 10 11  1  0
 11 14  2  0
 11 27  1  0
 12 19  1  0
 12 24  4  0
 13 24  4  0
 15 18  1  0
 16 25  4  0
 16 26  4  0
 17 20  4  0
 17 28  1  0
 18 21  4  0
 21 26  4  0
 22 26  4  0
M  END
$$$$

 Created by Python create_sdf_string function

 28 30  0  0  0  0  0  0  0  0999 V2000
    5.7174   -8.4529   26.7190 C   0  0  0  0  0  0  0  0  0  0  0  0
    0.3974   -7.0711   27.5149 C   0  0  0  0  0  0  0  0  0  0  0  0
    2.5338   -7.6891   16.0102 C   0  0  0  0  0  0  0  0  0  0  0  0
    4.8690   -7.4380   26.4151 C   0  0  0  0  0  0  0  0  0  0  0  0
    2.3021   -5.6726   26.0378 C   0  0  0  0  0  0  0  0  0  0  0  0
    7.0880   -4.6163   27.0010 C   0  0  0  0  0  0  0  0  0  0  0  0
    8.3117   -4.3698   27.4436 C   0  0  0  0  0  0  0  0  0  0  0  0
    1.1339   -5.0515   26.3541 C   0  0  0  0  0  0  0  0  0  0  0  0
    4.8080   -8.0362   16.7101 C   0  0  0  0  0  0  0  0  0  0  0  0
   -1.2173   -3.9294   26.9717 O   0  0  0  0  0  0  0  0  0  0  0  0
   -1.0025   -5.0942   27.4586 C   0  0  0  0  0  0  0  0  0  0  0  0
    2.2474   -8.9123   16.6273 C   0  0  0  0  0  0  0  0  0  0  0  0
    4.4957   -9.2636   17.3041 C   0  0  0  0  0  0  0  0  0  0  0  0
   -1.8070   -5.6086   28.1920 O   0  0  0  0  0  0  0  0  0  0  0  0
   10.4296   -5.1799   28.3140 C   0  0  0  0  0  0  0  0  0  0  0  0
    6.6017   -5.9004   26.9187 C   0  0  0  0  0  0  0  0  0  0  0  0
    2.4761   -6.9940   26.4111 N   0  0  0  0  0  0  0  0  0  0  0  0
    9.1353   -5.4053   27.8239 C   0  0  0  0  0  0  0  0  0  0  0  0
    0.9922   -9.3232   16.5995 O   0  0  0  0  0  0  0  0  0  0  0  0
    1.5232   -7.6869   27.1182 C   0  0  0  0  0  0  0  0  0  0  0  0
    8.6878   -6.6715   27.7262 N   0  0  0  0  0  0  0  0  0  0  0  0
    6.9911   -8.2423   27.1808 C   0  0  0  0  0  0  0  0  0  0  0  0
    3.8436   -7.2758   16.0578 C   0  0  0  0  0  0  0  0  0  0  0  0
    3.1882   -9.7190   17.2566 C   0  0  0  0  0  0  0  0  0  0  0  0
    5.3488   -6.1737   26.5092 C   0  0  0  0  0  0  0  0  0  0  0  0
    7.4567   -6.9464   27.2858 C   0  0  0  0  0  0  0  0  0  0  0  0
    0.1921   -5.7592   27.1123 C   0  0  0  0  0  0  0  0  0  0  0  0
    3.5517   -7.7407   25.9711 C   0  0  0  0  0  0  0  0  0  0  0  0
  1  4  4  0
  1 22  4  0
  2 20  4  0
  2 27  4  0
  3 12  4  0
  3 23  4  0
  4 25  4  0
  4 28  1  0
  5  8  4  0
  5 17  4  0
  6  7  4  0
  6 16  4  0
  7 18  4  0
  8 27  4  0
  9 13  4  0
  9 23  4  0
 10 11  1  0
 11 14  2  0
 11 27  1  0
 12 19  1  0
 12 24  4  0
 13 24  4  0
 15 18  1  0
 16 25  4  0
 16 26  4  0
 17 20  4  0
 17 28  1  0
 18 21  4  0
 21 26  4  0
 22 26  4  0
M  END
$$$$

 Created by Python create_sdf_string function

 28 30  0  0  0  0  0  0  0  0999 V2000
    5.7174   -8.4529   26.7190 C   0  0  0  0  0  0  0  0  0  0  0  0
    0.3974   -7.0711   27.5149 C   0  0  0  0  0  0  0  0  0  0  0  0
    2.5338   -7.6891   16.0102 C   0  0  0  0  0  0  0  0  0  0  0  0
    4.8690   -7.4380   26.4151 C   0  0  0  0  0  0  0  0  0  0  0  0
    2.3021   -5.6726   26.0378 C   0  0  0  0  0  0  0  0  0  0  0  0
    7.0880   -4.6163   27.0010 C   0  0  0  0  0  0  0  0  0  0  0  0
    8.3117   -4.3698   27.4436 C   0  0  0  0  0  0  0  0  0  0  0  0
    1.1339   -5.0515   26.3541 C   0  0  0  0  0  0  0  0  0  0  0  0
    4.8080   -8.0362   16.7101 C   0  0  0  0  0  0  0  0  0  0  0  0
   -1.2173   -3.9294   26.9717 O   0  0  0  0  0  0  0  0  0  0  0  0
   -1.0025   -5.0942   27.4586 C   0  0  0  0  0  0  0  0  0  0  0  0
    2.2474   -8.9123   16.6273 C   0  0  0  0  0  0  0  0  0  0  0  0
    4.4957   -9.2636   17.3041 C   0  0  0  0  0  0  0  0  0  0  0  0
   -1.8070   -5.6086   28.1920 O   0  0  0  0  0  0  0  0  0  0  0  0
   10.4296   -5.1799   28.3140 C   0  0  0  0  0  0  0  0  0  0  0  0
    6.6017   -5.9004   26.9187 C   0  0  0  0  0  0  0  0  0  0  0  0
    2.4761   -6.9940   26.4111 N   0  0  0  0  0  0  0  0  0  0  0  0
    9.1353   -5.4053   27.8239 C   0  0  0  0  0  0  0  0  0  0  0  0
    0.9922   -9.3232   16.5995 O   0  0  0  0  0  0  0  0  0  0  0  0
    1.5232   -7.6869   27.1182 C   0  0  0  0  0  0  0  0  0  0  0  0
    8.6878   -6.6715   27.7262 N   0  0  0  0  0  0  0  0  0  0  0  0
    6.9911   -8.2423   27.1808 C   0  0  0  0  0  0  0  0  0  0  0  0
    3.8436   -7.2758   16.0578 C   0  0  0  0  0  0  0  0  0  0  0  0
    3.1882   -9.7190   17.2566 C   0  0  0  0  0  0  0  0  0  0  0  0
    5.3488   -6.1737   26.5092 C   0  0  0  0  0  0  0  0  0  0  0  0
    7.4567   -6.9464   27.2858 C   0  0  0  0  0  0  0  0  0  0  0  0
    0.1921   -5.7592   27.1123 C   0  0  0  0  0  0  0  0  0  0  0  0
    3.5517   -7.7407   25.9711 C   0  0  0  0  0  0  0  0  0  0  0  0
  1  4  4  0
  1 22  4  0
  2 20  4  0
  2 27  4  0
  3 12  4  0
  3 23  4  0
  4 25  4  0
  4 28  1  0
  5  8  4  0
  5 17  4  0
  6  7  4  0
  6 16  4  0
  7 18  4  0
  8 27  4  0
  9 13  4  0
  9 23  4  0
 10 11  1  0
 11 14  2  0
 11 27  1  0
 12 19  1  0
 12 24  4  0
 13 24  4  0
 15 18  1  0
 16 25  4  0
 16 26  4  0
 17 20  4  0
 17 28  1  0
 18 21  4  0
 21 26  4  0
 22 26  4  0
M  END
$$$$

 Created by Python create_sdf_string function

 28 30  0  0  0  0  0  0  0  0999 V2000
    5.7174   -8.4529   26.7190 C   0  0  0  0  0  0  0  0  0  0  0  0
    0.3974   -7.0711   27.5149 C   0  0  0  0  0  0  0  0  0  0  0  0
    2.5338   -7.6891   16.0102 C   0  0  0  0  0  0  0  0  0  0  0  0
    4.8690   -7.4380   26.4151 C   0  0  0  0  0  0  0  0  0  0  0  0
    2.3021   -5.6726   26.0378 C   0  0  0  0  0  0  0  0  0  0  0  0
    7.0880   -4.6163   27.0010 C   0  0  0  0  0  0  0  0  0  0  0  0
    8.3117   -4.3698   27.4436 C   0  0  0  0  0  0  0  0  0  0  0  0
    1.1339   -5.0515   26.3541 C   0  0  0  0  0  0  0  0  0  0  0  0
    4.8080   -8.0362   16.7101 C   0  0  0  0  0  0  0  0  0  0  0  0
   -1.2173   -3.9294   26.9717 O   0  0  0  0  0  0  0  0  0  0  0  0
   -1.0025   -5.0942   27.4586 C   0  0  0  0  0  0  0  0  0  0  0  0
    2.2474   -8.9123   16.6273 C   0  0  0  0  0  0  0  0  0  0  0  0
    4.4957   -9.2636   17.3041 C   0  0  0  0  0  0  0  0  0  0  0  0
   -1.8070   -5.6086   28.1920 O   0  0  0  0  0  0  0  0  0  0  0  0
   10.4296   -5.1799   28.3140 C   0  0  0  0  0  0  0  0  0  0  0  0
    6.6017   -5.9004   26.9187 C   0  0  0  0  0  0  0  0  0  0  0  0
    2.4761   -6.9940   26.4111 N   0  0  0  0  0  0  0  0  0  0  0  0
    9.1353   -5.4053   27.8239 C   0  0  0  0  0  0  0  0  0  0  0  0
    0.9922   -9.3232   16.5995 O   0  0  0  0  0  0  0  0  0  0  0  0
    1.5232   -7.6869   27.1182 C   0  0  0  0  0  0  0  0  0  0  0  0
    8.6878   -6.6715   27.7262 N   0  0  0  0  0  0  0  0  0  0  0  0
    6.9911   -8.2423   27.1808 C   0  0  0  0  0  0  0  0  0  0  0  0
    3.8436   -7.2758   16.0578 C   0  0  0  0  0  0  0  0  0  0  0  0
    3.1882   -9.7190   17.2566 C   0  0  0  0  0  0  0  0  0  0  0  0
    5.3488   -6.1737   26.5092 C   0  0  0  0  0  0  0  0  0  0  0  0
    7.4567   -6.9464   27.2858 C   0  0  0  0  0  0  0  0  0  0  0  0
    0.1921   -5.7592   27.1123 C   0  0  0  0  0  0  0  0  0  0  0  0
    3.5517   -7.7407   25.9711 C   0  0  0  0  0  0  0  0  0  0  0  0
  1  4  4  0
  1 22  4  0
  2 20  4  0
  2 27  4  0
  3 12  4  0
  3 23  4  0
  4 25  4  0
  4 28  1  0
  5  8  4  0
  5 17  4  0
  6  7  4  0
  6 16  4  0
  7 18  4  0
  8 27  4  0
  9 13  4  0
  9 23  4  0
 10 11  1  0
 11 14  2  0
 11 27  1  0
 12 19  1  0
 12 24  4  0
 13 24  4  0
 15 18  1  0
 16 25  4  0
 16 26  4  0
 17 20  4  0
 17 28  1  0
 18 21  4  0
 21 26  4  0
 22 26  4  0
M  END
$$$$

 Created by Python create_sdf_string function

 28 30  0  0  0  0  0  0  0  0999 V2000
    5.7174   -8.4529   26.7190 C   0  0  0  0  0  0  0  0  0  0  0  0
    0.3974   -7.0711   27.5149 C   0  0  0  0  0  0  0  0  0  0  0  0
    2.5338   -7.6891   16.0102 C   0  0  0  0  0  0  0  0  0  0  0  0
    4.8690   -7.4380   26.4151 C   0  0  0  0  0  0  0  0  0  0  0  0
    2.3021   -5.6726   26.0378 C   0  0  0  0  0  0  0  0  0  0  0  0
    7.0880   -4.6163   27.0010 C   0  0  0  0  0  0  0  0  0  0  0  0
    8.3117   -4.3698   27.4436 C   0  0  0  0  0  0  0  0  0  0  0  0
    1.1339   -5.0515   26.3541 C   0  0  0  0  0  0  0  0  0  0  0  0
    4.8080   -8.0362   16.7101 C   0  0  0  0  0  0  0  0  0  0  0  0
   -1.2173   -3.9294   26.9717 O   0  0  0  0  0  0  0  0  0  0  0  0
   -1.0025   -5.0942   27.4586 C   0  0  0  0  0  0  0  0  0  0  0  0
    2.2474   -8.9123   16.6273 C   0  0  0  0  0  0  0  0  0  0  0  0
    4.4957   -9.2636   17.3041 C   0  0  0  0  0  0  0  0  0  0  0  0
   -1.8070   -5.6086   28.1920 O   0  0  0  0  0  0  0  0  0  0  0  0
   10.4296   -5.1799   28.3140 C   0  0  0  0  0  0  0  0  0  0  0  0
    6.6017   -5.9004   26.9187 C   0  0  0  0  0  0  0  0  0  0  0  0
    2.4761   -6.9940   26.4111 N   0  0  0  0  0  0  0  0  0  0  0  0
    9.1353   -5.4053   27.8239 C   0  0  0  0  0  0  0  0  0  0  0  0
    0.9922   -9.3232   16.5995 O   0  0  0  0  0  0  0  0  0  0  0  0
    1.5232   -7.6869   27.1182 C   0  0  0  0  0  0  0  0  0  0  0  0
    8.6878   -6.6715   27.7262 N   0  0  0  0  0  0  0  0  0  0  0  0
    6.9911   -8.2423   27.1808 C   0  0  0  0  0  0  0  0  0  0  0  0
    3.8436   -7.2758   16.0578 C   0  0  0  0  0  0  0  0  0  0  0  0
    3.1882   -9.7190   17.2566 C   0  0  0  0  0  0  0  0  0  0  0  0
    5.3488   -6.1737   26.5092 C   0  0  0  0  0  0  0  0  0  0  0  0
    7.4567   -6.9464   27.2858 C   0  0  0  0  0  0  0  0  0  0  0  0
    0.1921   -5.7592   27.1123 C   0  0  0  0  0  0  0  0  0  0  0  0
    3.5517   -7.7407   25.9711 C   0  0  0  0  0  0  0  0  0  0  0  0
  1  4  4  0
  1 22  4  0
  2 20  4  0
  2 27  4  0
  3 12  4  0
  3 23  4  0
  4 25  4  0
  4 28  1  0
  5  8  4  0
  5 17  4  0
  6  7  4  0
  6 16  4  0
  7 18  4  0
  8 27  4  0
  9 13  4  0
  9 23  4  0
 10 11  1  0
 11 14  2  0
 11 27  1  0
 12 19  1  0
 12 24  4  0
 13 24  4  0
 15 18  1  0
 16 25  4  0
 16 26  4  0
 17 20  4  0
 17 28  1  0
 18 21  4  0
 21 26  4  0
 22 26  4  0
M  END
$$$$

 Created by Python create_sdf_string function

 28 30  0  0  0  0  0  0  0  0999 V2000
    5.7174   -8.4529   26.7190 C   0  0  0  0  0  0  0  0  0  0  0  0
    0.3974   -7.0711   27.5149 C   0  0  0  0  0  0  0  0  0  0  0  0
    2.5338   -7.6891   16.0102 C   0  0  0  0  0  0  0  0  0  0  0  0
    4.8690   -7.4380   26.4151 C   0  0  0  0  0  0  0  0  0  0  0  0
    2.3021   -5.6726   26.0378 C   0  0  0  0  0  0  0  0  0  0  0  0
    7.0880   -4.6163   27.0010 C   0  0  0  0  0  0  0  0  0  0  0  0
    8.3117   -4.3698   27.4436 C   0  0  0  0  0  0  0  0  0  0  0  0
    1.1339   -5.0515   26.3541 C   0  0  0  0  0  0  0  0  0  0  0  0
    4.8080   -8.0362   16.7101 C   0  0  0  0  0  0  0  0  0  0  0  0
   -1.2173   -3.9294   26.9717 O   0  0  0  0  0  0  0  0  0  0  0  0
   -1.0025   -5.0942   27.4586 C   0  0  0  0  0  0  0  0  0  0  0  0
    2.2474   -8.9123   16.6273 C   0  0  0  0  0  0  0  0  0  0  0  0
    4.4957   -9.2636   17.3041 C   0  0  0  0  0  0  0  0  0  0  0  0
   -1.8070   -5.6086   28.1920 O   0  0  0  0  0  0  0  0  0  0  0  0
   10.4296   -5.1799   28.3140 C   0  0  0  0  0  0  0  0  0  0  0  0
    6.6017   -5.9004   26.9187 C   0  0  0  0  0  0  0  0  0  0  0  0
    2.4761   -6.9940   26.4111 N   0  0  0  0  0  0  0  0  0  0  0  0
    9.1353   -5.4053   27.8239 C   0  0  0  0  0  0  0  0  0  0  0  0
    0.9922   -9.3232   16.5995 O   0  0  0  0  0  0  0  0  0  0  0  0
    1.5232   -7.6869   27.1182 C   0  0  0  0  0  0  0  0  0  0  0  0
    8.6878   -6.6715   27.7262 N   0  0  0  0  0  0  0  0  0  0  0  0
    6.9911   -8.2423   27.1808 C   0  0  0  0  0  0  0  0  0  0  0  0
    3.8436   -7.2758   16.0578 C   0  0  0  0  0  0  0  0  0  0  0  0
    3.1882   -9.7190   17.2566 C   0  0  0  0  0  0  0  0  0  0  0  0
    5.3488   -6.1737   26.5092 C   0  0  0  0  0  0  0  0  0  0  0  0
    7.4567   -6.9464   27.2858 C   0  0  0  0  0  0  0  0  0  0  0  0
    0.1921   -5.7592   27.1123 C   0  0  0  0  0  0  0  0  0  0  0  0
    3.5517   -7.7407   25.9711 C   0  0  0  0  0  0  0  0  0  0  0  0
  1  4  4  0
  1 22  4  0
  2 20  4  0
  2 27  4  0
  3 12  4  0
  3 23  4  0
  4 25  4  0
  4 28  1  0
  5  8  4  0
  5 17  4  0
  6  7  4  0
  6 16  4  0
  7 18  4  0
  8 27  4  0
  9 13  4  0
  9 23  4  0
 10 11  1  0
 11 14  2  0
 11 27  1  0
 12 19  1  0
 12 24  4  0
 13 24  4  0
 15 18  1  0
 16 25  4  0
 16 26  4  0
 17 20  4  0
 17 28  1  0
 18 21  4  0
 21 26  4  0
 22 26  4  0
M  END
$$$$

 Created by Python create_sdf_string function

 28 30  0  0  0  0  0  0  0  0999 V2000
    5.7174   -8.4529   26.7190 C   0  0  0  0  0  0  0  0  0  0  0  0
    0.3974   -7.0711   27.5149 C   0  0  0  0  0  0  0  0  0  0  0  0
    2.5338   -7.6891   16.0102 C   0  0  0  0  0  0  0  0  0  0  0  0
    4.8690   -7.4380   26.4151 C   0  0  0  0  0  0  0  0  0  0  0  0
    2.3021   -5.6726   26.0378 C   0  0  0  0  0  0  0  0  0  0  0  0
    7.0880   -4.6163   27.0010 C   0  0  0  0  0  0  0  0  0  0  0  0
    8.3117   -4.3698   27.4436 C   0  0  0  0  0  0  0  0  0  0  0  0
    1.1339   -5.0515   26.3541 C   0  0  0  0  0  0  0  0  0  0  0  0
    4.8080   -8.0362   16.7101 C   0  0  0  0  0  0  0  0  0  0  0  0
   -1.2173   -3.9294   26.9717 O   0  0  0  0  0  0  0  0  0  0  0  0
   -1.0025   -5.0942   27.4586 C   0  0  0  0  0  0  0  0  0  0  0  0
    2.2474   -8.9123   16.6273 C   0  0  0  0  0  0  0  0  0  0  0  0
    4.4957   -9.2636   17.3041 C   0  0  0  0  0  0  0  0  0  0  0  0
   -1.8070   -5.6086   28.1920 O   0  0  0  0  0  0  0  0  0  0  0  0
   10.4296   -5.1799   28.3140 C   0  0  0  0  0  0  0  0  0  0  0  0
    6.6017   -5.9004   26.9187 C   0  0  0  0  0  0  0  0  0  0  0  0
    2.4761   -6.9940   26.4111 N   0  0  0  0  0  0  0  0  0  0  0  0
    9.1353   -5.4053   27.8239 C   0  0  0  0  0  0  0  0  0  0  0  0
    0.9922   -9.3232   16.5995 O   0  0  0  0  0  0  0  0  0  0  0  0
    1.5232   -7.6869   27.1182 C   0  0  0  0  0  0  0  0  0  0  0  0
    8.6878   -6.6715   27.7262 N   0  0  0  0  0  0  0  0  0  0  0  0
    6.9911   -8.2423   27.1808 C   0  0  0  0  0  0  0  0  0  0  0  0
    3.8436   -7.2758   16.0578 C   0  0  0  0  0  0  0  0  0  0  0  0
    3.1882   -9.7190   17.2566 C   0  0  0  0  0  0  0  0  0  0  0  0
    5.3488   -6.1737   26.5092 C   0  0  0  0  0  0  0  0  0  0  0  0
    7.4567   -6.9464   27.2858 C   0  0  0  0  0  0  0  0  0  0  0  0
    0.1921   -5.7592   27.1123 C   0  0  0  0  0  0  0  0  0  0  0  0
    3.5517   -7.7407   25.9711 C   0  0  0  0  0  0  0  0  0  0  0  0
  1  4  4  0
  1 22  4  0
  2 20  4  0
  2 27  4  0
  3 12  4  0
  3 23  4  0
  4 25  4  0
  4 28  1  0
  5  8  4  0
  5 17  4  0
  6  7  4  0
  6 16  4  0
  7 18  4  0
  8 27  4  0
  9 13  4  0
  9 23  4  0
 10 11  1  0
 11 14  2  0
 11 27  1  0
 12 19  1  0
 12 24  4  0
 13 24  4  0
 15 18  1  0
 16 25  4  0
 16 26  4  0
 17 20  4  0
 17 28  1  0
 18 21  4  0
 21 26  4  0
 22 26  4  0
M  END
$$$$

 Created by Python create_sdf_string function

 28 30  0  0  0  0  0  0  0  0999 V2000
    5.7174   -8.4529   26.7190 C   0  0  0  0  0  0  0  0  0  0  0  0
    0.3974   -7.0711   27.5149 C   0  0  0  0  0  0  0  0  0  0  0  0
    2.5338   -7.6891   16.0102 C   0  0  0  0  0  0  0  0  0  0  0  0
    4.8690   -7.4380   26.4151 C   0  0  0  0  0  0  0  0  0  0  0  0
    2.3021   -5.6726   26.0378 C   0  0  0  0  0  0  0  0  0  0  0  0
    7.0880   -4.6163   27.0010 C   0  0  0  0  0  0  0  0  0  0  0  0
    8.3117   -4.3698   27.4436 C   0  0  0  0  0  0  0  0  0  0  0  0
    1.1339   -5.0515   26.3541 C   0  0  0  0  0  0  0  0  0  0  0  0
    4.8080   -8.0362   16.7101 C   0  0  0  0  0  0  0  0  0  0  0  0
   -1.2173   -3.9294   26.9717 O   0  0  0  0  0  0  0  0  0  0  0  0
   -1.0025   -5.0942   27.4586 C   0  0  0  0  0  0  0  0  0  0  0  0
    2.2474   -8.9123   16.6273 C   0  0  0  0  0  0  0  0  0  0  0  0
    4.4957   -9.2636   17.3041 C   0  0  0  0  0  0  0  0  0  0  0  0
   -1.8070   -5.6086   28.1920 O   0  0  0  0  0  0  0  0  0  0  0  0
   10.4296   -5.1799   28.3140 C   0  0  0  0  0  0  0  0  0  0  0  0
    6.6017   -5.9004   26.9187 C   0  0  0  0  0  0  0  0  0  0  0  0
    2.4761   -6.9940   26.4111 N   0  0  0  0  0  0  0  0  0  0  0  0
    9.1353   -5.4053   27.8239 C   0  0  0  0  0  0  0  0  0  0  0  0
    0.9922   -9.3232   16.5995 O   0  0  0  0  0  0  0  0  0  0  0  0
    1.5232   -7.6869   27.1182 C   0  0  0  0  0  0  0  0  0  0  0  0
    8.6878   -6.6715   27.7262 N   0  0  0  0  0  0  0  0  0  0  0  0
    6.9911   -8.2423   27.1808 C   0  0  0  0  0  0  0  0  0  0  0  0
    3.8436   -7.2758   16.0578 C   0  0  0  0  0  0  0  0  0  0  0  0
    3.1882   -9.7190   17.2566 C   0  0  0  0  0  0  0  0  0  0  0  0
    5.3488   -6.1737   26.5092 C   0  0  0  0  0  0  0  0  0  0  0  0
    7.4567   -6.9464   27.2858 C   0  0  0  0  0  0  0  0  0  0  0  0
    0.1921   -5.7592   27.1123 C   0  0  0  0  0  0  0  0  0  0  0  0
    3.5517   -7.7407   25.9711 C   0  0  0  0  0  0  0  0  0  0  0  0
  1  4  4  0
  1 22  4  0
  2 20  4  0
  2 27  4  0
  3 12  4  0
  3 23  4  0
  4 25  4  0
  4 28  1  0
  5  8  4  0
  5 17  4  0
  6  7  4  0
  6 16  4  0
  7 18  4  0
  8 27  4  0
  9 13  4  0
  9 23  4  0
 10 11  1  0
 11 14  2  0
 11 27  1  0
 12 19  1  0
 12 24  4  0
 13 24  4  0
 15 18  1  0
 16 25  4  0
 16 26  4  0
 17 20  4  0
 17 28  1  0
 18 21  4  0
 21 26  4  0
 22 26  4  0
M  END
$$$$

 Created by Python create_sdf_string function

 28 30  0  0  0  0  0  0  0  0999 V2000
    5.7174   -8.4529   26.7190 C   0  0  0  0  0  0  0  0  0  0  0  0
    0.3974   -7.0711   27.5149 C   0  0  0  0  0  0  0  0  0  0  0  0
    2.5338   -7.6891   16.0102 C   0  0  0  0  0  0  0  0  0  0  0  0
    4.8690   -7.4380   26.4151 C   0  0  0  0  0  0  0  0  0  0  0  0
    2.3021   -5.6726   26.0378 C   0  0  0  0  0  0  0  0  0  0  0  0
    7.0880   -4.6163   27.0010 C   0  0  0  0  0  0  0  0  0  0  0  0
    8.3117   -4.3698   27.4436 C   0  0  0  0  0  0  0  0  0  0  0  0
    1.1339   -5.0515   26.3541 C   0  0  0  0  0  0  0  0  0  0  0  0
    4.8080   -8.0362   16.7101 C   0  0  0  0  0  0  0  0  0  0  0  0
   -1.2173   -3.9294   26.9717 O   0  0  0  0  0  0  0  0  0  0  0  0
   -1.0025   -5.0942   27.4586 C   0  0  0  0  0  0  0  0  0  0  0  0
    2.2474   -8.9123   16.6273 C   0  0  0  0  0  0  0  0  0  0  0  0
    4.4957   -9.2636   17.3041 C   0  0  0  0  0  0  0  0  0  0  0  0
   -1.8070   -5.6086   28.1920 O   0  0  0  0  0  0  0  0  0  0  0  0
   10.4296   -5.1799   28.3140 C   0  0  0  0  0  0  0  0  0  0  0  0
    6.6017   -5.9004   26.9187 C   0  0  0  0  0  0  0  0  0  0  0  0
    2.4761   -6.9940   26.4111 N   0  0  0  0  0  0  0  0  0  0  0  0
    9.1353   -5.4053   27.8239 C   0  0  0  0  0  0  0  0  0  0  0  0
    0.9922   -9.3232   16.5995 O   0  0  0  0  0  0  0  0  0  0  0  0
    1.5232   -7.6869   27.1182 C   0  0  0  0  0  0  0  0  0  0  0  0
    8.6878   -6.6715   27.7262 N   0  0  0  0  0  0  0  0  0  0  0  0
    6.9911   -8.2423   27.1808 C   0  0  0  0  0  0  0  0  0  0  0  0
    3.8436   -7.2758   16.0578 C   0  0  0  0  0  0  0  0  0  0  0  0
    3.1882   -9.7190   17.2566 C   0  0  0  0  0  0  0  0  0  0  0  0
    5.3488   -6.1737   26.5092 C   0  0  0  0  0  0  0  0  0  0  0  0
    7.4567   -6.9464   27.2858 C   0  0  0  0  0  0  0  0  0  0  0  0
    0.1921   -5.7592   27.1123 C   0  0  0  0  0  0  0  0  0  0  0  0
    3.5517   -7.7407   25.9711 C   0  0  0  0  0  0  0  0  0  0  0  0
  1  4  4  0
  1 22  4  0
  2 20  4  0
  2 27  4  0
  3 12  4  0
  3 23  4  0
  4 25  4  0
  4 28  1  0
  5  8  4  0
  5 17  4  0
  6  7  4  0
  6 16  4  0
  7 18  4  0
  8 27  4  0
  9 13  4  0
  9 23  4  0
 10 11  1  0
 11 14  2  0
 11 27  1  0
 12 19  1  0
 12 24  4  0
 13 24  4  0
 15 18  1  0
 16 25  4  0
 16 26  4  0
 17 20  4  0
 17 28  1  0
 18 21  4  0
 21 26  4  0
 22 26  4  0
M  END
$$$$

 Created by Python create_sdf_string function

 28 30  0  0  0  0  0  0  0  0999 V2000
    5.7174   -8.4529   26.7190 C   0  0  0  0  0  0  0  0  0  0  0  0
    0.3974   -7.0711   27.5149 C   0  0  0  0  0  0  0  0  0  0  0  0
    2.5338   -7.6891   16.0102 C   0  0  0  0  0  0  0  0  0  0  0  0
    4.8690   -7.4380   26.4151 C   0  0  0  0  0  0  0  0  0  0  0  0
    2.3021   -5.6726   26.0378 C   0  0  0  0  0  0  0  0  0  0  0  0
    7.0880   -4.6163   27.0010 C   0  0  0  0  0  0  0  0  0  0  0  0
    8.3117   -4.3698   27.4436 C   0  0  0  0  0  0  0  0  0  0  0  0
    1.1339   -5.0515   26.3541 C   0  0  0  0  0  0  0  0  0  0  0  0
    4.8080   -8.0362   16.7101 C   0  0  0  0  0  0  0  0  0  0  0  0
   -1.2173   -3.9294   26.9717 O   0  0  0  0  0  0  0  0  0  0  0  0
   -1.0025   -5.0942   27.4586 C   0  0  0  0  0  0  0  0  0  0  0  0
    2.2474   -8.9123   16.6273 C   0  0  0  0  0  0  0  0  0  0  0  0
    4.4957   -9.2636   17.3041 C   0  0  0  0  0  0  0  0  0  0  0  0
   -1.8070   -5.6086   28.1920 O   0  0  0  0  0  0  0  0  0  0  0  0
   10.4296   -5.1799   28.3140 C   0  0  0  0  0  0  0  0  0  0  0  0
    6.6017   -5.9004   26.9187 C   0  0  0  0  0  0  0  0  0  0  0  0
    2.4761   -6.9940   26.4111 N   0  0  0  0  0  0  0  0  0  0  0  0
    9.1353   -5.4053   27.8239 C   0  0  0  0  0  0  0  0  0  0  0  0
    0.9922   -9.3232   16.5995 O   0  0  0  0  0  0  0  0  0  0  0  0
    1.5232   -7.6869   27.1182 C   0  0  0  0  0  0  0  0  0  0  0  0
    8.6878   -6.6715   27.7262 N   0  0  0  0  0  0  0  0  0  0  0  0
    6.9911   -8.2423   27.1808 C   0  0  0  0  0  0  0  0  0  0  0  0
    3.8436   -7.2758   16.0578 C   0  0  0  0  0  0  0  0  0  0  0  0
    3.1882   -9.7190   17.2566 C   0  0  0  0  0  0  0  0  0  0  0  0
    5.3488   -6.1737   26.5092 C   0  0  0  0  0  0  0  0  0  0  0  0
    7.4567   -6.9464   27.2858 C   0  0  0  0  0  0  0  0  0  0  0  0
    0.1921   -5.7592   27.1123 C   0  0  0  0  0  0  0  0  0  0  0  0
    3.5517   -7.7407   25.9711 C   0  0  0  0  0  0  0  0  0  0  0  0
  1  4  4  0
  1 22  4  0
  2 20  4  0
  2 27  4  0
  3 12  4  0
  3 23  4  0
  4 25  4  0
  4 28  1  0
  5  8  4  0
  5 17  4  0
  6  7  4  0
  6 16  4  0
  7 18  4  0
  8 27  4  0
  9 13  4  0
  9 23  4  0
 10 11  1  0
 11 14  2  0
 11 27  1  0
 12 19  1  0
 12 24  4  0
 13 24  4  0
 15 18  1  0
 16 25  4  0
 16 26  4  0
 17 20  4  0
 17 28  1  0
 18 21  4  0
 21 26  4  0
 22 26  4  0
M  END
$$$$

 Created by Python create_sdf_string function

 28 30  0  0  0  0  0  0  0  0999 V2000
    5.7174   -8.4529   26.7190 C   0  0  0  0  0  0  0  0  0  0  0  0
    0.3974   -7.0711   27.5149 C   0  0  0  0  0  0  0  0  0  0  0  0
    2.5338   -7.6891   16.0102 C   0  0  0  0  0  0  0  0  0  0  0  0
    4.8690   -7.4380   26.4151 C   0  0  0  0  0  0  0  0  0  0  0  0
    2.3021   -5.6726   26.0378 C   0  0  0  0  0  0  0  0  0  0  0  0
    7.0880   -4.6163   27.0010 C   0  0  0  0  0  0  0  0  0  0  0  0
    8.3117   -4.3698   27.4436 C   0  0  0  0  0  0  0  0  0  0  0  0
    1.1339   -5.0515   26.3541 C   0  0  0  0  0  0  0  0  0  0  0  0
    4.8080   -8.0362   16.7101 C   0  0  0  0  0  0  0  0  0  0  0  0
   -1.2173   -3.9294   26.9717 O   0  0  0  0  0  0  0  0  0  0  0  0
   -1.0025   -5.0942   27.4586 C   0  0  0  0  0  0  0  0  0  0  0  0
    2.2474   -8.9123   16.6273 C   0  0  0  0  0  0  0  0  0  0  0  0
    4.4957   -9.2636   17.3041 C   0  0  0  0  0  0  0  0  0  0  0  0
   -1.8070   -5.6086   28.1920 O   0  0  0  0  0  0  0  0  0  0  0  0
   10.4296   -5.1799   28.3140 C   0  0  0  0  0  0  0  0  0  0  0  0
    6.6017   -5.9004   26.9187 C   0  0  0  0  0  0  0  0  0  0  0  0
    2.4761   -6.9940   26.4111 N   0  0  0  0  0  0  0  0  0  0  0  0
    9.1353   -5.4053   27.8239 C   0  0  0  0  0  0  0  0  0  0  0  0
    0.9922   -9.3232   16.5995 O   0  0  0  0  0  0  0  0  0  0  0  0
    1.5232   -7.6869   27.1182 C   0  0  0  0  0  0  0  0  0  0  0  0
    8.6878   -6.6715   27.7262 N   0  0  0  0  0  0  0  0  0  0  0  0
    6.9911   -8.2423   27.1808 C   0  0  0  0  0  0  0  0  0  0  0  0
    3.8436   -7.2758   16.0578 C   0  0  0  0  0  0  0  0  0  0  0  0
    3.1882   -9.7190   17.2566 C   0  0  0  0  0  0  0  0  0  0  0  0
    5.3488   -6.1737   26.5092 C   0  0  0  0  0  0  0  0  0  0  0  0
    7.4567   -6.9464   27.2858 C   0  0  0  0  0  0  0  0  0  0  0  0
    0.1921   -5.7592   27.1123 C   0  0  0  0  0  0  0  0  0  0  0  0
    3.5517   -7.7407   25.9711 C   0  0  0  0  0  0  0  0  0  0  0  0
  1  4  4  0
  1 22  4  0
  2 20  4  0
  2 27  4  0
  3 12  4  0
  3 23  4  0
  4 25  4  0
  4 28  1  0
  5  8  4  0
  5 17  4  0
  6  7  4  0
  6 16  4  0
  7 18  4  0
  8 27  4  0
  9 13  4  0
  9 23  4  0
 10 11  1  0
 11 14  2  0
 11 27  1  0
 12 19  1  0
 12 24  4  0
 13 24  4  0
 15 18  1  0
 16 25  4  0
 16 26  4  0
 17 20  4  0
 17 28  1  0
 18 21  4  0
 21 26  4  0
 22 26  4  0
M  END
$$$$

 Created by Python create_sdf_string function

 28 30  0  0  0  0  0  0  0  0999 V2000
    5.7174   -8.4529   26.7190 C   0  0  0  0  0  0  0  0  0  0  0  0
    0.3974   -7.0711   27.5149 C   0  0  0  0  0  0  0  0  0  0  0  0
    2.5338   -7.6891   16.0102 C   0  0  0  0  0  0  0  0  0  0  0  0
    4.8690   -7.4380   26.4151 C   0  0  0  0  0  0  0  0  0  0  0  0
    2.3021   -5.6726   26.0378 C   0  0  0  0  0  0  0  0  0  0  0  0
    7.0880   -4.6163   27.0010 C   0  0  0  0  0  0  0  0  0  0  0  0
    8.3117   -4.3698   27.4436 C   0  0  0  0  0  0  0  0  0  0  0  0
    1.1339   -5.0515   26.3541 C   0  0  0  0  0  0  0  0  0  0  0  0
    4.8080   -8.0362   16.7101 C   0  0  0  0  0  0  0  0  0  0  0  0
   -1.2173   -3.9294   26.9717 O   0  0  0  0  0  0  0  0  0  0  0  0
   -1.0025   -5.0942   27.4586 C   0  0  0  0  0  0  0  0  0  0  0  0
    2.2474   -8.9123   16.6273 C   0  0  0  0  0  0  0  0  0  0  0  0
    4.4957   -9.2636   17.3041 C   0  0  0  0  0  0  0  0  0  0  0  0
   -1.8070   -5.6086   28.1920 O   0  0  0  0  0  0  0  0  0  0  0  0
   10.4296   -5.1799   28.3140 C   0  0  0  0  0  0  0  0  0  0  0  0
    6.6017   -5.9004   26.9187 C   0  0  0  0  0  0  0  0  0  0  0  0
    2.4761   -6.9940   26.4111 N   0  0  0  0  0  0  0  0  0  0  0  0
    9.1353   -5.4053   27.8239 C   0  0  0  0  0  0  0  0  0  0  0  0
    0.9922   -9.3232   16.5995 O   0  0  0  0  0  0  0  0  0  0  0  0
    1.5232   -7.6869   27.1182 C   0  0  0  0  0  0  0  0  0  0  0  0
    8.6878   -6.6715   27.7262 N   0  0  0  0  0  0  0  0  0  0  0  0
    6.9911   -8.2423   27.1808 C   0  0  0  0  0  0  0  0  0  0  0  0
    3.8436   -7.2758   16.0578 C   0  0  0  0  0  0  0  0  0  0  0  0
    3.1882   -9.7190   17.2566 C   0  0  0  0  0  0  0  0  0  0  0  0
    5.3488   -6.1737   26.5092 C   0  0  0  0  0  0  0  0  0  0  0  0
    7.4567   -6.9464   27.2858 C   0  0  0  0  0  0  0  0  0  0  0  0
    0.1921   -5.7592   27.1123 C   0  0  0  0  0  0  0  0  0  0  0  0
    3.5517   -7.7407   25.9711 C   0  0  0  0  0  0  0  0  0  0  0  0
  1  4  4  0
  1 22  4  0
  2 20  4  0
  2 27  4  0
  3 12  4  0
  3 23  4  0
  4 25  4  0
  4 28  1  0
  5  8  4  0
  5 17  4  0
  6  7  4  0
  6 16  4  0
  7 18  4  0
  8 27  4  0
  9 13  4  0
  9 23  4  0
 10 11  1  0
 11 14  2  0
 11 27  1  0
 12 19  1  0
 12 24  4  0
 13 24  4  0
 15 18  1  0
 16 25  4  0
 16 26  4  0
 17 20  4  0
 17 28  1  0
 18 21  4  0
 21 26  4  0
 22 26  4  0
M  END
$$$$

 Created by Python create_sdf_string function

 28 30  0  0  0  0  0  0  0  0999 V2000
    5.7174   -8.4529   26.7190 C   0  0  0  0  0  0  0  0  0  0  0  0
    0.3974   -7.0711   27.5149 C   0  0  0  0  0  0  0  0  0  0  0  0
    2.5338   -7.6891   16.0102 C   0  0  0  0  0  0  0  0  0  0  0  0
    4.8690   -7.4380   26.4151 C   0  0  0  0  0  0  0  0  0  0  0  0
    2.3021   -5.6726   26.0378 C   0  0  0  0  0  0  0  0  0  0  0  0
    7.0880   -4.6163   27.0010 C   0  0  0  0  0  0  0  0  0  0  0  0
    8.3117   -4.3698   27.4436 C   0  0  0  0  0  0  0  0  0  0  0  0
    1.1339   -5.0515   26.3541 C   0  0  0  0  0  0  0  0  0  0  0  0
    4.8080   -8.0362   16.7101 C   0  0  0  0  0  0  0  0  0  0  0  0
   -1.2173   -3.9294   26.9717 O   0  0  0  0  0  0  0  0  0  0  0  0
   -1.0025   -5.0942   27.4586 C   0  0  0  0  0  0  0  0  0  0  0  0
    2.2474   -8.9123   16.6273 C   0  0  0  0  0  0  0  0  0  0  0  0
    4.4957   -9.2636   17.3041 C   0  0  0  0  0  0  0  0  0  0  0  0
   -1.8070   -5.6086   28.1920 O   0  0  0  0  0  0  0  0  0  0  0  0
   10.4296   -5.1799   28.3140 C   0  0  0  0  0  0  0  0  0  0  0  0
    6.6017   -5.9004   26.9187 C   0  0  0  0  0  0  0  0  0  0  0  0
    2.4761   -6.9940   26.4111 N   0  0  0  0  0  0  0  0  0  0  0  0
    9.1353   -5.4053   27.8239 C   0  0  0  0  0  0  0  0  0  0  0  0
    0.9922   -9.3232   16.5995 O   0  0  0  0  0  0  0  0  0  0  0  0
    1.5232   -7.6869   27.1182 C   0  0  0  0  0  0  0  0  0  0  0  0
    8.6878   -6.6715   27.7262 N   0  0  0  0  0  0  0  0  0  0  0  0
    6.9911   -8.2423   27.1808 C   0  0  0  0  0  0  0  0  0  0  0  0
    3.8436   -7.2758   16.0578 C   0  0  0  0  0  0  0  0  0  0  0  0
    3.1882   -9.7190   17.2566 C   0  0  0  0  0  0  0  0  0  0  0  0
    5.3488   -6.1737   26.5092 C   0  0  0  0  0  0  0  0  0  0  0  0
    7.4567   -6.9464   27.2858 C   0  0  0  0  0  0  0  0  0  0  0  0
    0.1921   -5.7592   27.1123 C   0  0  0  0  0  0  0  0  0  0  0  0
    3.5517   -7.7407   25.9711 C   0  0  0  0  0  0  0  0  0  0  0  0
  1  4  4  0
  1 22  4  0
  2 20  4  0
  2 27  4  0
  3 12  4  0
  3 23  4  0
  4 25  4  0
  4 28  1  0
  5  8  4  0
  5 17  4  0
  6  7  4  0
  6 16  4  0
  7 18  4  0
  8 27  4  0
  9 13  4  0
  9 23  4  0
 10 11  1  0
 11 14  2  0
 11 27  1  0
 12 19  1  0
 12 24  4  0
 13 24  4  0
 15 18  1  0
 16 25  4  0
 16 26  4  0
 17 20  4  0
 17 28  1  0
 18 21  4  0
 21 26  4  0
 22 26  4  0
M  END
$$$$

 Created by Python create_sdf_string function

 28 30  0  0  0  0  0  0  0  0999 V2000
    5.7174   -8.4529   26.7190 C   0  0  0  0  0  0  0  0  0  0  0  0
    0.3974   -7.0711   27.5149 C   0  0  0  0  0  0  0  0  0  0  0  0
    2.5338   -7.6891   16.0102 C   0  0  0  0  0  0  0  0  0  0  0  0
    4.8690   -7.4380   26.4151 C   0  0  0  0  0  0  0  0  0  0  0  0
    2.3021   -5.6726   26.0378 C   0  0  0  0  0  0  0  0  0  0  0  0
    7.0880   -4.6163   27.0010 C   0  0  0  0  0  0  0  0  0  0  0  0
    8.3117   -4.3698   27.4436 C   0  0  0  0  0  0  0  0  0  0  0  0
    1.1339   -5.0515   26.3541 C   0  0  0  0  0  0  0  0  0  0  0  0
    4.8080   -8.0362   16.7101 C   0  0  0  0  0  0  0  0  0  0  0  0
   -1.2173   -3.9294   26.9717 O   0  0  0  0  0  0  0  0  0  0  0  0
   -1.0025   -5.0942   27.4586 C   0  0  0  0  0  0  0  0  0  0  0  0
    2.2474   -8.9123   16.6273 C   0  0  0  0  0  0  0  0  0  0  0  0
    4.4957   -9.2636   17.3041 C   0  0  0  0  0  0  0  0  0  0  0  0
   -1.8070   -5.6086   28.1920 O   0  0  0  0  0  0  0  0  0  0  0  0
   10.4296   -5.1799   28.3140 C   0  0  0  0  0  0  0  0  0  0  0  0
    6.6017   -5.9004   26.9187 C   0  0  0  0  0  0  0  0  0  0  0  0
    2.4761   -6.9940   26.4111 N   0  0  0  0  0  0  0  0  0  0  0  0
    9.1353   -5.4053   27.8239 C   0  0  0  0  0  0  0  0  0  0  0  0
    0.9922   -9.3232   16.5995 O   0  0  0  0  0  0  0  0  0  0  0  0
    1.5232   -7.6869   27.1182 C   0  0  0  0  0  0  0  0  0  0  0  0
    8.6878   -6.6715   27.7262 N   0  0  0  0  0  0  0  0  0  0  0  0
    6.9911   -8.2423   27.1808 C   0  0  0  0  0  0  0  0  0  0  0  0
    3.8436   -7.2758   16.0578 C   0  0  0  0  0  0  0  0  0  0  0  0
    3.1882   -9.7190   17.2566 C   0  0  0  0  0  0  0  0  0  0  0  0
    5.3488   -6.1737   26.5092 C   0  0  0  0  0  0  0  0  0  0  0  0
    7.4567   -6.9464   27.2858 C   0  0  0  0  0  0  0  0  0  0  0  0
    0.1921   -5.7592   27.1123 C   0  0  0  0  0  0  0  0  0  0  0  0
    3.5517   -7.7407   25.9711 C   0  0  0  0  0  0  0  0  0  0  0  0
  1  4  4  0
  1 22  4  0
  2 20  4  0
  2 27  4  0
  3 12  4  0
  3 23  4  0
  4 25  4  0
  4 28  1  0
  5  8  4  0
  5 17  4  0
  6  7  4  0
  6 16  4  0
  7 18  4  0
  8 27  4  0
  9 13  4  0
  9 23  4  0
 10 11  1  0
 11 14  2  0
 11 27  1  0
 12 19  1  0
 12 24  4  0
 13 24  4  0
 15 18  1  0
 16 25  4  0
 16 26  4  0
 17 20  4  0
 17 28  1  0
 18 21  4  0
 21 26  4  0
 22 26  4  0
M  END
$$$$

 Created by Python create_sdf_string function

 28 30  0  0  0  0  0  0  0  0999 V2000
    5.7174   -8.4529   26.7190 C   0  0  0  0  0  0  0  0  0  0  0  0
    0.3974   -7.0711   27.5149 C   0  0  0  0  0  0  0  0  0  0  0  0
    2.5338   -7.6891   16.0102 C   0  0  0  0  0  0  0  0  0  0  0  0
    4.8690   -7.4380   26.4151 C   0  0  0  0  0  0  0  0  0  0  0  0
    2.3021   -5.6726   26.0378 C   0  0  0  0  0  0  0  0  0  0  0  0
    7.0880   -4.6163   27.0010 C   0  0  0  0  0  0  0  0  0  0  0  0
    8.3117   -4.3698   27.4436 C   0  0  0  0  0  0  0  0  0  0  0  0
    1.1339   -5.0515   26.3541 C   0  0  0  0  0  0  0  0  0  0  0  0
    4.8080   -8.0362   16.7101 C   0  0  0  0  0  0  0  0  0  0  0  0
   -1.2173   -3.9294   26.9717 O   0  0  0  0  0  0  0  0  0  0  0  0
   -1.0025   -5.0942   27.4586 C   0  0  0  0  0  0  0  0  0  0  0  0
    2.2474   -8.9123   16.6273 C   0  0  0  0  0  0  0  0  0  0  0  0
    4.4957   -9.2636   17.3041 C   0  0  0  0  0  0  0  0  0  0  0  0
   -1.8070   -5.6086   28.1920 O   0  0  0  0  0  0  0  0  0  0  0  0
   10.4296   -5.1799   28.3140 C   0  0  0  0  0  0  0  0  0  0  0  0
    6.6017   -5.9004   26.9187 C   0  0  0  0  0  0  0  0  0  0  0  0
    2.4761   -6.9940   26.4111 N   0  0  0  0  0  0  0  0  0  0  0  0
    9.1353   -5.4053   27.8239 C   0  0  0  0  0  0  0  0  0  0  0  0
    0.9922   -9.3232   16.5995 O   0  0  0  0  0  0  0  0  0  0  0  0
    1.5232   -7.6869   27.1182 C   0  0  0  0  0  0  0  0  0  0  0  0
    8.6878   -6.6715   27.7262 N   0  0  0  0  0  0  0  0  0  0  0  0
    6.9911   -8.2423   27.1808 C   0  0  0  0  0  0  0  0  0  0  0  0
    3.8436   -7.2758   16.0578 C   0  0  0  0  0  0  0  0  0  0  0  0
    3.1882   -9.7190   17.2566 C   0  0  0  0  0  0  0  0  0  0  0  0
    5.3488   -6.1737   26.5092 C   0  0  0  0  0  0  0  0  0  0  0  0
    7.4567   -6.9464   27.2858 C   0  0  0  0  0  0  0  0  0  0  0  0
    0.1921   -5.7592   27.1123 C   0  0  0  0  0  0  0  0  0  0  0  0
    3.5517   -7.7407   25.9711 C   0  0  0  0  0  0  0  0  0  0  0  0
  1  4  4  0
  1 22  4  0
  2 20  4  0
  2 27  4  0
  3 12  4  0
  3 23  4  0
  4 25  4  0
  4 28  1  0
  5  8  4  0
  5 17  4  0
  6  7  4  0
  6 16  4  0
  7 18  4  0
  8 27  4  0
  9 13  4  0
  9 23  4  0
 10 11  1  0
 11 14  2  0
 11 27  1  0
 12 19  1  0
 12 24  4  0
 13 24  4  0
 15 18  1  0
 16 25  4  0
 16 26  4  0
 17 20  4  0
 17 28  1  0
 18 21  4  0
 21 26  4  0
 22 26  4  0
M  END
$$$$

 Created by Python create_sdf_string function

 28 30  0  0  0  0  0  0  0  0999 V2000
    5.7174   -8.4529   26.7190 C   0  0  0  0  0  0  0  0  0  0  0  0
    0.3974   -7.0711   27.5149 C   0  0  0  0  0  0  0  0  0  0  0  0
    2.5338   -7.6891   16.0102 C   0  0  0  0  0  0  0  0  0  0  0  0
    4.8690   -7.4380   26.4151 C   0  0  0  0  0  0  0  0  0  0  0  0
    2.3021   -5.6726   26.0378 C   0  0  0  0  0  0  0  0  0  0  0  0
    7.0880   -4.6163   27.0010 C   0  0  0  0  0  0  0  0  0  0  0  0
    8.3117   -4.3698   27.4436 C   0  0  0  0  0  0  0  0  0  0  0  0
    1.1339   -5.0515   26.3541 C   0  0  0  0  0  0  0  0  0  0  0  0
    4.8080   -8.0362   16.7101 C   0  0  0  0  0  0  0  0  0  0  0  0
   -1.2173   -3.9294   26.9717 O   0  0  0  0  0  0  0  0  0  0  0  0
   -1.0025   -5.0942   27.4586 C   0  0  0  0  0  0  0  0  0  0  0  0
    2.2474   -8.9123   16.6273 C   0  0  0  0  0  0  0  0  0  0  0  0
    4.4957   -9.2636   17.3041 C   0  0  0  0  0  0  0  0  0  0  0  0
   -1.8070   -5.6086   28.1920 O   0  0  0  0  0  0  0  0  0  0  0  0
   10.4296   -5.1799   28.3140 C   0  0  0  0  0  0  0  0  0  0  0  0
    6.6017   -5.9004   26.9187 C   0  0  0  0  0  0  0  0  0  0  0  0
    2.4761   -6.9940   26.4111 N   0  0  0  0  0  0  0  0  0  0  0  0
    9.1353   -5.4053   27.8239 C   0  0  0  0  0  0  0  0  0  0  0  0
    0.9922   -9.3232   16.5995 O   0  0  0  0  0  0  0  0  0  0  0  0
    1.5232   -7.6869   27.1182 C   0  0  0  0  0  0  0  0  0  0  0  0
    8.6878   -6.6715   27.7262 N   0  0  0  0  0  0  0  0  0  0  0  0
    6.9911   -8.2423   27.1808 C   0  0  0  0  0  0  0  0  0  0  0  0
    3.8436   -7.2758   16.0578 C   0  0  0  0  0  0  0  0  0  0  0  0
    3.1882   -9.7190   17.2566 C   0  0  0  0  0  0  0  0  0  0  0  0
    5.3488   -6.1737   26.5092 C   0  0  0  0  0  0  0  0  0  0  0  0
    7.4567   -6.9464   27.2858 C   0  0  0  0  0  0  0  0  0  0  0  0
    0.1921   -5.7592   27.1123 C   0  0  0  0  0  0  0  0  0  0  0  0
    3.5517   -7.7407   25.9711 C   0  0  0  0  0  0  0  0  0  0  0  0
  1  4  4  0
  1 22  4  0
  2 20  4  0
  2 27  4  0
  3 12  4  0
  3 23  4  0
  4 25  4  0
  4 28  1  0
  5  8  4  0
  5 17  4  0
  6  7  4  0
  6 16  4  0
  7 18  4  0
  8 27  4  0
  9 13  4  0
  9 23  4  0
 10 11  1  0
 11 14  2  0
 11 27  1  0
 12 19  1  0
 12 24  4  0
 13 24  4  0
 15 18  1  0
 16 25  4  0
 16 26  4  0
 17 20  4  0
 17 28  1  0
 18 21  4  0
 21 26  4  0
 22 26  4  0
M  END
$$$$

 Created by Python create_sdf_string function

 28 30  0  0  0  0  0  0  0  0999 V2000
    5.7174   -8.4529   26.7190 C   0  0  0  0  0  0  0  0  0  0  0  0
    0.3974   -7.0711   27.5149 C   0  0  0  0  0  0  0  0  0  0  0  0
    2.5338   -7.6891   16.0102 C   0  0  0  0  0  0  0  0  0  0  0  0
    4.8690   -7.4380   26.4151 C   0  0  0  0  0  0  0  0  0  0  0  0
    2.3021   -5.6726   26.0378 C   0  0  0  0  0  0  0  0  0  0  0  0
    7.0880   -4.6163   27.0010 C   0  0  0  0  0  0  0  0  0  0  0  0
    8.3117   -4.3698   27.4436 C   0  0  0  0  0  0  0  0  0  0  0  0
    1.1339   -5.0515   26.3541 C   0  0  0  0  0  0  0  0  0  0  0  0
    4.8080   -8.0362   16.7101 C   0  0  0  0  0  0  0  0  0  0  0  0
   -1.2173   -3.9294   26.9717 O   0  0  0  0  0  0  0  0  0  0  0  0
   -1.0025   -5.0942   27.4586 C   0  0  0  0  0  0  0  0  0  0  0  0
    2.2474   -8.9123   16.6273 C   0  0  0  0  0  0  0  0  0  0  0  0
    4.4957   -9.2636   17.3041 C   0  0  0  0  0  0  0  0  0  0  0  0
   -1.8070   -5.6086   28.1920 O   0  0  0  0  0  0  0  0  0  0  0  0
   10.4296   -5.1799   28.3140 C   0  0  0  0  0  0  0  0  0  0  0  0
    6.6017   -5.9004   26.9187 C   0  0  0  0  0  0  0  0  0  0  0  0
    2.4761   -6.9940   26.4111 N   0  0  0  0  0  0  0  0  0  0  0  0
    9.1353   -5.4053   27.8239 C   0  0  0  0  0  0  0  0  0  0  0  0
    0.9922   -9.3232   16.5995 O   0  0  0  0  0  0  0  0  0  0  0  0
    1.5232   -7.6869   27.1182 C   0  0  0  0  0  0  0  0  0  0  0  0
    8.6878   -6.6715   27.7262 N   0  0  0  0  0  0  0  0  0  0  0  0
    6.9911   -8.2423   27.1808 C   0  0  0  0  0  0  0  0  0  0  0  0
    3.8436   -7.2758   16.0578 C   0  0  0  0  0  0  0  0  0  0  0  0
    3.1882   -9.7190   17.2566 C   0  0  0  0  0  0  0  0  0  0  0  0
    5.3488   -6.1737   26.5092 C   0  0  0  0  0  0  0  0  0  0  0  0
    7.4567   -6.9464   27.2858 C   0  0  0  0  0  0  0  0  0  0  0  0
    0.1921   -5.7592   27.1123 C   0  0  0  0  0  0  0  0  0  0  0  0
    3.5517   -7.7407   25.9711 C   0  0  0  0  0  0  0  0  0  0  0  0
  1  4  4  0
  1 22  4  0
  2 20  4  0
  2 27  4  0
  3 12  4  0
  3 23  4  0
  4 25  4  0
  4 28  1  0
  5  8  4  0
  5 17  4  0
  6  7  4  0
  6 16  4  0
  7 18  4  0
  8 27  4  0
  9 13  4  0
  9 23  4  0
 10 11  1  0
 11 14  2  0
 11 27  1  0
 12 19  1  0
 12 24  4  0
 13 24  4  0
 15 18  1  0
 16 25  4  0
 16 26  4  0
 17 20  4  0
 17 28  1  0
 18 21  4  0
 21 26  4  0
 22 26  4  0
M  END
$$$$

 Created by Python create_sdf_string function

 28 30  0  0  0  0  0  0  0  0999 V2000
    5.7174   -8.4529   26.7190 C   0  0  0  0  0  0  0  0  0  0  0  0
    0.3974   -7.0711   27.5149 C   0  0  0  0  0  0  0  0  0  0  0  0
    2.5338   -7.6891   16.0102 C   0  0  0  0  0  0  0  0  0  0  0  0
    4.8690   -7.4380   26.4151 C   0  0  0  0  0  0  0  0  0  0  0  0
    2.3021   -5.6726   26.0378 C   0  0  0  0  0  0  0  0  0  0  0  0
    7.0880   -4.6163   27.0010 C   0  0  0  0  0  0  0  0  0  0  0  0
    8.3117   -4.3698   27.4436 C   0  0  0  0  0  0  0  0  0  0  0  0
    1.1339   -5.0515   26.3541 C   0  0  0  0  0  0  0  0  0  0  0  0
    4.8080   -8.0362   16.7101 C   0  0  0  0  0  0  0  0  0  0  0  0
   -1.2173   -3.9294   26.9717 O   0  0  0  0  0  0  0  0  0  0  0  0
   -1.0025   -5.0942   27.4586 C   0  0  0  0  0  0  0  0  0  0  0  0
    2.2474   -8.9123   16.6273 C   0  0  0  0  0  0  0  0  0  0  0  0
    4.4957   -9.2636   17.3041 C   0  0  0  0  0  0  0  0  0  0  0  0
   -1.8070   -5.6086   28.1920 O   0  0  0  0  0  0  0  0  0  0  0  0
   10.4296   -5.1799   28.3140 C   0  0  0  0  0  0  0  0  0  0  0  0
    6.6017   -5.9004   26.9187 C   0  0  0  0  0  0  0  0  0  0  0  0
    2.4761   -6.9940   26.4111 N   0  0  0  0  0  0  0  0  0  0  0  0
    9.1353   -5.4053   27.8239 C   0  0  0  0  0  0  0  0  0  0  0  0
    0.9922   -9.3232   16.5995 O   0  0  0  0  0  0  0  0  0  0  0  0
    1.5232   -7.6869   27.1182 C   0  0  0  0  0  0  0  0  0  0  0  0
    8.6878   -6.6715   27.7262 N   0  0  0  0  0  0  0  0  0  0  0  0
    6.9911   -8.2423   27.1808 C   0  0  0  0  0  0  0  0  0  0  0  0
    3.8436   -7.2758   16.0578 C   0  0  0  0  0  0  0  0  0  0  0  0
    3.1882   -9.7190   17.2566 C   0  0  0  0  0  0  0  0  0  0  0  0
    5.3488   -6.1737   26.5092 C   0  0  0  0  0  0  0  0  0  0  0  0
    7.4567   -6.9464   27.2858 C   0  0  0  0  0  0  0  0  0  0  0  0
    0.1921   -5.7592   27.1123 C   0  0  0  0  0  0  0  0  0  0  0  0
    3.5517   -7.7407   25.9711 C   0  0  0  0  0  0  0  0  0  0  0  0
  1  4  4  0
  1 22  4  0
  2 20  4  0
  2 27  4  0
  3 12  4  0
  3 23  4  0
  4 25  4  0
  4 28  1  0
  5  8  4  0
  5 17  4  0
  6  7  4  0
  6 16  4  0
  7 18  4  0
  8 27  4  0
  9 13  4  0
  9 23  4  0
 10 11  1  0
 11 14  2  0
 11 27  1  0
 12 19  1  0
 12 24  4  0
 13 24  4  0
 15 18  1  0
 16 25  4  0
 16 26  4  0
 17 20  4  0
 17 28  1  0
 18 21  4  0
 21 26  4  0
 22 26  4  0
M  END
$$$$

 Created by Python create_sdf_string function

 28 30  0  0  0  0  0  0  0  0999 V2000
    5.7174   -8.4529   26.7190 C   0  0  0  0  0  0  0  0  0  0  0  0
    0.3974   -7.0711   27.5149 C   0  0  0  0  0  0  0  0  0  0  0  0
    2.5338   -7.6891   16.0102 C   0  0  0  0  0  0  0  0  0  0  0  0
    4.8690   -7.4380   26.4151 C   0  0  0  0  0  0  0  0  0  0  0  0
    2.3021   -5.6726   26.0378 C   0  0  0  0  0  0  0  0  0  0  0  0
    7.0880   -4.6163   27.0010 C   0  0  0  0  0  0  0  0  0  0  0  0
    8.3117   -4.3698   27.4436 C   0  0  0  0  0  0  0  0  0  0  0  0
    1.1339   -5.0515   26.3541 C   0  0  0  0  0  0  0  0  0  0  0  0
    4.8080   -8.0362   16.7101 C   0  0  0  0  0  0  0  0  0  0  0  0
   -1.2173   -3.9294   26.9717 O   0  0  0  0  0  0  0  0  0  0  0  0
   -1.0025   -5.0942   27.4586 C   0  0  0  0  0  0  0  0  0  0  0  0
    2.2474   -8.9123   16.6273 C   0  0  0  0  0  0  0  0  0  0  0  0
    4.4957   -9.2636   17.3041 C   0  0  0  0  0  0  0  0  0  0  0  0
   -1.8070   -5.6086   28.1920 O   0  0  0  0  0  0  0  0  0  0  0  0
   10.4296   -5.1799   28.3140 C   0  0  0  0  0  0  0  0  0  0  0  0
    6.6017   -5.9004   26.9187 C   0  0  0  0  0  0  0  0  0  0  0  0
    2.4761   -6.9940   26.4111 N   0  0  0  0  0  0  0  0  0  0  0  0
    9.1353   -5.4053   27.8239 C   0  0  0  0  0  0  0  0  0  0  0  0
    0.9922   -9.3232   16.5995 O   0  0  0  0  0  0  0  0  0  0  0  0
    1.5232   -7.6869   27.1182 C   0  0  0  0  0  0  0  0  0  0  0  0
    8.6878   -6.6715   27.7262 N   0  0  0  0  0  0  0  0  0  0  0  0
    6.9911   -8.2423   27.1808 C   0  0  0  0  0  0  0  0  0  0  0  0
    3.8436   -7.2758   16.0578 C   0  0  0  0  0  0  0  0  0  0  0  0
    3.1882   -9.7190   17.2566 C   0  0  0  0  0  0  0  0  0  0  0  0
    5.3488   -6.1737   26.5092 C   0  0  0  0  0  0  0  0  0  0  0  0
    7.4567   -6.9464   27.2858 C   0  0  0  0  0  0  0  0  0  0  0  0
    0.1921   -5.7592   27.1123 C   0  0  0  0  0  0  0  0  0  0  0  0
    3.5517   -7.7407   25.9711 C   0  0  0  0  0  0  0  0  0  0  0  0
  1  4  4  0
  1 22  4  0
  2 20  4  0
  2 27  4  0
  3 12  4  0
  3 23  4  0
  4 25  4  0
  4 28  1  0
  5  8  4  0
  5 17  4  0
  6  7  4  0
  6 16  4  0
  7 18  4  0
  8 27  4  0
  9 13  4  0
  9 23  4  0
 10 11  1  0
 11 14  2  0
 11 27  1  0
 12 19  1  0
 12 24  4  0
 13 24  4  0
 15 18  1  0
 16 25  4  0
 16 26  4  0
 17 20  4  0
 17 28  1  0
 18 21  4  0
 21 26  4  0
 22 26  4  0
M  END
$$$$

 Created by Python create_sdf_string function

 28 30  0  0  0  0  0  0  0  0999 V2000
    5.7174   -8.4529   26.7190 C   0  0  0  0  0  0  0  0  0  0  0  0
    0.3974   -7.0711   27.5149 C   0  0  0  0  0  0  0  0  0  0  0  0
    2.5338   -7.6891   16.0102 C   0  0  0  0  0  0  0  0  0  0  0  0
    4.8690   -7.4380   26.4151 C   0  0  0  0  0  0  0  0  0  0  0  0
    2.3021   -5.6726   26.0378 C   0  0  0  0  0  0  0  0  0  0  0  0
    7.0880   -4.6163   27.0010 C   0  0  0  0  0  0  0  0  0  0  0  0
    8.3117   -4.3698   27.4436 C   0  0  0  0  0  0  0  0  0  0  0  0
    1.1339   -5.0515   26.3541 C   0  0  0  0  0  0  0  0  0  0  0  0
    4.8080   -8.0362   16.7101 C   0  0  0  0  0  0  0  0  0  0  0  0
   -1.2173   -3.9294   26.9717 O   0  0  0  0  0  0  0  0  0  0  0  0
   -1.0025   -5.0942   27.4586 C   0  0  0  0  0  0  0  0  0  0  0  0
    2.2474   -8.9123   16.6273 C   0  0  0  0  0  0  0  0  0  0  0  0
    4.4957   -9.2636   17.3041 C   0  0  0  0  0  0  0  0  0  0  0  0
   -1.8070   -5.6086   28.1920 O   0  0  0  0  0  0  0  0  0  0  0  0
   10.4296   -5.1799   28.3140 C   0  0  0  0  0  0  0  0  0  0  0  0
    6.6017   -5.9004   26.9187 C   0  0  0  0  0  0  0  0  0  0  0  0
    2.4761   -6.9940   26.4111 N   0  0  0  0  0  0  0  0  0  0  0  0
    9.1353   -5.4053   27.8239 C   0  0  0  0  0  0  0  0  0  0  0  0
    0.9922   -9.3232   16.5995 O   0  0  0  0  0  0  0  0  0  0  0  0
    1.5232   -7.6869   27.1182 C   0  0  0  0  0  0  0  0  0  0  0  0
    8.6878   -6.6715   27.7262 N   0  0  0  0  0  0  0  0  0  0  0  0
    6.9911   -8.2423   27.1808 C   0  0  0  0  0  0  0  0  0  0  0  0
    3.8436   -7.2758   16.0578 C   0  0  0  0  0  0  0  0  0  0  0  0
    3.1882   -9.7190   17.2566 C   0  0  0  0  0  0  0  0  0  0  0  0
    5.3488   -6.1737   26.5092 C   0  0  0  0  0  0  0  0  0  0  0  0
    7.4567   -6.9464   27.2858 C   0  0  0  0  0  0  0  0  0  0  0  0
    0.1921   -5.7592   27.1123 C   0  0  0  0  0  0  0  0  0  0  0  0
    3.5517   -7.7407   25.9711 C   0  0  0  0  0  0  0  0  0  0  0  0
  1  4  4  0
  1 22  4  0
  2 20  4  0
  2 27  4  0
  3 12  4  0
  3 23  4  0
  4 25  4  0
  4 28  1  0
  5  8  4  0
  5 17  4  0
  6  7  4  0
  6 16  4  0
  7 18  4  0
  8 27  4  0
  9 13  4  0
  9 23  4  0
 10 11  1  0
 11 14  2  0
 11 27  1  0
 12 19  1  0
 12 24  4  0
 13 24  4  0
 15 18  1  0
 16 25  4  0
 16 26  4  0
 17 20  4  0
 17 28  1  0
 18 21  4  0
 21 26  4  0
 22 26  4  0
M  END
$$$$

 Created by Python create_sdf_string function

 28 30  0  0  0  0  0  0  0  0999 V2000
    5.7174   -8.4529   26.7190 C   0  0  0  0  0  0  0  0  0  0  0  0
    0.3974   -7.0711   27.5149 C   0  0  0  0  0  0  0  0  0  0  0  0
    2.5338   -7.6891   16.0102 C   0  0  0  0  0  0  0  0  0  0  0  0
    4.8690   -7.4380   26.4151 C   0  0  0  0  0  0  0  0  0  0  0  0
    2.3021   -5.6726   26.0378 C   0  0  0  0  0  0  0  0  0  0  0  0
    7.0880   -4.6163   27.0010 C   0  0  0  0  0  0  0  0  0  0  0  0
    8.3117   -4.3698   27.4436 C   0  0  0  0  0  0  0  0  0  0  0  0
    1.1339   -5.0515   26.3541 C   0  0  0  0  0  0  0  0  0  0  0  0
    4.8080   -8.0362   16.7101 C   0  0  0  0  0  0  0  0  0  0  0  0
   -1.2173   -3.9294   26.9717 O   0  0  0  0  0  0  0  0  0  0  0  0
   -1.0025   -5.0942   27.4586 C   0  0  0  0  0  0  0  0  0  0  0  0
    2.2474   -8.9123   16.6273 C   0  0  0  0  0  0  0  0  0  0  0  0
    4.4957   -9.2636   17.3041 C   0  0  0  0  0  0  0  0  0  0  0  0
   -1.8070   -5.6086   28.1920 O   0  0  0  0  0  0  0  0  0  0  0  0
   10.4296   -5.1799   28.3140 C   0  0  0  0  0  0  0  0  0  0  0  0
    6.6017   -5.9004   26.9187 C   0  0  0  0  0  0  0  0  0  0  0  0
    2.4761   -6.9940   26.4111 N   0  0  0  0  0  0  0  0  0  0  0  0
    9.1353   -5.4053   27.8239 C   0  0  0  0  0  0  0  0  0  0  0  0
    0.9922   -9.3232   16.5995 O   0  0  0  0  0  0  0  0  0  0  0  0
    1.5232   -7.6869   27.1182 C   0  0  0  0  0  0  0  0  0  0  0  0
    8.6878   -6.6715   27.7262 N   0  0  0  0  0  0  0  0  0  0  0  0
    6.9911   -8.2423   27.1808 C   0  0  0  0  0  0  0  0  0  0  0  0
    3.8436   -7.2758   16.0578 C   0  0  0  0  0  0  0  0  0  0  0  0
    3.1882   -9.7190   17.2566 C   0  0  0  0  0  0  0  0  0  0  0  0
    5.3488   -6.1737   26.5092 C   0  0  0  0  0  0  0  0  0  0  0  0
    7.4567   -6.9464   27.2858 C   0  0  0  0  0  0  0  0  0  0  0  0
    0.1921   -5.7592   27.1123 C   0  0  0  0  0  0  0  0  0  0  0  0
    3.5517   -7.7407   25.9711 C   0  0  0  0  0  0  0  0  0  0  0  0
  1  4  4  0
  1 22  4  0
  2 20  4  0
  2 27  4  0
  3 12  4  0
  3 23  4  0
  4 25  4  0
  4 28  1  0
  5  8  4  0
  5 17  4  0
  6  7  4  0
  6 16  4  0
  7 18  4  0
  8 27  4  0
  9 13  4  0
  9 23  4  0
 10 11  1  0
 11 14  2  0
 11 27  1  0
 12 19  1  0
 12 24  4  0
 13 24  4  0
 15 18  1  0
 16 25  4  0
 16 26  4  0
 17 20  4  0
 17 28  1  0
 18 21  4  0
 21 26  4  0
 22 26  4  0
M  END
$$$$

 Created by Python create_sdf_string function

 28 30  0  0  0  0  0  0  0  0999 V2000
    5.7174   -8.4529   26.7190 C   0  0  0  0  0  0  0  0  0  0  0  0
    0.3974   -7.0711   27.5149 C   0  0  0  0  0  0  0  0  0  0  0  0
    2.5338   -7.6891   16.0102 C   0  0  0  0  0  0  0  0  0  0  0  0
    4.8690   -7.4380   26.4151 C   0  0  0  0  0  0  0  0  0  0  0  0
    2.3021   -5.6726   26.0378 C   0  0  0  0  0  0  0  0  0  0  0  0
    7.0880   -4.6163   27.0010 C   0  0  0  0  0  0  0  0  0  0  0  0
    8.3117   -4.3698   27.4436 C   0  0  0  0  0  0  0  0  0  0  0  0
    1.1339   -5.0515   26.3541 C   0  0  0  0  0  0  0  0  0  0  0  0
    4.8080   -8.0362   16.7101 C   0  0  0  0  0  0  0  0  0  0  0  0
   -1.2173   -3.9294   26.9717 O   0  0  0  0  0  0  0  0  0  0  0  0
   -1.0025   -5.0942   27.4586 C   0  0  0  0  0  0  0  0  0  0  0  0
    2.2474   -8.9123   16.6273 C   0  0  0  0  0  0  0  0  0  0  0  0
    4.4957   -9.2636   17.3041 C   0  0  0  0  0  0  0  0  0  0  0  0
   -1.8070   -5.6086   28.1920 O   0  0  0  0  0  0  0  0  0  0  0  0
   10.4296   -5.1799   28.3140 C   0  0  0  0  0  0  0  0  0  0  0  0
    6.6017   -5.9004   26.9187 C   0  0  0  0  0  0  0  0  0  0  0  0
    2.4761   -6.9940   26.4111 N   0  0  0  0  0  0  0  0  0  0  0  0
    9.1353   -5.4053   27.8239 C   0  0  0  0  0  0  0  0  0  0  0  0
    0.9922   -9.3232   16.5995 O   0  0  0  0  0  0  0  0  0  0  0  0
    1.5232   -7.6869   27.1182 C   0  0  0  0  0  0  0  0  0  0  0  0
    8.6878   -6.6715   27.7262 N   0  0  0  0  0  0  0  0  0  0  0  0
    6.9911   -8.2423   27.1808 C   0  0  0  0  0  0  0  0  0  0  0  0
    3.8436   -7.2758   16.0578 C   0  0  0  0  0  0  0  0  0  0  0  0
    3.1882   -9.7190   17.2566 C   0  0  0  0  0  0  0  0  0  0  0  0
    5.3488   -6.1737   26.5092 C   0  0  0  0  0  0  0  0  0  0  0  0
    7.4567   -6.9464   27.2858 C   0  0  0  0  0  0  0  0  0  0  0  0
    0.1921   -5.7592   27.1123 C   0  0  0  0  0  0  0  0  0  0  0  0
    3.5517   -7.7407   25.9711 C   0  0  0  0  0  0  0  0  0  0  0  0
  1  4  4  0
  1 22  4  0
  2 20  4  0
  2 27  4  0
  3 12  4  0
  3 23  4  0
  4 25  4  0
  4 28  1  0
  5  8  4  0
  5 17  4  0
  6  7  4  0
  6 16  4  0
  7 18  4  0
  8 27  4  0
  9 13  4  0
  9 23  4  0
 10 11  1  0
 11 14  2  0
 11 27  1  0
 12 19  1  0
 12 24  4  0
 13 24  4  0
 15 18  1  0
 16 25  4  0
 16 26  4  0
 17 20  4  0
 17 28  1  0
 18 21  4  0
 21 26  4  0
 22 26  4  0
M  END
$$$$

 Created by Python create_sdf_string function

 28 30  0  0  0  0  0  0  0  0999 V2000
    5.7174   -8.4529   26.7190 C   0  0  0  0  0  0  0  0  0  0  0  0
    0.3974   -7.0711   27.5149 C   0  0  0  0  0  0  0  0  0  0  0  0
    2.5338   -7.6891   16.0102 C   0  0  0  0  0  0  0  0  0  0  0  0
    4.8690   -7.4380   26.4151 C   0  0  0  0  0  0  0  0  0  0  0  0
    2.3021   -5.6726   26.0378 C   0  0  0  0  0  0  0  0  0  0  0  0
    7.0880   -4.6163   27.0010 C   0  0  0  0  0  0  0  0  0  0  0  0
    8.3117   -4.3698   27.4436 C   0  0  0  0  0  0  0  0  0  0  0  0
    1.1339   -5.0515   26.3541 C   0  0  0  0  0  0  0  0  0  0  0  0
    4.8080   -8.0362   16.7101 C   0  0  0  0  0  0  0  0  0  0  0  0
   -1.2173   -3.9294   26.9717 O   0  0  0  0  0  0  0  0  0  0  0  0
   -1.0025   -5.0942   27.4586 C   0  0  0  0  0  0  0  0  0  0  0  0
    2.2474   -8.9123   16.6273 C   0  0  0  0  0  0  0  0  0  0  0  0
    4.4957   -9.2636   17.3041 C   0  0  0  0  0  0  0  0  0  0  0  0
   -1.8070   -5.6086   28.1920 O   0  0  0  0  0  0  0  0  0  0  0  0
   10.4296   -5.1799   28.3140 C   0  0  0  0  0  0  0  0  0  0  0  0
    6.6017   -5.9004   26.9187 C   0  0  0  0  0  0  0  0  0  0  0  0
    2.4761   -6.9940   26.4111 N   0  0  0  0  0  0  0  0  0  0  0  0
    9.1353   -5.4053   27.8239 C   0  0  0  0  0  0  0  0  0  0  0  0
    0.9922   -9.3232   16.5995 O   0  0  0  0  0  0  0  0  0  0  0  0
    1.5232   -7.6869   27.1182 C   0  0  0  0  0  0  0  0  0  0  0  0
    8.6878   -6.6715   27.7262 N   0  0  0  0  0  0  0  0  0  0  0  0
    6.9911   -8.2423   27.1808 C   0  0  0  0  0  0  0  0  0  0  0  0
    3.8436   -7.2758   16.0578 C   0  0  0  0  0  0  0  0  0  0  0  0
    3.1882   -9.7190   17.2566 C   0  0  0  0  0  0  0  0  0  0  0  0
    5.3488   -6.1737   26.5092 C   0  0  0  0  0  0  0  0  0  0  0  0
    7.4567   -6.9464   27.2858 C   0  0  0  0  0  0  0  0  0  0  0  0
    0.1921   -5.7592   27.1123 C   0  0  0  0  0  0  0  0  0  0  0  0
    3.5517   -7.7407   25.9711 C   0  0  0  0  0  0  0  0  0  0  0  0
  1  4  4  0
  1 22  4  0
  2 20  4  0
  2 27  4  0
  3 12  4  0
  3 23  4  0
  4 25  4  0
  4 28  1  0
  5  8  4  0
  5 17  4  0
  6  7  4  0
  6 16  4  0
  7 18  4  0
  8 27  4  0
  9 13  4  0
  9 23  4  0
 10 11  1  0
 11 14  2  0
 11 27  1  0
 12 19  1  0
 12 24  4  0
 13 24  4  0
 15 18  1  0
 16 25  4  0
 16 26  4  0
 17 20  4  0
 17 28  1  0
 18 21  4  0
 21 26  4  0
 22 26  4  0
M  END
$$$$

 Created by Python create_sdf_string function

 28 30  0  0  0  0  0  0  0  0999 V2000
    5.7174   -8.4529   26.7190 C   0  0  0  0  0  0  0  0  0  0  0  0
    0.3974   -7.0711   27.5149 C   0  0  0  0  0  0  0  0  0  0  0  0
    2.5338   -7.6891   16.0102 C   0  0  0  0  0  0  0  0  0  0  0  0
    4.8690   -7.4380   26.4151 C   0  0  0  0  0  0  0  0  0  0  0  0
    2.3021   -5.6726   26.0378 C   0  0  0  0  0  0  0  0  0  0  0  0
    7.0880   -4.6163   27.0010 C   0  0  0  0  0  0  0  0  0  0  0  0
    8.3117   -4.3698   27.4436 C   0  0  0  0  0  0  0  0  0  0  0  0
    1.1339   -5.0515   26.3541 C   0  0  0  0  0  0  0  0  0  0  0  0
    4.8080   -8.0362   16.7101 C   0  0  0  0  0  0  0  0  0  0  0  0
   -1.2173   -3.9294   26.9717 O   0  0  0  0  0  0  0  0  0  0  0  0
   -1.0025   -5.0942   27.4586 C   0  0  0  0  0  0  0  0  0  0  0  0
    2.2474   -8.9123   16.6273 C   0  0  0  0  0  0  0  0  0  0  0  0
    4.4957   -9.2636   17.3041 C   0  0  0  0  0  0  0  0  0  0  0  0
   -1.8070   -5.6086   28.1920 O   0  0  0  0  0  0  0  0  0  0  0  0
   10.4296   -5.1799   28.3140 C   0  0  0  0  0  0  0  0  0  0  0  0
    6.6017   -5.9004   26.9187 C   0  0  0  0  0  0  0  0  0  0  0  0
    2.4761   -6.9940   26.4111 N   0  0  0  0  0  0  0  0  0  0  0  0
    9.1353   -5.4053   27.8239 C   0  0  0  0  0  0  0  0  0  0  0  0
    0.9922   -9.3232   16.5995 O   0  0  0  0  0  0  0  0  0  0  0  0
    1.5232   -7.6869   27.1182 C   0  0  0  0  0  0  0  0  0  0  0  0
    8.6878   -6.6715   27.7262 N   0  0  0  0  0  0  0  0  0  0  0  0
    6.9911   -8.2423   27.1808 C   0  0  0  0  0  0  0  0  0  0  0  0
    3.8436   -7.2758   16.0578 C   0  0  0  0  0  0  0  0  0  0  0  0
    3.1882   -9.7190   17.2566 C   0  0  0  0  0  0  0  0  0  0  0  0
    5.3488   -6.1737   26.5092 C   0  0  0  0  0  0  0  0  0  0  0  0
    7.4567   -6.9464   27.2858 C   0  0  0  0  0  0  0  0  0  0  0  0
    0.1921   -5.7592   27.1123 C   0  0  0  0  0  0  0  0  0  0  0  0
    3.5517   -7.7407   25.9711 C   0  0  0  0  0  0  0  0  0  0  0  0
  1  4  4  0
  1 22  4  0
  2 20  4  0
  2 27  4  0
  3 12  4  0
  3 23  4  0
  4 25  4  0
  4 28  1  0
  5  8  4  0
  5 17  4  0
  6  7  4  0
  6 16  4  0
  7 18  4  0
  8 27  4  0
  9 13  4  0
  9 23  4  0
 10 11  1  0
 11 14  2  0
 11 27  1  0
 12 19  1  0
 12 24  4  0
 13 24  4  0
 15 18  1  0
 16 25  4  0
 16 26  4  0
 17 20  4  0
 17 28  1  0
 18 21  4  0
 21 26  4  0
 22 26  4  0
M  END
$$$$

 Created by Python create_sdf_string function

 28 30  0  0  0  0  0  0  0  0999 V2000
    5.7174   -8.4529   26.7190 C   0  0  0  0  0  0  0  0  0  0  0  0
    0.3974   -7.0711   27.5149 C   0  0  0  0  0  0  0  0  0  0  0  0
    2.5338   -7.6891   16.0102 C   0  0  0  0  0  0  0  0  0  0  0  0
    4.8690   -7.4380   26.4151 C   0  0  0  0  0  0  0  0  0  0  0  0
    2.3021   -5.6726   26.0378 C   0  0  0  0  0  0  0  0  0  0  0  0
    7.0880   -4.6163   27.0010 C   0  0  0  0  0  0  0  0  0  0  0  0
    8.3117   -4.3698   27.4436 C   0  0  0  0  0  0  0  0  0  0  0  0
    1.1339   -5.0515   26.3541 C   0  0  0  0  0  0  0  0  0  0  0  0
    4.8080   -8.0362   16.7101 C   0  0  0  0  0  0  0  0  0  0  0  0
   -1.2173   -3.9294   26.9717 O   0  0  0  0  0  0  0  0  0  0  0  0
   -1.0025   -5.0942   27.4586 C   0  0  0  0  0  0  0  0  0  0  0  0
    2.2474   -8.9123   16.6273 C   0  0  0  0  0  0  0  0  0  0  0  0
    4.4957   -9.2636   17.3041 C   0  0  0  0  0  0  0  0  0  0  0  0
   -1.8070   -5.6086   28.1920 O   0  0  0  0  0  0  0  0  0  0  0  0
   10.4296   -5.1799   28.3140 C   0  0  0  0  0  0  0  0  0  0  0  0
    6.6017   -5.9004   26.9187 C   0  0  0  0  0  0  0  0  0  0  0  0
    2.4761   -6.9940   26.4111 N   0  0  0  0  0  0  0  0  0  0  0  0
    9.1353   -5.4053   27.8239 C   0  0  0  0  0  0  0  0  0  0  0  0
    0.9922   -9.3232   16.5995 O   0  0  0  0  0  0  0  0  0  0  0  0
    1.5232   -7.6869   27.1182 C   0  0  0  0  0  0  0  0  0  0  0  0
    8.6878   -6.6715   27.7262 N   0  0  0  0  0  0  0  0  0  0  0  0
    6.9911   -8.2423   27.1808 C   0  0  0  0  0  0  0  0  0  0  0  0
    3.8436   -7.2758   16.0578 C   0  0  0  0  0  0  0  0  0  0  0  0
    3.1882   -9.7190   17.2566 C   0  0  0  0  0  0  0  0  0  0  0  0
    5.3488   -6.1737   26.5092 C   0  0  0  0  0  0  0  0  0  0  0  0
    7.4567   -6.9464   27.2858 C   0  0  0  0  0  0  0  0  0  0  0  0
    0.1921   -5.7592   27.1123 C   0  0  0  0  0  0  0  0  0  0  0  0
    3.5517   -7.7407   25.9711 C   0  0  0  0  0  0  0  0  0  0  0  0
  1  4  4  0
  1 22  4  0
  2 20  4  0
  2 27  4  0
  3 12  4  0
  3 23  4  0
  4 25  4  0
  4 28  1  0
  5  8  4  0
  5 17  4  0
  6  7  4  0
  6 16  4  0
  7 18  4  0
  8 27  4  0
  9 13  4  0
  9 23  4  0
 10 11  1  0
 11 14  2  0
 11 27  1  0
 12 19  1  0
 12 24  4  0
 13 24  4  0
 15 18  1  0
 16 25  4  0
 16 26  4  0
 17 20  4  0
 17 28  1  0
 18 21  4  0
 21 26  4  0
 22 26  4  0
M  END
$$$$

 Created by Python create_sdf_string function

 28 30  0  0  0  0  0  0  0  0999 V2000
    5.7174   -8.4529   26.7190 C   0  0  0  0  0  0  0  0  0  0  0  0
    0.3974   -7.0711   27.5149 C   0  0  0  0  0  0  0  0  0  0  0  0
    2.5338   -7.6891   16.0102 C   0  0  0  0  0  0  0  0  0  0  0  0
    4.8690   -7.4380   26.4151 C   0  0  0  0  0  0  0  0  0  0  0  0
    2.3021   -5.6726   26.0378 C   0  0  0  0  0  0  0  0  0  0  0  0
    7.0880   -4.6163   27.0010 C   0  0  0  0  0  0  0  0  0  0  0  0
    8.3117   -4.3698   27.4436 C   0  0  0  0  0  0  0  0  0  0  0  0
    1.1339   -5.0515   26.3541 C   0  0  0  0  0  0  0  0  0  0  0  0
    4.8080   -8.0362   16.7101 C   0  0  0  0  0  0  0  0  0  0  0  0
   -1.2173   -3.9294   26.9717 O   0  0  0  0  0  0  0  0  0  0  0  0
   -1.0025   -5.0942   27.4586 C   0  0  0  0  0  0  0  0  0  0  0  0
    2.2474   -8.9123   16.6273 C   0  0  0  0  0  0  0  0  0  0  0  0
    4.4957   -9.2636   17.3041 C   0  0  0  0  0  0  0  0  0  0  0  0
   -1.8070   -5.6086   28.1920 O   0  0  0  0  0  0  0  0  0  0  0  0
   10.4296   -5.1799   28.3140 C   0  0  0  0  0  0  0  0  0  0  0  0
    6.6017   -5.9004   26.9187 C   0  0  0  0  0  0  0  0  0  0  0  0
    2.4761   -6.9940   26.4111 N   0  0  0  0  0  0  0  0  0  0  0  0
    9.1353   -5.4053   27.8239 C   0  0  0  0  0  0  0  0  0  0  0  0
    0.9922   -9.3232   16.5995 O   0  0  0  0  0  0  0  0  0  0  0  0
    1.5232   -7.6869   27.1182 C   0  0  0  0  0  0  0  0  0  0  0  0
    8.6878   -6.6715   27.7262 N   0  0  0  0  0  0  0  0  0  0  0  0
    6.9911   -8.2423   27.1808 C   0  0  0  0  0  0  0  0  0  0  0  0
    3.8436   -7.2758   16.0578 C   0  0  0  0  0  0  0  0  0  0  0  0
    3.1882   -9.7190   17.2566 C   0  0  0  0  0  0  0  0  0  0  0  0
    5.3488   -6.1737   26.5092 C   0  0  0  0  0  0  0  0  0  0  0  0
    7.4567   -6.9464   27.2858 C   0  0  0  0  0  0  0  0  0  0  0  0
    0.1921   -5.7592   27.1123 C   0  0  0  0  0  0  0  0  0  0  0  0
    3.5517   -7.7407   25.9711 C   0  0  0  0  0  0  0  0  0  0  0  0
  1  4  4  0
  1 22  4  0
  2 20  4  0
  2 27  4  0
  3 12  4  0
  3 23  4  0
  4 25  4  0
  4 28  1  0
  5  8  4  0
  5 17  4  0
  6  7  4  0
  6 16  4  0
  7 18  4  0
  8 27  4  0
  9 13  4  0
  9 23  4  0
 10 11  1  0
 11 14  2  0
 11 27  1  0
 12 19  1  0
 12 24  4  0
 13 24  4  0
 15 18  1  0
 16 25  4  0
 16 26  4  0
 17 20  4  0
 17 28  1  0
 18 21  4  0
 21 26  4  0
 22 26  4  0
M  END
$$$$

 Created by Python create_sdf_string function

 28 30  0  0  0  0  0  0  0  0999 V2000
    5.7174   -8.4529   26.7190 C   0  0  0  0  0  0  0  0  0  0  0  0
    0.3974   -7.0711   27.5149 C   0  0  0  0  0  0  0  0  0  0  0  0
    2.5338   -7.6891   16.0102 C   0  0  0  0  0  0  0  0  0  0  0  0
    4.8690   -7.4380   26.4151 C   0  0  0  0  0  0  0  0  0  0  0  0
    2.3021   -5.6726   26.0378 C   0  0  0  0  0  0  0  0  0  0  0  0
    7.0880   -4.6163   27.0010 C   0  0  0  0  0  0  0  0  0  0  0  0
    8.3117   -4.3698   27.4436 C   0  0  0  0  0  0  0  0  0  0  0  0
    1.1339   -5.0515   26.3541 C   0  0  0  0  0  0  0  0  0  0  0  0
    4.8080   -8.0362   16.7101 C   0  0  0  0  0  0  0  0  0  0  0  0
   -1.2173   -3.9294   26.9717 O   0  0  0  0  0  0  0  0  0  0  0  0
   -1.0025   -5.0942   27.4586 C   0  0  0  0  0  0  0  0  0  0  0  0
    2.2474   -8.9123   16.6273 C   0  0  0  0  0  0  0  0  0  0  0  0
    4.4957   -9.2636   17.3041 C   0  0  0  0  0  0  0  0  0  0  0  0
   -1.8070   -5.6086   28.1920 O   0  0  0  0  0  0  0  0  0  0  0  0
   10.4296   -5.1799   28.3140 C   0  0  0  0  0  0  0  0  0  0  0  0
    6.6017   -5.9004   26.9187 C   0  0  0  0  0  0  0  0  0  0  0  0
    2.4761   -6.9940   26.4111 N   0  0  0  0  0  0  0  0  0  0  0  0
    9.1353   -5.4053   27.8239 C   0  0  0  0  0  0  0  0  0  0  0  0
    0.9922   -9.3232   16.5995 O   0  0  0  0  0  0  0  0  0  0  0  0
    1.5232   -7.6869   27.1182 C   0  0  0  0  0  0  0  0  0  0  0  0
    8.6878   -6.6715   27.7262 N   0  0  0  0  0  0  0  0  0  0  0  0
    6.9911   -8.2423   27.1808 C   0  0  0  0  0  0  0  0  0  0  0  0
    3.8436   -7.2758   16.0578 C   0  0  0  0  0  0  0  0  0  0  0  0
    3.1882   -9.7190   17.2566 C   0  0  0  0  0  0  0  0  0  0  0  0
    5.3488   -6.1737   26.5092 C   0  0  0  0  0  0  0  0  0  0  0  0
    7.4567   -6.9464   27.2858 C   0  0  0  0  0  0  0  0  0  0  0  0
    0.1921   -5.7592   27.1123 C   0  0  0  0  0  0  0  0  0  0  0  0
    3.5517   -7.7407   25.9711 C   0  0  0  0  0  0  0  0  0  0  0  0
  1  4  4  0
  1 22  4  0
  2 20  4  0
  2 27  4  0
  3 12  4  0
  3 23  4  0
  4 25  4  0
  4 28  1  0
  5  8  4  0
  5 17  4  0
  6  7  4  0
  6 16  4  0
  7 18  4  0
  8 27  4  0
  9 13  4  0
  9 23  4  0
 10 11  1  0
 11 14  2  0
 11 27  1  0
 12 19  1  0
 12 24  4  0
 13 24  4  0
 15 18  1  0
 16 25  4  0
 16 26  4  0
 17 20  4  0
 17 28  1  0
 18 21  4  0
 21 26  4  0
 22 26  4  0
M  END
$$$$

 Created by Python create_sdf_string function

 28 30  0  0  0  0  0  0  0  0999 V2000
    5.7174   -8.4529   26.7190 C   0  0  0  0  0  0  0  0  0  0  0  0
    0.3974   -7.0711   27.5149 C   0  0  0  0  0  0  0  0  0  0  0  0
    2.5338   -7.6891   16.0102 C   0  0  0  0  0  0  0  0  0  0  0  0
    4.8690   -7.4380   26.4151 C   0  0  0  0  0  0  0  0  0  0  0  0
    2.3021   -5.6726   26.0378 C   0  0  0  0  0  0  0  0  0  0  0  0
    7.0880   -4.6163   27.0010 C   0  0  0  0  0  0  0  0  0  0  0  0
    8.3117   -4.3698   27.4436 C   0  0  0  0  0  0  0  0  0  0  0  0
    1.1339   -5.0515   26.3541 C   0  0  0  0  0  0  0  0  0  0  0  0
    4.8080   -8.0362   16.7101 C   0  0  0  0  0  0  0  0  0  0  0  0
   -1.2173   -3.9294   26.9717 O   0  0  0  0  0  0  0  0  0  0  0  0
   -1.0025   -5.0942   27.4586 C   0  0  0  0  0  0  0  0  0  0  0  0
    2.2474   -8.9123   16.6273 C   0  0  0  0  0  0  0  0  0  0  0  0
    4.4957   -9.2636   17.3041 C   0  0  0  0  0  0  0  0  0  0  0  0
   -1.8070   -5.6086   28.1920 O   0  0  0  0  0  0  0  0  0  0  0  0
   10.4296   -5.1799   28.3140 C   0  0  0  0  0  0  0  0  0  0  0  0
    6.6017   -5.9004   26.9187 C   0  0  0  0  0  0  0  0  0  0  0  0
    2.4761   -6.9940   26.4111 N   0  0  0  0  0  0  0  0  0  0  0  0
    9.1353   -5.4053   27.8239 C   0  0  0  0  0  0  0  0  0  0  0  0
    0.9922   -9.3232   16.5995 O   0  0  0  0  0  0  0  0  0  0  0  0
    1.5232   -7.6869   27.1182 C   0  0  0  0  0  0  0  0  0  0  0  0
    8.6878   -6.6715   27.7262 N   0  0  0  0  0  0  0  0  0  0  0  0
    6.9911   -8.2423   27.1808 C   0  0  0  0  0  0  0  0  0  0  0  0
    3.8436   -7.2758   16.0578 C   0  0  0  0  0  0  0  0  0  0  0  0
    3.1882   -9.7190   17.2566 C   0  0  0  0  0  0  0  0  0  0  0  0
    5.3488   -6.1737   26.5092 C   0  0  0  0  0  0  0  0  0  0  0  0
    7.4567   -6.9464   27.2858 C   0  0  0  0  0  0  0  0  0  0  0  0
    0.1921   -5.7592   27.1123 C   0  0  0  0  0  0  0  0  0  0  0  0
    3.5517   -7.7407   25.9711 C   0  0  0  0  0  0  0  0  0  0  0  0
  1  4  4  0
  1 22  4  0
  2 20  4  0
  2 27  4  0
  3 12  4  0
  3 23  4  0
  4 25  4  0
  4 28  1  0
  5  8  4  0
  5 17  4  0
  6  7  4  0
  6 16  4  0
  7 18  4  0
  8 27  4  0
  9 13  4  0
  9 23  4  0
 10 11  1  0
 11 14  2  0
 11 27  1  0
 12 19  1  0
 12 24  4  0
 13 24  4  0
 15 18  1  0
 16 25  4  0
 16 26  4  0
 17 20  4  0
 17 28  1  0
 18 21  4  0
 21 26  4  0
 22 26  4  0
M  END
$$$$

 Created by Python create_sdf_string function

 28 30  0  0  0  0  0  0  0  0999 V2000
    5.7174   -8.4529   26.7190 C   0  0  0  0  0  0  0  0  0  0  0  0
    0.3974   -7.0711   27.5149 C   0  0  0  0  0  0  0  0  0  0  0  0
    2.5338   -7.6891   16.0102 C   0  0  0  0  0  0  0  0  0  0  0  0
    4.8690   -7.4380   26.4151 C   0  0  0  0  0  0  0  0  0  0  0  0
    2.3021   -5.6726   26.0378 C   0  0  0  0  0  0  0  0  0  0  0  0
    7.0880   -4.6163   27.0010 C   0  0  0  0  0  0  0  0  0  0  0  0
    8.3117   -4.3698   27.4436 C   0  0  0  0  0  0  0  0  0  0  0  0
    1.1339   -5.0515   26.3541 C   0  0  0  0  0  0  0  0  0  0  0  0
    4.8080   -8.0362   16.7101 C   0  0  0  0  0  0  0  0  0  0  0  0
   -1.2173   -3.9294   26.9717 O   0  0  0  0  0  0  0  0  0  0  0  0
   -1.0025   -5.0942   27.4586 C   0  0  0  0  0  0  0  0  0  0  0  0
    2.2474   -8.9123   16.6273 C   0  0  0  0  0  0  0  0  0  0  0  0
    4.4957   -9.2636   17.3041 C   0  0  0  0  0  0  0  0  0  0  0  0
   -1.8070   -5.6086   28.1920 O   0  0  0  0  0  0  0  0  0  0  0  0
   10.4296   -5.1799   28.3140 C   0  0  0  0  0  0  0  0  0  0  0  0
    6.6017   -5.9004   26.9187 C   0  0  0  0  0  0  0  0  0  0  0  0
    2.4761   -6.9940   26.4111 N   0  0  0  0  0  0  0  0  0  0  0  0
    9.1353   -5.4053   27.8239 C   0  0  0  0  0  0  0  0  0  0  0  0
    0.9922   -9.3232   16.5995 O   0  0  0  0  0  0  0  0  0  0  0  0
    1.5232   -7.6869   27.1182 C   0  0  0  0  0  0  0  0  0  0  0  0
    8.6878   -6.6715   27.7262 N   0  0  0  0  0  0  0  0  0  0  0  0
    6.9911   -8.2423   27.1808 C   0  0  0  0  0  0  0  0  0  0  0  0
    3.8436   -7.2758   16.0578 C   0  0  0  0  0  0  0  0  0  0  0  0
    3.1882   -9.7190   17.2566 C   0  0  0  0  0  0  0  0  0  0  0  0
    5.3488   -6.1737   26.5092 C   0  0  0  0  0  0  0  0  0  0  0  0
    7.4567   -6.9464   27.2858 C   0  0  0  0  0  0  0  0  0  0  0  0
    0.1921   -5.7592   27.1123 C   0  0  0  0  0  0  0  0  0  0  0  0
    3.5517   -7.7407   25.9711 C   0  0  0  0  0  0  0  0  0  0  0  0
  1  4  4  0
  1 22  4  0
  2 20  4  0
  2 27  4  0
  3 12  4  0
  3 23  4  0
  4 25  4  0
  4 28  1  0
  5  8  4  0
  5 17  4  0
  6  7  4  0
  6 16  4  0
  7 18  4  0
  8 27  4  0
  9 13  4  0
  9 23  4  0
 10 11  1  0
 11 14  2  0
 11 27  1  0
 12 19  1  0
 12 24  4  0
 13 24  4  0
 15 18  1  0
 16 25  4  0
 16 26  4  0
 17 20  4  0
 17 28  1  0
 18 21  4  0
 21 26  4  0
 22 26  4  0
M  END
$$$$

 Created by Python create_sdf_string function

 28 30  0  0  0  0  0  0  0  0999 V2000
    5.7174   -8.4529   26.7190 C   0  0  0  0  0  0  0  0  0  0  0  0
    0.3974   -7.0711   27.5149 C   0  0  0  0  0  0  0  0  0  0  0  0
    2.5338   -7.6891   16.0102 C   0  0  0  0  0  0  0  0  0  0  0  0
    4.8690   -7.4380   26.4151 C   0  0  0  0  0  0  0  0  0  0  0  0
    2.3021   -5.6726   26.0378 C   0  0  0  0  0  0  0  0  0  0  0  0
    7.0880   -4.6163   27.0010 C   0  0  0  0  0  0  0  0  0  0  0  0
    8.3117   -4.3698   27.4436 C   0  0  0  0  0  0  0  0  0  0  0  0
    1.1339   -5.0515   26.3541 C   0  0  0  0  0  0  0  0  0  0  0  0
    4.8080   -8.0362   16.7101 C   0  0  0  0  0  0  0  0  0  0  0  0
   -1.2173   -3.9294   26.9717 O   0  0  0  0  0  0  0  0  0  0  0  0
   -1.0025   -5.0942   27.4586 C   0  0  0  0  0  0  0  0  0  0  0  0
    2.2474   -8.9123   16.6273 C   0  0  0  0  0  0  0  0  0  0  0  0
    4.4957   -9.2636   17.3041 C   0  0  0  0  0  0  0  0  0  0  0  0
   -1.8070   -5.6086   28.1920 O   0  0  0  0  0  0  0  0  0  0  0  0
   10.4296   -5.1799   28.3140 C   0  0  0  0  0  0  0  0  0  0  0  0
    6.6017   -5.9004   26.9187 C   0  0  0  0  0  0  0  0  0  0  0  0
    2.4761   -6.9940   26.4111 N   0  0  0  0  0  0  0  0  0  0  0  0
    9.1353   -5.4053   27.8239 C   0  0  0  0  0  0  0  0  0  0  0  0
    0.9922   -9.3232   16.5995 O   0  0  0  0  0  0  0  0  0  0  0  0
    1.5232   -7.6869   27.1182 C   0  0  0  0  0  0  0  0  0  0  0  0
    8.6878   -6.6715   27.7262 N   0  0  0  0  0  0  0  0  0  0  0  0
    6.9911   -8.2423   27.1808 C   0  0  0  0  0  0  0  0  0  0  0  0
    3.8436   -7.2758   16.0578 C   0  0  0  0  0  0  0  0  0  0  0  0
    3.1882   -9.7190   17.2566 C   0  0  0  0  0  0  0  0  0  0  0  0
    5.3488   -6.1737   26.5092 C   0  0  0  0  0  0  0  0  0  0  0  0
    7.4567   -6.9464   27.2858 C   0  0  0  0  0  0  0  0  0  0  0  0
    0.1921   -5.7592   27.1123 C   0  0  0  0  0  0  0  0  0  0  0  0
    3.5517   -7.7407   25.9711 C   0  0  0  0  0  0  0  0  0  0  0  0
  1  4  4  0
  1 22  4  0
  2 20  4  0
  2 27  4  0
  3 12  4  0
  3 23  4  0
  4 25  4  0
  4 28  1  0
  5  8  4  0
  5 17  4  0
  6  7  4  0
  6 16  4  0
  7 18  4  0
  8 27  4  0
  9 13  4  0
  9 23  4  0
 10 11  1  0
 11 14  2  0
 11 27  1  0
 12 19  1  0
 12 24  4  0
 13 24  4  0
 15 18  1  0
 16 25  4  0
 16 26  4  0
 17 20  4  0
 17 28  1  0
 18 21  4  0
 21 26  4  0
 22 26  4  0
M  END
$$$$

 Created by Python create_sdf_string function

 28 30  0  0  0  0  0  0  0  0999 V2000
    5.7174   -8.4529   26.7190 C   0  0  0  0  0  0  0  0  0  0  0  0
    0.3974   -7.0711   27.5149 C   0  0  0  0  0  0  0  0  0  0  0  0
    2.5338   -7.6891   16.0102 C   0  0  0  0  0  0  0  0  0  0  0  0
    4.8690   -7.4380   26.4151 C   0  0  0  0  0  0  0  0  0  0  0  0
    2.3021   -5.6726   26.0378 C   0  0  0  0  0  0  0  0  0  0  0  0
    7.0880   -4.6163   27.0010 C   0  0  0  0  0  0  0  0  0  0  0  0
    8.3117   -4.3698   27.4436 C   0  0  0  0  0  0  0  0  0  0  0  0
    1.1339   -5.0515   26.3541 C   0  0  0  0  0  0  0  0  0  0  0  0
    4.8080   -8.0362   16.7101 C   0  0  0  0  0  0  0  0  0  0  0  0
   -1.2173   -3.9294   26.9717 O   0  0  0  0  0  0  0  0  0  0  0  0
   -1.0025   -5.0942   27.4586 C   0  0  0  0  0  0  0  0  0  0  0  0
    2.2474   -8.9123   16.6273 C   0  0  0  0  0  0  0  0  0  0  0  0
    4.4957   -9.2636   17.3041 C   0  0  0  0  0  0  0  0  0  0  0  0
   -1.8070   -5.6086   28.1920 O   0  0  0  0  0  0  0  0  0  0  0  0
   10.4296   -5.1799   28.3140 C   0  0  0  0  0  0  0  0  0  0  0  0
    6.6017   -5.9004   26.9187 C   0  0  0  0  0  0  0  0  0  0  0  0
    2.4761   -6.9940   26.4111 N   0  0  0  0  0  0  0  0  0  0  0  0
    9.1353   -5.4053   27.8239 C   0  0  0  0  0  0  0  0  0  0  0  0
    0.9922   -9.3232   16.5995 O   0  0  0  0  0  0  0  0  0  0  0  0
    1.5232   -7.6869   27.1182 C   0  0  0  0  0  0  0  0  0  0  0  0
    8.6878   -6.6715   27.7262 N   0  0  0  0  0  0  0  0  0  0  0  0
    6.9911   -8.2423   27.1808 C   0  0  0  0  0  0  0  0  0  0  0  0
    3.8436   -7.2758   16.0578 C   0  0  0  0  0  0  0  0  0  0  0  0
    3.1882   -9.7190   17.2566 C   0  0  0  0  0  0  0  0  0  0  0  0
    5.3488   -6.1737   26.5092 C   0  0  0  0  0  0  0  0  0  0  0  0
    7.4567   -6.9464   27.2858 C   0  0  0  0  0  0  0  0  0  0  0  0
    0.1921   -5.7592   27.1123 C   0  0  0  0  0  0  0  0  0  0  0  0
    3.5517   -7.7407   25.9711 C   0  0  0  0  0  0  0  0  0  0  0  0
  1  4  4  0
  1 22  4  0
  2 20  4  0
  2 27  4  0
  3 12  4  0
  3 23  4  0
  4 25  4  0
  4 28  1  0
  5  8  4  0
  5 17  4  0
  6  7  4  0
  6 16  4  0
  7 18  4  0
  8 27  4  0
  9 13  4  0
  9 23  4  0
 10 11  1  0
 11 14  2  0
 11 27  1  0
 12 19  1  0
 12 24  4  0
 13 24  4  0
 15 18  1  0
 16 25  4  0
 16 26  4  0
 17 20  4  0
 17 28  1  0
 18 21  4  0
 21 26  4  0
 22 26  4  0
M  END
$$$$

 Created by Python create_sdf_string function

 28 30  0  0  0  0  0  0  0  0999 V2000
    5.7174   -8.4529   26.7190 C   0  0  0  0  0  0  0  0  0  0  0  0
    0.3974   -7.0711   27.5149 C   0  0  0  0  0  0  0  0  0  0  0  0
    2.5338   -7.6891   16.0102 C   0  0  0  0  0  0  0  0  0  0  0  0
    4.8690   -7.4380   26.4151 C   0  0  0  0  0  0  0  0  0  0  0  0
    2.3021   -5.6726   26.0378 C   0  0  0  0  0  0  0  0  0  0  0  0
    7.0880   -4.6163   27.0010 C   0  0  0  0  0  0  0  0  0  0  0  0
    8.3117   -4.3698   27.4436 C   0  0  0  0  0  0  0  0  0  0  0  0
    1.1339   -5.0515   26.3541 C   0  0  0  0  0  0  0  0  0  0  0  0
    4.8080   -8.0362   16.7101 C   0  0  0  0  0  0  0  0  0  0  0  0
   -1.2173   -3.9294   26.9717 O   0  0  0  0  0  0  0  0  0  0  0  0
   -1.0025   -5.0942   27.4586 C   0  0  0  0  0  0  0  0  0  0  0  0
    2.2474   -8.9123   16.6273 C   0  0  0  0  0  0  0  0  0  0  0  0
    4.4957   -9.2636   17.3041 C   0  0  0  0  0  0  0  0  0  0  0  0
   -1.8070   -5.6086   28.1920 O   0  0  0  0  0  0  0  0  0  0  0  0
   10.4296   -5.1799   28.3140 C   0  0  0  0  0  0  0  0  0  0  0  0
    6.6017   -5.9004   26.9187 C   0  0  0  0  0  0  0  0  0  0  0  0
    2.4761   -6.9940   26.4111 N   0  0  0  0  0  0  0  0  0  0  0  0
    9.1353   -5.4053   27.8239 C   0  0  0  0  0  0  0  0  0  0  0  0
    0.9922   -9.3232   16.5995 O   0  0  0  0  0  0  0  0  0  0  0  0
    1.5232   -7.6869   27.1182 C   0  0  0  0  0  0  0  0  0  0  0  0
    8.6878   -6.6715   27.7262 N   0  0  0  0  0  0  0  0  0  0  0  0
    6.9911   -8.2423   27.1808 C   0  0  0  0  0  0  0  0  0  0  0  0
    3.8436   -7.2758   16.0578 C   0  0  0  0  0  0  0  0  0  0  0  0
    3.1882   -9.7190   17.2566 C   0  0  0  0  0  0  0  0  0  0  0  0
    5.3488   -6.1737   26.5092 C   0  0  0  0  0  0  0  0  0  0  0  0
    7.4567   -6.9464   27.2858 C   0  0  0  0  0  0  0  0  0  0  0  0
    0.1921   -5.7592   27.1123 C   0  0  0  0  0  0  0  0  0  0  0  0
    3.5517   -7.7407   25.9711 C   0  0  0  0  0  0  0  0  0  0  0  0
  1  4  4  0
  1 22  4  0
  2 20  4  0
  2 27  4  0
  3 12  4  0
  3 23  4  0
  4 25  4  0
  4 28  1  0
  5  8  4  0
  5 17  4  0
  6  7  4  0
  6 16  4  0
  7 18  4  0
  8 27  4  0
  9 13  4  0
  9 23  4  0
 10 11  1  0
 11 14  2  0
 11 27  1  0
 12 19  1  0
 12 24  4  0
 13 24  4  0
 15 18  1  0
 16 25  4  0
 16 26  4  0
 17 20  4  0
 17 28  1  0
 18 21  4  0
 21 26  4  0
 22 26  4  0
M  END
$$$$

 Created by Python create_sdf_string function

 28 30  0  0  0  0  0  0  0  0999 V2000
    5.7174   -8.4529   26.7190 C   0  0  0  0  0  0  0  0  0  0  0  0
    0.3974   -7.0711   27.5149 C   0  0  0  0  0  0  0  0  0  0  0  0
    2.5338   -7.6891   16.0102 C   0  0  0  0  0  0  0  0  0  0  0  0
    4.8690   -7.4380   26.4151 C   0  0  0  0  0  0  0  0  0  0  0  0
    2.3021   -5.6726   26.0378 C   0  0  0  0  0  0  0  0  0  0  0  0
    7.0880   -4.6163   27.0010 C   0  0  0  0  0  0  0  0  0  0  0  0
    8.3117   -4.3698   27.4436 C   0  0  0  0  0  0  0  0  0  0  0  0
    1.1339   -5.0515   26.3541 C   0  0  0  0  0  0  0  0  0  0  0  0
    4.8080   -8.0362   16.7101 C   0  0  0  0  0  0  0  0  0  0  0  0
   -1.2173   -3.9294   26.9717 O   0  0  0  0  0  0  0  0  0  0  0  0
   -1.0025   -5.0942   27.4586 C   0  0  0  0  0  0  0  0  0  0  0  0
    2.2474   -8.9123   16.6273 C   0  0  0  0  0  0  0  0  0  0  0  0
    4.4957   -9.2636   17.3041 C   0  0  0  0  0  0  0  0  0  0  0  0
   -1.8070   -5.6086   28.1920 O   0  0  0  0  0  0  0  0  0  0  0  0
   10.4296   -5.1799   28.3140 C   0  0  0  0  0  0  0  0  0  0  0  0
    6.6017   -5.9004   26.9187 C   0  0  0  0  0  0  0  0  0  0  0  0
    2.4761   -6.9940   26.4111 N   0  0  0  0  0  0  0  0  0  0  0  0
    9.1353   -5.4053   27.8239 C   0  0  0  0  0  0  0  0  0  0  0  0
    0.9922   -9.3232   16.5995 O   0  0  0  0  0  0  0  0  0  0  0  0
    1.5232   -7.6869   27.1182 C   0  0  0  0  0  0  0  0  0  0  0  0
    8.6878   -6.6715   27.7262 N   0  0  0  0  0  0  0  0  0  0  0  0
    6.9911   -8.2423   27.1808 C   0  0  0  0  0  0  0  0  0  0  0  0
    3.8436   -7.2758   16.0578 C   0  0  0  0  0  0  0  0  0  0  0  0
    3.1882   -9.7190   17.2566 C   0  0  0  0  0  0  0  0  0  0  0  0
    5.3488   -6.1737   26.5092 C   0  0  0  0  0  0  0  0  0  0  0  0
    7.4567   -6.9464   27.2858 C   0  0  0  0  0  0  0  0  0  0  0  0
    0.1921   -5.7592   27.1123 C   0  0  0  0  0  0  0  0  0  0  0  0
    3.5517   -7.7407   25.9711 C   0  0  0  0  0  0  0  0  0  0  0  0
  1  4  4  0
  1 22  4  0
  2 20  4  0
  2 27  4  0
  3 12  4  0
  3 23  4  0
  4 25  4  0
  4 28  1  0
  5  8  4  0
  5 17  4  0
  6  7  4  0
  6 16  4  0
  7 18  4  0
  8 27  4  0
  9 13  4  0
  9 23  4  0
 10 11  1  0
 11 14  2  0
 11 27  1  0
 12 19  1  0
 12 24  4  0
 13 24  4  0
 15 18  1  0
 16 25  4  0
 16 26  4  0
 17 20  4  0
 17 28  1  0
 18 21  4  0
 21 26  4  0
 22 26  4  0
M  END
$$$$

 Created by Python create_sdf_string function

 28 30  0  0  0  0  0  0  0  0999 V2000
    5.7174   -8.4529   26.7190 C   0  0  0  0  0  0  0  0  0  0  0  0
    0.3974   -7.0711   27.5149 C   0  0  0  0  0  0  0  0  0  0  0  0
    2.5338   -7.6891   16.0102 C   0  0  0  0  0  0  0  0  0  0  0  0
    4.8690   -7.4380   26.4151 C   0  0  0  0  0  0  0  0  0  0  0  0
    2.3021   -5.6726   26.0378 C   0  0  0  0  0  0  0  0  0  0  0  0
    7.0880   -4.6163   27.0010 C   0  0  0  0  0  0  0  0  0  0  0  0
    8.3117   -4.3698   27.4436 C   0  0  0  0  0  0  0  0  0  0  0  0
    1.1339   -5.0515   26.3541 C   0  0  0  0  0  0  0  0  0  0  0  0
    4.8080   -8.0362   16.7101 C   0  0  0  0  0  0  0  0  0  0  0  0
   -1.2173   -3.9294   26.9717 O   0  0  0  0  0  0  0  0  0  0  0  0
   -1.0025   -5.0942   27.4586 C   0  0  0  0  0  0  0  0  0  0  0  0
    2.2474   -8.9123   16.6273 C   0  0  0  0  0  0  0  0  0  0  0  0
    4.4957   -9.2636   17.3041 C   0  0  0  0  0  0  0  0  0  0  0  0
   -1.8070   -5.6086   28.1920 O   0  0  0  0  0  0  0  0  0  0  0  0
   10.4296   -5.1799   28.3140 C   0  0  0  0  0  0  0  0  0  0  0  0
    6.6017   -5.9004   26.9187 C   0  0  0  0  0  0  0  0  0  0  0  0
    2.4761   -6.9940   26.4111 N   0  0  0  0  0  0  0  0  0  0  0  0
    9.1353   -5.4053   27.8239 C   0  0  0  0  0  0  0  0  0  0  0  0
    0.9922   -9.3232   16.5995 O   0  0  0  0  0  0  0  0  0  0  0  0
    1.5232   -7.6869   27.1182 C   0  0  0  0  0  0  0  0  0  0  0  0
    8.6878   -6.6715   27.7262 N   0  0  0  0  0  0  0  0  0  0  0  0
    6.9911   -8.2423   27.1808 C   0  0  0  0  0  0  0  0  0  0  0  0
    3.8436   -7.2758   16.0578 C   0  0  0  0  0  0  0  0  0  0  0  0
    3.1882   -9.7190   17.2566 C   0  0  0  0  0  0  0  0  0  0  0  0
    5.3488   -6.1737   26.5092 C   0  0  0  0  0  0  0  0  0  0  0  0
    7.4567   -6.9464   27.2858 C   0  0  0  0  0  0  0  0  0  0  0  0
    0.1921   -5.7592   27.1123 C   0  0  0  0  0  0  0  0  0  0  0  0
    3.5517   -7.7407   25.9711 C   0  0  0  0  0  0  0  0  0  0  0  0
  1  4  4  0
  1 22  4  0
  2 20  4  0
  2 27  4  0
  3 12  4  0
  3 23  4  0
  4 25  4  0
  4 28  1  0
  5  8  4  0
  5 17  4  0
  6  7  4  0
  6 16  4  0
  7 18  4  0
  8 27  4  0
  9 13  4  0
  9 23  4  0
 10 11  1  0
 11 14  2  0
 11 27  1  0
 12 19  1  0
 12 24  4  0
 13 24  4  0
 15 18  1  0
 16 25  4  0
 16 26  4  0
 17 20  4  0
 17 28  1  0
 18 21  4  0
 21 26  4  0
 22 26  4  0
M  END
$$$$

 Created by Python create_sdf_string function

 28 30  0  0  0  0  0  0  0  0999 V2000
    5.7174   -8.4529   26.7190 C   0  0  0  0  0  0  0  0  0  0  0  0
    0.3974   -7.0711   27.5149 C   0  0  0  0  0  0  0  0  0  0  0  0
    2.5338   -7.6891   16.0102 C   0  0  0  0  0  0  0  0  0  0  0  0
    4.8690   -7.4380   26.4151 C   0  0  0  0  0  0  0  0  0  0  0  0
    2.3021   -5.6726   26.0378 C   0  0  0  0  0  0  0  0  0  0  0  0
    7.0880   -4.6163   27.0010 C   0  0  0  0  0  0  0  0  0  0  0  0
    8.3117   -4.3698   27.4436 C   0  0  0  0  0  0  0  0  0  0  0  0
    1.1339   -5.0515   26.3541 C   0  0  0  0  0  0  0  0  0  0  0  0
    4.8080   -8.0362   16.7101 C   0  0  0  0  0  0  0  0  0  0  0  0
   -1.2173   -3.9294   26.9717 O   0  0  0  0  0  0  0  0  0  0  0  0
   -1.0025   -5.0942   27.4586 C   0  0  0  0  0  0  0  0  0  0  0  0
    2.2474   -8.9123   16.6273 C   0  0  0  0  0  0  0  0  0  0  0  0
    4.4957   -9.2636   17.3041 C   0  0  0  0  0  0  0  0  0  0  0  0
   -1.8070   -5.6086   28.1920 O   0  0  0  0  0  0  0  0  0  0  0  0
   10.4296   -5.1799   28.3140 C   0  0  0  0  0  0  0  0  0  0  0  0
    6.6017   -5.9004   26.9187 C   0  0  0  0  0  0  0  0  0  0  0  0
    2.4761   -6.9940   26.4111 N   0  0  0  0  0  0  0  0  0  0  0  0
    9.1353   -5.4053   27.8239 C   0  0  0  0  0  0  0  0  0  0  0  0
    0.9922   -9.3232   16.5995 O   0  0  0  0  0  0  0  0  0  0  0  0
    1.5232   -7.6869   27.1182 C   0  0  0  0  0  0  0  0  0  0  0  0
    8.6878   -6.6715   27.7262 N   0  0  0  0  0  0  0  0  0  0  0  0
    6.9911   -8.2423   27.1808 C   0  0  0  0  0  0  0  0  0  0  0  0
    3.8436   -7.2758   16.0578 C   0  0  0  0  0  0  0  0  0  0  0  0
    3.1882   -9.7190   17.2566 C   0  0  0  0  0  0  0  0  0  0  0  0
    5.3488   -6.1737   26.5092 C   0  0  0  0  0  0  0  0  0  0  0  0
    7.4567   -6.9464   27.2858 C   0  0  0  0  0  0  0  0  0  0  0  0
    0.1921   -5.7592   27.1123 C   0  0  0  0  0  0  0  0  0  0  0  0
    3.5517   -7.7407   25.9711 C   0  0  0  0  0  0  0  0  0  0  0  0
  1  4  4  0
  1 22  4  0
  2 20  4  0
  2 27  4  0
  3 12  4  0
  3 23  4  0
  4 25  4  0
  4 28  1  0
  5  8  4  0
  5 17  4  0
  6  7  4  0
  6 16  4  0
  7 18  4  0
  8 27  4  0
  9 13  4  0
  9 23  4  0
 10 11  1  0
 11 14  2  0
 11 27  1  0
 12 19  1  0
 12 24  4  0
 13 24  4  0
 15 18  1  0
 16 25  4  0
 16 26  4  0
 17 20  4  0
 17 28  1  0
 18 21  4  0
 21 26  4  0
 22 26  4  0
M  END
$$$$

 Created by Python create_sdf_string function

 28 30  0  0  0  0  0  0  0  0999 V2000
    5.7174   -8.4529   26.7190 C   0  0  0  0  0  0  0  0  0  0  0  0
    0.3974   -7.0711   27.5149 C   0  0  0  0  0  0  0  0  0  0  0  0
    2.5338   -7.6891   16.0102 C   0  0  0  0  0  0  0  0  0  0  0  0
    4.8690   -7.4380   26.4151 C   0  0  0  0  0  0  0  0  0  0  0  0
    2.3021   -5.6726   26.0378 C   0  0  0  0  0  0  0  0  0  0  0  0
    7.0880   -4.6163   27.0010 C   0  0  0  0  0  0  0  0  0  0  0  0
    8.3117   -4.3698   27.4436 C   0  0  0  0  0  0  0  0  0  0  0  0
    1.1339   -5.0515   26.3541 C   0  0  0  0  0  0  0  0  0  0  0  0
    4.8080   -8.0362   16.7101 C   0  0  0  0  0  0  0  0  0  0  0  0
   -1.2173   -3.9294   26.9717 O   0  0  0  0  0  0  0  0  0  0  0  0
   -1.0025   -5.0942   27.4586 C   0  0  0  0  0  0  0  0  0  0  0  0
    2.2474   -8.9123   16.6273 C   0  0  0  0  0  0  0  0  0  0  0  0
    4.4957   -9.2636   17.3041 C   0  0  0  0  0  0  0  0  0  0  0  0
   -1.8070   -5.6086   28.1920 O   0  0  0  0  0  0  0  0  0  0  0  0
   10.4296   -5.1799   28.3140 C   0  0  0  0  0  0  0  0  0  0  0  0
    6.6017   -5.9004   26.9187 C   0  0  0  0  0  0  0  0  0  0  0  0
    2.4761   -6.9940   26.4111 N   0  0  0  0  0  0  0  0  0  0  0  0
    9.1353   -5.4053   27.8239 C   0  0  0  0  0  0  0  0  0  0  0  0
    0.9922   -9.3232   16.5995 O   0  0  0  0  0  0  0  0  0  0  0  0
    1.5232   -7.6869   27.1182 C   0  0  0  0  0  0  0  0  0  0  0  0
    8.6878   -6.6715   27.7262 N   0  0  0  0  0  0  0  0  0  0  0  0
    6.9911   -8.2423   27.1808 C   0  0  0  0  0  0  0  0  0  0  0  0
    3.8436   -7.2758   16.0578 C   0  0  0  0  0  0  0  0  0  0  0  0
    3.1882   -9.7190   17.2566 C   0  0  0  0  0  0  0  0  0  0  0  0
    5.3488   -6.1737   26.5092 C   0  0  0  0  0  0  0  0  0  0  0  0
    7.4567   -6.9464   27.2858 C   0  0  0  0  0  0  0  0  0  0  0  0
    0.1921   -5.7592   27.1123 C   0  0  0  0  0  0  0  0  0  0  0  0
    3.5517   -7.7407   25.9711 C   0  0  0  0  0  0  0  0  0  0  0  0
  1  4  4  0
  1 22  4  0
  2 20  4  0
  2 27  4  0
  3 12  4  0
  3 23  4  0
  4 25  4  0
  4 28  1  0
  5  8  4  0
  5 17  4  0
  6  7  4  0
  6 16  4  0
  7 18  4  0
  8 27  4  0
  9 13  4  0
  9 23  4  0
 10 11  1  0
 11 14  2  0
 11 27  1  0
 12 19  1  0
 12 24  4  0
 13 24  4  0
 15 18  1  0
 16 25  4  0
 16 26  4  0
 17 20  4  0
 17 28  1  0
 18 21  4  0
 21 26  4  0
 22 26  4  0
M  END
$$$$

 Created by Python create_sdf_string function

 28 30  0  0  0  0  0  0  0  0999 V2000
    5.7174   -8.4529   26.7190 C   0  0  0  0  0  0  0  0  0  0  0  0
    0.3974   -7.0711   27.5149 C   0  0  0  0  0  0  0  0  0  0  0  0
    2.5338   -7.6891   16.0102 C   0  0  0  0  0  0  0  0  0  0  0  0
    4.8690   -7.4380   26.4151 C   0  0  0  0  0  0  0  0  0  0  0  0
    2.3021   -5.6726   26.0378 C   0  0  0  0  0  0  0  0  0  0  0  0
    7.0880   -4.6163   27.0010 C   0  0  0  0  0  0  0  0  0  0  0  0
    8.3117   -4.3698   27.4436 C   0  0  0  0  0  0  0  0  0  0  0  0
    1.1339   -5.0515   26.3541 C   0  0  0  0  0  0  0  0  0  0  0  0
    4.8080   -8.0362   16.7101 C   0  0  0  0  0  0  0  0  0  0  0  0
   -1.2173   -3.9294   26.9717 O   0  0  0  0  0  0  0  0  0  0  0  0
   -1.0025   -5.0942   27.4586 C   0  0  0  0  0  0  0  0  0  0  0  0
    2.2474   -8.9123   16.6273 C   0  0  0  0  0  0  0  0  0  0  0  0
    4.4957   -9.2636   17.3041 C   0  0  0  0  0  0  0  0  0  0  0  0
   -1.8070   -5.6086   28.1920 O   0  0  0  0  0  0  0  0  0  0  0  0
   10.4296   -5.1799   28.3140 C   0  0  0  0  0  0  0  0  0  0  0  0
    6.6017   -5.9004   26.9187 C   0  0  0  0  0  0  0  0  0  0  0  0
    2.4761   -6.9940   26.4111 N   0  0  0  0  0  0  0  0  0  0  0  0
    9.1353   -5.4053   27.8239 C   0  0  0  0  0  0  0  0  0  0  0  0
    0.9922   -9.3232   16.5995 O   0  0  0  0  0  0  0  0  0  0  0  0
    1.5232   -7.6869   27.1182 C   0  0  0  0  0  0  0  0  0  0  0  0
    8.6878   -6.6715   27.7262 N   0  0  0  0  0  0  0  0  0  0  0  0
    6.9911   -8.2423   27.1808 C   0  0  0  0  0  0  0  0  0  0  0  0
    3.8436   -7.2758   16.0578 C   0  0  0  0  0  0  0  0  0  0  0  0
    3.1882   -9.7190   17.2566 C   0  0  0  0  0  0  0  0  0  0  0  0
    5.3488   -6.1737   26.5092 C   0  0  0  0  0  0  0  0  0  0  0  0
    7.4567   -6.9464   27.2858 C   0  0  0  0  0  0  0  0  0  0  0  0
    0.1921   -5.7592   27.1123 C   0  0  0  0  0  0  0  0  0  0  0  0
    3.5517   -7.7407   25.9711 C   0  0  0  0  0  0  0  0  0  0  0  0
  1  4  4  0
  1 22  4  0
  2 20  4  0
  2 27  4  0
  3 12  4  0
  3 23  4  0
  4 25  4  0
  4 28  1  0
  5  8  4  0
  5 17  4  0
  6  7  4  0
  6 16  4  0
  7 18  4  0
  8 27  4  0
  9 13  4  0
  9 23  4  0
 10 11  1  0
 11 14  2  0
 11 27  1  0
 12 19  1  0
 12 24  4  0
 13 24  4  0
 15 18  1  0
 16 25  4  0
 16 26  4  0
 17 20  4  0
 17 28  1  0
 18 21  4  0
 21 26  4  0
 22 26  4  0
M  END
$$$$

 Created by Python create_sdf_string function

 28 30  0  0  0  0  0  0  0  0999 V2000
    5.7174   -8.4529   26.7190 C   0  0  0  0  0  0  0  0  0  0  0  0
    0.3974   -7.0711   27.5149 C   0  0  0  0  0  0  0  0  0  0  0  0
    2.5338   -7.6891   16.0102 C   0  0  0  0  0  0  0  0  0  0  0  0
    4.8690   -7.4380   26.4151 C   0  0  0  0  0  0  0  0  0  0  0  0
    2.3021   -5.6726   26.0378 C   0  0  0  0  0  0  0  0  0  0  0  0
    7.0880   -4.6163   27.0010 C   0  0  0  0  0  0  0  0  0  0  0  0
    8.3117   -4.3698   27.4436 C   0  0  0  0  0  0  0  0  0  0  0  0
    1.1339   -5.0515   26.3541 C   0  0  0  0  0  0  0  0  0  0  0  0
    4.8080   -8.0362   16.7101 C   0  0  0  0  0  0  0  0  0  0  0  0
   -1.2173   -3.9294   26.9717 O   0  0  0  0  0  0  0  0  0  0  0  0
   -1.0025   -5.0942   27.4586 C   0  0  0  0  0  0  0  0  0  0  0  0
    2.2474   -8.9123   16.6273 C   0  0  0  0  0  0  0  0  0  0  0  0
    4.4957   -9.2636   17.3041 C   0  0  0  0  0  0  0  0  0  0  0  0
   -1.8070   -5.6086   28.1920 O   0  0  0  0  0  0  0  0  0  0  0  0
   10.4296   -5.1799   28.3140 C   0  0  0  0  0  0  0  0  0  0  0  0
    6.6017   -5.9004   26.9187 C   0  0  0  0  0  0  0  0  0  0  0  0
    2.4761   -6.9940   26.4111 N   0  0  0  0  0  0  0  0  0  0  0  0
    9.1353   -5.4053   27.8239 C   0  0  0  0  0  0  0  0  0  0  0  0
    0.9922   -9.3232   16.5995 O   0  0  0  0  0  0  0  0  0  0  0  0
    1.5232   -7.6869   27.1182 C   0  0  0  0  0  0  0  0  0  0  0  0
    8.6878   -6.6715   27.7262 N   0  0  0  0  0  0  0  0  0  0  0  0
    6.9911   -8.2423   27.1808 C   0  0  0  0  0  0  0  0  0  0  0  0
    3.8436   -7.2758   16.0578 C   0  0  0  0  0  0  0  0  0  0  0  0
    3.1882   -9.7190   17.2566 C   0  0  0  0  0  0  0  0  0  0  0  0
    5.3488   -6.1737   26.5092 C   0  0  0  0  0  0  0  0  0  0  0  0
    7.4567   -6.9464   27.2858 C   0  0  0  0  0  0  0  0  0  0  0  0
    0.1921   -5.7592   27.1123 C   0  0  0  0  0  0  0  0  0  0  0  0
    3.5517   -7.7407   25.9711 C   0  0  0  0  0  0  0  0  0  0  0  0
  1  4  4  0
  1 22  4  0
  2 20  4  0
  2 27  4  0
  3 12  4  0
  3 23  4  0
  4 25  4  0
  4 28  1  0
  5  8  4  0
  5 17  4  0
  6  7  4  0
  6 16  4  0
  7 18  4  0
  8 27  4  0
  9 13  4  0
  9 23  4  0
 10 11  1  0
 11 14  2  0
 11 27  1  0
 12 19  1  0
 12 24  4  0
 13 24  4  0
 15 18  1  0
 16 25  4  0
 16 26  4  0
 17 20  4  0
 17 28  1  0
 18 21  4  0
 21 26  4  0
 22 26  4  0
M  END
$$$$

 Created by Python create_sdf_string function

 28 30  0  0  0  0  0  0  0  0999 V2000
    5.7174   -8.4529   26.7190 C   0  0  0  0  0  0  0  0  0  0  0  0
    0.3974   -7.0711   27.5149 C   0  0  0  0  0  0  0  0  0  0  0  0
    2.5338   -7.6891   16.0102 C   0  0  0  0  0  0  0  0  0  0  0  0
    4.8690   -7.4380   26.4151 C   0  0  0  0  0  0  0  0  0  0  0  0
    2.3021   -5.6726   26.0378 C   0  0  0  0  0  0  0  0  0  0  0  0
    7.0880   -4.6163   27.0010 C   0  0  0  0  0  0  0  0  0  0  0  0
    8.3117   -4.3698   27.4436 C   0  0  0  0  0  0  0  0  0  0  0  0
    1.1339   -5.0515   26.3541 C   0  0  0  0  0  0  0  0  0  0  0  0
    4.8080   -8.0362   16.7101 C   0  0  0  0  0  0  0  0  0  0  0  0
   -1.2173   -3.9294   26.9717 O   0  0  0  0  0  0  0  0  0  0  0  0
   -1.0025   -5.0942   27.4586 C   0  0  0  0  0  0  0  0  0  0  0  0
    2.2474   -8.9123   16.6273 C   0  0  0  0  0  0  0  0  0  0  0  0
    4.4957   -9.2636   17.3041 C   0  0  0  0  0  0  0  0  0  0  0  0
   -1.8070   -5.6086   28.1920 O   0  0  0  0  0  0  0  0  0  0  0  0
   10.4296   -5.1799   28.3140 C   0  0  0  0  0  0  0  0  0  0  0  0
    6.6017   -5.9004   26.9187 C   0  0  0  0  0  0  0  0  0  0  0  0
    2.4761   -6.9940   26.4111 N   0  0  0  0  0  0  0  0  0  0  0  0
    9.1353   -5.4053   27.8239 C   0  0  0  0  0  0  0  0  0  0  0  0
    0.9922   -9.3232   16.5995 O   0  0  0  0  0  0  0  0  0  0  0  0
    1.5232   -7.6869   27.1182 C   0  0  0  0  0  0  0  0  0  0  0  0
    8.6878   -6.6715   27.7262 N   0  0  0  0  0  0  0  0  0  0  0  0
    6.9911   -8.2423   27.1808 C   0  0  0  0  0  0  0  0  0  0  0  0
    3.8436   -7.2758   16.0578 C   0  0  0  0  0  0  0  0  0  0  0  0
    3.1882   -9.7190   17.2566 C   0  0  0  0  0  0  0  0  0  0  0  0
    5.3488   -6.1737   26.5092 C   0  0  0  0  0  0  0  0  0  0  0  0
    7.4567   -6.9464   27.2858 C   0  0  0  0  0  0  0  0  0  0  0  0
    0.1921   -5.7592   27.1123 C   0  0  0  0  0  0  0  0  0  0  0  0
    3.5517   -7.7407   25.9711 C   0  0  0  0  0  0  0  0  0  0  0  0
  1  4  4  0
  1 22  4  0
  2 20  4  0
  2 27  4  0
  3 12  4  0
  3 23  4  0
  4 25  4  0
  4 28  1  0
  5  8  4  0
  5 17  4  0
  6  7  4  0
  6 16  4  0
  7 18  4  0
  8 27  4  0
  9 13  4  0
  9 23  4  0
 10 11  1  0
 11 14  2  0
 11 27  1  0
 12 19  1  0
 12 24  4  0
 13 24  4  0
 15 18  1  0
 16 25  4  0
 16 26  4  0
 17 20  4  0
 17 28  1  0
 18 21  4  0
 21 26  4  0
 22 26  4  0
M  END
$$$$

 Created by Python create_sdf_string function

 28 30  0  0  0  0  0  0  0  0999 V2000
    5.7174   -8.4529   26.7190 C   0  0  0  0  0  0  0  0  0  0  0  0
    0.3974   -7.0711   27.5149 C   0  0  0  0  0  0  0  0  0  0  0  0
    2.5338   -7.6891   16.0102 C   0  0  0  0  0  0  0  0  0  0  0  0
    4.8690   -7.4380   26.4151 C   0  0  0  0  0  0  0  0  0  0  0  0
    2.3021   -5.6726   26.0378 C   0  0  0  0  0  0  0  0  0  0  0  0
    7.0880   -4.6163   27.0010 C   0  0  0  0  0  0  0  0  0  0  0  0
    8.3117   -4.3698   27.4436 C   0  0  0  0  0  0  0  0  0  0  0  0
    1.1339   -5.0515   26.3541 C   0  0  0  0  0  0  0  0  0  0  0  0
    4.8080   -8.0362   16.7101 C   0  0  0  0  0  0  0  0  0  0  0  0
   -1.2173   -3.9294   26.9717 O   0  0  0  0  0  0  0  0  0  0  0  0
   -1.0025   -5.0942   27.4586 C   0  0  0  0  0  0  0  0  0  0  0  0
    2.2474   -8.9123   16.6273 C   0  0  0  0  0  0  0  0  0  0  0  0
    4.4957   -9.2636   17.3041 C   0  0  0  0  0  0  0  0  0  0  0  0
   -1.8070   -5.6086   28.1920 O   0  0  0  0  0  0  0  0  0  0  0  0
   10.4296   -5.1799   28.3140 C   0  0  0  0  0  0  0  0  0  0  0  0
    6.6017   -5.9004   26.9187 C   0  0  0  0  0  0  0  0  0  0  0  0
    2.4761   -6.9940   26.4111 N   0  0  0  0  0  0  0  0  0  0  0  0
    9.1353   -5.4053   27.8239 C   0  0  0  0  0  0  0  0  0  0  0  0
    0.9922   -9.3232   16.5995 O   0  0  0  0  0  0  0  0  0  0  0  0
    1.5232   -7.6869   27.1182 C   0  0  0  0  0  0  0  0  0  0  0  0
    8.6878   -6.6715   27.7262 N   0  0  0  0  0  0  0  0  0  0  0  0
    6.9911   -8.2423   27.1808 C   0  0  0  0  0  0  0  0  0  0  0  0
    3.8436   -7.2758   16.0578 C   0  0  0  0  0  0  0  0  0  0  0  0
    3.1882   -9.7190   17.2566 C   0  0  0  0  0  0  0  0  0  0  0  0
    5.3488   -6.1737   26.5092 C   0  0  0  0  0  0  0  0  0  0  0  0
    7.4567   -6.9464   27.2858 C   0  0  0  0  0  0  0  0  0  0  0  0
    0.1921   -5.7592   27.1123 C   0  0  0  0  0  0  0  0  0  0  0  0
    3.5517   -7.7407   25.9711 C   0  0  0  0  0  0  0  0  0  0  0  0
  1  4  4  0
  1 22  4  0
  2 20  4  0
  2 27  4  0
  3 12  4  0
  3 23  4  0
  4 25  4  0
  4 28  1  0
  5  8  4  0
  5 17  4  0
  6  7  4  0
  6 16  4  0
  7 18  4  0
  8 27  4  0
  9 13  4  0
  9 23  4  0
 10 11  1  0
 11 14  2  0
 11 27  1  0
 12 19  1  0
 12 24  4  0
 13 24  4  0
 15 18  1  0
 16 25  4  0
 16 26  4  0
 17 20  4  0
 17 28  1  0
 18 21  4  0
 21 26  4  0
 22 26  4  0
M  END
$$$$

 Created by Python create_sdf_string function

 28 30  0  0  0  0  0  0  0  0999 V2000
    5.7174   -8.4529   26.7190 C   0  0  0  0  0  0  0  0  0  0  0  0
    0.3974   -7.0711   27.5149 C   0  0  0  0  0  0  0  0  0  0  0  0
    2.5338   -7.6891   16.0102 C   0  0  0  0  0  0  0  0  0  0  0  0
    4.8690   -7.4380   26.4151 C   0  0  0  0  0  0  0  0  0  0  0  0
    2.3021   -5.6726   26.0378 C   0  0  0  0  0  0  0  0  0  0  0  0
    7.0880   -4.6163   27.0010 C   0  0  0  0  0  0  0  0  0  0  0  0
    8.3117   -4.3698   27.4436 C   0  0  0  0  0  0  0  0  0  0  0  0
    1.1339   -5.0515   26.3541 C   0  0  0  0  0  0  0  0  0  0  0  0
    4.8080   -8.0362   16.7101 C   0  0  0  0  0  0  0  0  0  0  0  0
   -1.2173   -3.9294   26.9717 O   0  0  0  0  0  0  0  0  0  0  0  0
   -1.0025   -5.0942   27.4586 C   0  0  0  0  0  0  0  0  0  0  0  0
    2.2474   -8.9123   16.6273 C   0  0  0  0  0  0  0  0  0  0  0  0
    4.4957   -9.2636   17.3041 C   0  0  0  0  0  0  0  0  0  0  0  0
   -1.8070   -5.6086   28.1920 O   0  0  0  0  0  0  0  0  0  0  0  0
   10.4296   -5.1799   28.3140 C   0  0  0  0  0  0  0  0  0  0  0  0
    6.6017   -5.9004   26.9187 C   0  0  0  0  0  0  0  0  0  0  0  0
    2.4761   -6.9940   26.4111 N   0  0  0  0  0  0  0  0  0  0  0  0
    9.1353   -5.4053   27.8239 C   0  0  0  0  0  0  0  0  0  0  0  0
    0.9922   -9.3232   16.5995 O   0  0  0  0  0  0  0  0  0  0  0  0
    1.5232   -7.6869   27.1182 C   0  0  0  0  0  0  0  0  0  0  0  0
    8.6878   -6.6715   27.7262 N   0  0  0  0  0  0  0  0  0  0  0  0
    6.9911   -8.2423   27.1808 C   0  0  0  0  0  0  0  0  0  0  0  0
    3.8436   -7.2758   16.0578 C   0  0  0  0  0  0  0  0  0  0  0  0
    3.1882   -9.7190   17.2566 C   0  0  0  0  0  0  0  0  0  0  0  0
    5.3488   -6.1737   26.5092 C   0  0  0  0  0  0  0  0  0  0  0  0
    7.4567   -6.9464   27.2858 C   0  0  0  0  0  0  0  0  0  0  0  0
    0.1921   -5.7592   27.1123 C   0  0  0  0  0  0  0  0  0  0  0  0
    3.5517   -7.7407   25.9711 C   0  0  0  0  0  0  0  0  0  0  0  0
  1  4  4  0
  1 22  4  0
  2 20  4  0
  2 27  4  0
  3 12  4  0
  3 23  4  0
  4 25  4  0
  4 28  1  0
  5  8  4  0
  5 17  4  0
  6  7  4  0
  6 16  4  0
  7 18  4  0
  8 27  4  0
  9 13  4  0
  9 23  4  0
 10 11  1  0
 11 14  2  0
 11 27  1  0
 12 19  1  0
 12 24  4  0
 13 24  4  0
 15 18  1  0
 16 25  4  0
 16 26  4  0
 17 20  4  0
 17 28  1  0
 18 21  4  0
 21 26  4  0
 22 26  4  0
M  END
$$$$

 Created by Python create_sdf_string function

 28 30  0  0  0  0  0  0  0  0999 V2000
    5.7174   -8.4529   26.7190 C   0  0  0  0  0  0  0  0  0  0  0  0
    0.3974   -7.0711   27.5149 C   0  0  0  0  0  0  0  0  0  0  0  0
    2.5338   -7.6891   16.0102 C   0  0  0  0  0  0  0  0  0  0  0  0
    4.8690   -7.4380   26.4151 C   0  0  0  0  0  0  0  0  0  0  0  0
    2.3021   -5.6726   26.0378 C   0  0  0  0  0  0  0  0  0  0  0  0
    7.0880   -4.6163   27.0010 C   0  0  0  0  0  0  0  0  0  0  0  0
    8.3117   -4.3698   27.4436 C   0  0  0  0  0  0  0  0  0  0  0  0
    1.1339   -5.0515   26.3541 C   0  0  0  0  0  0  0  0  0  0  0  0
    4.8080   -8.0362   16.7101 C   0  0  0  0  0  0  0  0  0  0  0  0
   -1.2173   -3.9294   26.9717 O   0  0  0  0  0  0  0  0  0  0  0  0
   -1.0025   -5.0942   27.4586 C   0  0  0  0  0  0  0  0  0  0  0  0
    2.2474   -8.9123   16.6273 C   0  0  0  0  0  0  0  0  0  0  0  0
    4.4957   -9.2636   17.3041 C   0  0  0  0  0  0  0  0  0  0  0  0
   -1.8070   -5.6086   28.1920 O   0  0  0  0  0  0  0  0  0  0  0  0
   10.4296   -5.1799   28.3140 C   0  0  0  0  0  0  0  0  0  0  0  0
    6.6017   -5.9004   26.9187 C   0  0  0  0  0  0  0  0  0  0  0  0
    2.4761   -6.9940   26.4111 N   0  0  0  0  0  0  0  0  0  0  0  0
    9.1353   -5.4053   27.8239 C   0  0  0  0  0  0  0  0  0  0  0  0
    0.9922   -9.3232   16.5995 O   0  0  0  0  0  0  0  0  0  0  0  0
    1.5232   -7.6869   27.1182 C   0  0  0  0  0  0  0  0  0  0  0  0
    8.6878   -6.6715   27.7262 N   0  0  0  0  0  0  0  0  0  0  0  0
    6.9911   -8.2423   27.1808 C   0  0  0  0  0  0  0  0  0  0  0  0
    3.8436   -7.2758   16.0578 C   0  0  0  0  0  0  0  0  0  0  0  0
    3.1882   -9.7190   17.2566 C   0  0  0  0  0  0  0  0  0  0  0  0
    5.3488   -6.1737   26.5092 C   0  0  0  0  0  0  0  0  0  0  0  0
    7.4567   -6.9464   27.2858 C   0  0  0  0  0  0  0  0  0  0  0  0
    0.1921   -5.7592   27.1123 C   0  0  0  0  0  0  0  0  0  0  0  0
    3.5517   -7.7407   25.9711 C   0  0  0  0  0  0  0  0  0  0  0  0
  1  4  4  0
  1 22  4  0
  2 20  4  0
  2 27  4  0
  3 12  4  0
  3 23  4  0
  4 25  4  0
  4 28  1  0
  5  8  4  0
  5 17  4  0
  6  7  4  0
  6 16  4  0
  7 18  4  0
  8 27  4  0
  9 13  4  0
  9 23  4  0
 10 11  1  0
 11 14  2  0
 11 27  1  0
 12 19  1  0
 12 24  4  0
 13 24  4  0
 15 18  1  0
 16 25  4  0
 16 26  4  0
 17 20  4  0
 17 28  1  0
 18 21  4  0
 21 26  4  0
 22 26  4  0
M  END
$$$$

 Created by Python create_sdf_string function

 28 30  0  0  0  0  0  0  0  0999 V2000
    5.7174   -8.4529   26.7190 C   0  0  0  0  0  0  0  0  0  0  0  0
    0.3974   -7.0711   27.5149 C   0  0  0  0  0  0  0  0  0  0  0  0
    2.5338   -7.6891   16.0102 C   0  0  0  0  0  0  0  0  0  0  0  0
    4.8690   -7.4380   26.4151 C   0  0  0  0  0  0  0  0  0  0  0  0
    2.3021   -5.6726   26.0378 C   0  0  0  0  0  0  0  0  0  0  0  0
    7.0880   -4.6163   27.0010 C   0  0  0  0  0  0  0  0  0  0  0  0
    8.3117   -4.3698   27.4436 C   0  0  0  0  0  0  0  0  0  0  0  0
    1.1339   -5.0515   26.3541 C   0  0  0  0  0  0  0  0  0  0  0  0
    4.8080   -8.0362   16.7101 C   0  0  0  0  0  0  0  0  0  0  0  0
   -1.2173   -3.9294   26.9717 O   0  0  0  0  0  0  0  0  0  0  0  0
   -1.0025   -5.0942   27.4586 C   0  0  0  0  0  0  0  0  0  0  0  0
    2.2474   -8.9123   16.6273 C   0  0  0  0  0  0  0  0  0  0  0  0
    4.4957   -9.2636   17.3041 C   0  0  0  0  0  0  0  0  0  0  0  0
   -1.8070   -5.6086   28.1920 O   0  0  0  0  0  0  0  0  0  0  0  0
   10.4296   -5.1799   28.3140 C   0  0  0  0  0  0  0  0  0  0  0  0
    6.6017   -5.9004   26.9187 C   0  0  0  0  0  0  0  0  0  0  0  0
    2.4761   -6.9940   26.4111 N   0  0  0  0  0  0  0  0  0  0  0  0
    9.1353   -5.4053   27.8239 C   0  0  0  0  0  0  0  0  0  0  0  0
    0.9922   -9.3232   16.5995 O   0  0  0  0  0  0  0  0  0  0  0  0
    1.5232   -7.6869   27.1182 C   0  0  0  0  0  0  0  0  0  0  0  0
    8.6878   -6.6715   27.7262 N   0  0  0  0  0  0  0  0  0  0  0  0
    6.9911   -8.2423   27.1808 C   0  0  0  0  0  0  0  0  0  0  0  0
    3.8436   -7.2758   16.0578 C   0  0  0  0  0  0  0  0  0  0  0  0
    3.1882   -9.7190   17.2566 C   0  0  0  0  0  0  0  0  0  0  0  0
    5.3488   -6.1737   26.5092 C   0  0  0  0  0  0  0  0  0  0  0  0
    7.4567   -6.9464   27.2858 C   0  0  0  0  0  0  0  0  0  0  0  0
    0.1921   -5.7592   27.1123 C   0  0  0  0  0  0  0  0  0  0  0  0
    3.5517   -7.7407   25.9711 C   0  0  0  0  0  0  0  0  0  0  0  0
  1  4  4  0
  1 22  4  0
  2 20  4  0
  2 27  4  0
  3 12  4  0
  3 23  4  0
  4 25  4  0
  4 28  1  0
  5  8  4  0
  5 17  4  0
  6  7  4  0
  6 16  4  0
  7 18  4  0
  8 27  4  0
  9 13  4  0
  9 23  4  0
 10 11  1  0
 11 14  2  0
 11 27  1  0
 12 19  1  0
 12 24  4  0
 13 24  4  0
 15 18  1  0
 16 25  4  0
 16 26  4  0
 17 20  4  0
 17 28  1  0
 18 21  4  0
 21 26  4  0
 22 26  4  0
M  END
$$$$

 Created by Python create_sdf_string function

 28 30  0  0  0  0  0  0  0  0999 V2000
    5.7174   -8.4529   26.7190 C   0  0  0  0  0  0  0  0  0  0  0  0
    0.3974   -7.0711   27.5149 C   0  0  0  0  0  0  0  0  0  0  0  0
    2.5338   -7.6891   16.0102 C   0  0  0  0  0  0  0  0  0  0  0  0
    4.8690   -7.4380   26.4151 C   0  0  0  0  0  0  0  0  0  0  0  0
    2.3021   -5.6726   26.0378 C   0  0  0  0  0  0  0  0  0  0  0  0
    7.0880   -4.6163   27.0010 C   0  0  0  0  0  0  0  0  0  0  0  0
    8.3117   -4.3698   27.4436 C   0  0  0  0  0  0  0  0  0  0  0  0
    1.1339   -5.0515   26.3541 C   0  0  0  0  0  0  0  0  0  0  0  0
    4.8080   -8.0362   16.7101 C   0  0  0  0  0  0  0  0  0  0  0  0
   -1.2173   -3.9294   26.9717 O   0  0  0  0  0  0  0  0  0  0  0  0
   -1.0025   -5.0942   27.4586 C   0  0  0  0  0  0  0  0  0  0  0  0
    2.2474   -8.9123   16.6273 C   0  0  0  0  0  0  0  0  0  0  0  0
    4.4957   -9.2636   17.3041 C   0  0  0  0  0  0  0  0  0  0  0  0
   -1.8070   -5.6086   28.1920 O   0  0  0  0  0  0  0  0  0  0  0  0
   10.4296   -5.1799   28.3140 C   0  0  0  0  0  0  0  0  0  0  0  0
    6.6017   -5.9004   26.9187 C   0  0  0  0  0  0  0  0  0  0  0  0
    2.4761   -6.9940   26.4111 N   0  0  0  0  0  0  0  0  0  0  0  0
    9.1353   -5.4053   27.8239 C   0  0  0  0  0  0  0  0  0  0  0  0
    0.9922   -9.3232   16.5995 O   0  0  0  0  0  0  0  0  0  0  0  0
    1.5232   -7.6869   27.1182 C   0  0  0  0  0  0  0  0  0  0  0  0
    8.6878   -6.6715   27.7262 N   0  0  0  0  0  0  0  0  0  0  0  0
    6.9911   -8.2423   27.1808 C   0  0  0  0  0  0  0  0  0  0  0  0
    3.8436   -7.2758   16.0578 C   0  0  0  0  0  0  0  0  0  0  0  0
    3.1882   -9.7190   17.2566 C   0  0  0  0  0  0  0  0  0  0  0  0
    5.3488   -6.1737   26.5092 C   0  0  0  0  0  0  0  0  0  0  0  0
    7.4567   -6.9464   27.2858 C   0  0  0  0  0  0  0  0  0  0  0  0
    0.1921   -5.7592   27.1123 C   0  0  0  0  0  0  0  0  0  0  0  0
    3.5517   -7.7407   25.9711 C   0  0  0  0  0  0  0  0  0  0  0  0
  1  4  4  0
  1 22  4  0
  2 20  4  0
  2 27  4  0
  3 12  4  0
  3 23  4  0
  4 25  4  0
  4 28  1  0
  5  8  4  0
  5 17  4  0
  6  7  4  0
  6 16  4  0
  7 18  4  0
  8 27  4  0
  9 13  4  0
  9 23  4  0
 10 11  1  0
 11 14  2  0
 11 27  1  0
 12 19  1  0
 12 24  4  0
 13 24  4  0
 15 18  1  0
 16 25  4  0
 16 26  4  0
 17 20  4  0
 17 28  1  0
 18 21  4  0
 21 26  4  0
 22 26  4  0
M  END
$$$$

 Created by Python create_sdf_string function

 28 30  0  0  0  0  0  0  0  0999 V2000
    5.7174   -8.4529   26.7190 C   0  0  0  0  0  0  0  0  0  0  0  0
    0.3974   -7.0711   27.5149 C   0  0  0  0  0  0  0  0  0  0  0  0
    2.5338   -7.6891   16.0102 C   0  0  0  0  0  0  0  0  0  0  0  0
    4.8690   -7.4380   26.4151 C   0  0  0  0  0  0  0  0  0  0  0  0
    2.3021   -5.6726   26.0378 C   0  0  0  0  0  0  0  0  0  0  0  0
    7.0880   -4.6163   27.0010 C   0  0  0  0  0  0  0  0  0  0  0  0
    8.3117   -4.3698   27.4436 C   0  0  0  0  0  0  0  0  0  0  0  0
    1.1339   -5.0515   26.3541 C   0  0  0  0  0  0  0  0  0  0  0  0
    4.8080   -8.0362   16.7101 C   0  0  0  0  0  0  0  0  0  0  0  0
   -1.2173   -3.9294   26.9717 O   0  0  0  0  0  0  0  0  0  0  0  0
   -1.0025   -5.0942   27.4586 C   0  0  0  0  0  0  0  0  0  0  0  0
    2.2474   -8.9123   16.6273 C   0  0  0  0  0  0  0  0  0  0  0  0
    4.4957   -9.2636   17.3041 C   0  0  0  0  0  0  0  0  0  0  0  0
   -1.8070   -5.6086   28.1920 O   0  0  0  0  0  0  0  0  0  0  0  0
   10.4296   -5.1799   28.3140 C   0  0  0  0  0  0  0  0  0  0  0  0
    6.6017   -5.9004   26.9187 C   0  0  0  0  0  0  0  0  0  0  0  0
    2.4761   -6.9940   26.4111 N   0  0  0  0  0  0  0  0  0  0  0  0
    9.1353   -5.4053   27.8239 C   0  0  0  0  0  0  0  0  0  0  0  0
    0.9922   -9.3232   16.5995 O   0  0  0  0  0  0  0  0  0  0  0  0
    1.5232   -7.6869   27.1182 C   0  0  0  0  0  0  0  0  0  0  0  0
    8.6878   -6.6715   27.7262 N   0  0  0  0  0  0  0  0  0  0  0  0
    6.9911   -8.2423   27.1808 C   0  0  0  0  0  0  0  0  0  0  0  0
    3.8436   -7.2758   16.0578 C   0  0  0  0  0  0  0  0  0  0  0  0
    3.1882   -9.7190   17.2566 C   0  0  0  0  0  0  0  0  0  0  0  0
    5.3488   -6.1737   26.5092 C   0  0  0  0  0  0  0  0  0  0  0  0
    7.4567   -6.9464   27.2858 C   0  0  0  0  0  0  0  0  0  0  0  0
    0.1921   -5.7592   27.1123 C   0  0  0  0  0  0  0  0  0  0  0  0
    3.5517   -7.7407   25.9711 C   0  0  0  0  0  0  0  0  0  0  0  0
  1  4  4  0
  1 22  4  0
  2 20  4  0
  2 27  4  0
  3 12  4  0
  3 23  4  0
  4 25  4  0
  4 28  1  0
  5  8  4  0
  5 17  4  0
  6  7  4  0
  6 16  4  0
  7 18  4  0
  8 27  4  0
  9 13  4  0
  9 23  4  0
 10 11  1  0
 11 14  2  0
 11 27  1  0
 12 19  1  0
 12 24  4  0
 13 24  4  0
 15 18  1  0
 16 25  4  0
 16 26  4  0
 17 20  4  0
 17 28  1  0
 18 21  4  0
 21 26  4  0
 22 26  4  0
M  END
$$$$

 Created by Python create_sdf_string function

 28 30  0  0  0  0  0  0  0  0999 V2000
    5.7174   -8.4529   26.7190 C   0  0  0  0  0  0  0  0  0  0  0  0
    0.3974   -7.0711   27.5149 C   0  0  0  0  0  0  0  0  0  0  0  0
    2.5338   -7.6891   16.0102 C   0  0  0  0  0  0  0  0  0  0  0  0
    4.8690   -7.4380   26.4151 C   0  0  0  0  0  0  0  0  0  0  0  0
    2.3021   -5.6726   26.0378 C   0  0  0  0  0  0  0  0  0  0  0  0
    7.0880   -4.6163   27.0010 C   0  0  0  0  0  0  0  0  0  0  0  0
    8.3117   -4.3698   27.4436 C   0  0  0  0  0  0  0  0  0  0  0  0
    1.1339   -5.0515   26.3541 C   0  0  0  0  0  0  0  0  0  0  0  0
    4.8080   -8.0362   16.7101 C   0  0  0  0  0  0  0  0  0  0  0  0
   -1.2173   -3.9294   26.9717 O   0  0  0  0  0  0  0  0  0  0  0  0
   -1.0025   -5.0942   27.4586 C   0  0  0  0  0  0  0  0  0  0  0  0
    2.2474   -8.9123   16.6273 C   0  0  0  0  0  0  0  0  0  0  0  0
    4.4957   -9.2636   17.3041 C   0  0  0  0  0  0  0  0  0  0  0  0
   -1.8070   -5.6086   28.1920 O   0  0  0  0  0  0  0  0  0  0  0  0
   10.4296   -5.1799   28.3140 C   0  0  0  0  0  0  0  0  0  0  0  0
    6.6017   -5.9004   26.9187 C   0  0  0  0  0  0  0  0  0  0  0  0
    2.4761   -6.9940   26.4111 N   0  0  0  0  0  0  0  0  0  0  0  0
    9.1353   -5.4053   27.8239 C   0  0  0  0  0  0  0  0  0  0  0  0
    0.9922   -9.3232   16.5995 O   0  0  0  0  0  0  0  0  0  0  0  0
    1.5232   -7.6869   27.1182 C   0  0  0  0  0  0  0  0  0  0  0  0
    8.6878   -6.6715   27.7262 N   0  0  0  0  0  0  0  0  0  0  0  0
    6.9911   -8.2423   27.1808 C   0  0  0  0  0  0  0  0  0  0  0  0
    3.8436   -7.2758   16.0578 C   0  0  0  0  0  0  0  0  0  0  0  0
    3.1882   -9.7190   17.2566 C   0  0  0  0  0  0  0  0  0  0  0  0
    5.3488   -6.1737   26.5092 C   0  0  0  0  0  0  0  0  0  0  0  0
    7.4567   -6.9464   27.2858 C   0  0  0  0  0  0  0  0  0  0  0  0
    0.1921   -5.7592   27.1123 C   0  0  0  0  0  0  0  0  0  0  0  0
    3.5517   -7.7407   25.9711 C   0  0  0  0  0  0  0  0  0  0  0  0
  1  4  4  0
  1 22  4  0
  2 20  4  0
  2 27  4  0
  3 12  4  0
  3 23  4  0
  4 25  4  0
  4 28  1  0
  5  8  4  0
  5 17  4  0
  6  7  4  0
  6 16  4  0
  7 18  4  0
  8 27  4  0
  9 13  4  0
  9 23  4  0
 10 11  1  0
 11 14  2  0
 11 27  1  0
 12 19  1  0
 12 24  4  0
 13 24  4  0
 15 18  1  0
 16 25  4  0
 16 26  4  0
 17 20  4  0
 17 28  1  0
 18 21  4  0
 21 26  4  0
 22 26  4  0
M  END
$$$$

 Created by Python create_sdf_string function

 28 30  0  0  0  0  0  0  0  0999 V2000
    5.7174   -8.4529   26.7190 C   0  0  0  0  0  0  0  0  0  0  0  0
    0.3974   -7.0711   27.5149 C   0  0  0  0  0  0  0  0  0  0  0  0
    2.5338   -7.6891   16.0102 C   0  0  0  0  0  0  0  0  0  0  0  0
    4.8690   -7.4380   26.4151 C   0  0  0  0  0  0  0  0  0  0  0  0
    2.3021   -5.6726   26.0378 C   0  0  0  0  0  0  0  0  0  0  0  0
    7.0880   -4.6163   27.0010 C   0  0  0  0  0  0  0  0  0  0  0  0
    8.3117   -4.3698   27.4436 C   0  0  0  0  0  0  0  0  0  0  0  0
    1.1339   -5.0515   26.3541 C   0  0  0  0  0  0  0  0  0  0  0  0
    4.8080   -8.0362   16.7101 C   0  0  0  0  0  0  0  0  0  0  0  0
   -1.2173   -3.9294   26.9717 O   0  0  0  0  0  0  0  0  0  0  0  0
   -1.0025   -5.0942   27.4586 C   0  0  0  0  0  0  0  0  0  0  0  0
    2.2474   -8.9123   16.6273 C   0  0  0  0  0  0  0  0  0  0  0  0
    4.4957   -9.2636   17.3041 C   0  0  0  0  0  0  0  0  0  0  0  0
   -1.8070   -5.6086   28.1920 O   0  0  0  0  0  0  0  0  0  0  0  0
   10.4296   -5.1799   28.3140 C   0  0  0  0  0  0  0  0  0  0  0  0
    6.6017   -5.9004   26.9187 C   0  0  0  0  0  0  0  0  0  0  0  0
    2.4761   -6.9940   26.4111 N   0  0  0  0  0  0  0  0  0  0  0  0
    9.1353   -5.4053   27.8239 C   0  0  0  0  0  0  0  0  0  0  0  0
    0.9922   -9.3232   16.5995 O   0  0  0  0  0  0  0  0  0  0  0  0
    1.5232   -7.6869   27.1182 C   0  0  0  0  0  0  0  0  0  0  0  0
    8.6878   -6.6715   27.7262 N   0  0  0  0  0  0  0  0  0  0  0  0
    6.9911   -8.2423   27.1808 C   0  0  0  0  0  0  0  0  0  0  0  0
    3.8436   -7.2758   16.0578 C   0  0  0  0  0  0  0  0  0  0  0  0
    3.1882   -9.7190   17.2566 C   0  0  0  0  0  0  0  0  0  0  0  0
    5.3488   -6.1737   26.5092 C   0  0  0  0  0  0  0  0  0  0  0  0
    7.4567   -6.9464   27.2858 C   0  0  0  0  0  0  0  0  0  0  0  0
    0.1921   -5.7592   27.1123 C   0  0  0  0  0  0  0  0  0  0  0  0
    3.5517   -7.7407   25.9711 C   0  0  0  0  0  0  0  0  0  0  0  0
  1  4  4  0
  1 22  4  0
  2 20  4  0
  2 27  4  0
  3 12  4  0
  3 23  4  0
  4 25  4  0
  4 28  1  0
  5  8  4  0
  5 17  4  0
  6  7  4  0
  6 16  4  0
  7 18  4  0
  8 27  4  0
  9 13  4  0
  9 23  4  0
 10 11  1  0
 11 14  2  0
 11 27  1  0
 12 19  1  0
 12 24  4  0
 13 24  4  0
 15 18  1  0
 16 25  4  0
 16 26  4  0
 17 20  4  0
 17 28  1  0
 18 21  4  0
 21 26  4  0
 22 26  4  0
M  END
$$$$

 Created by Python create_sdf_string function

 28 30  0  0  0  0  0  0  0  0999 V2000
    5.7174   -8.4529   26.7190 C   0  0  0  0  0  0  0  0  0  0  0  0
    0.3974   -7.0711   27.5149 C   0  0  0  0  0  0  0  0  0  0  0  0
    2.5338   -7.6891   16.0102 C   0  0  0  0  0  0  0  0  0  0  0  0
    4.8690   -7.4380   26.4151 C   0  0  0  0  0  0  0  0  0  0  0  0
    2.3021   -5.6726   26.0378 C   0  0  0  0  0  0  0  0  0  0  0  0
    7.0880   -4.6163   27.0010 C   0  0  0  0  0  0  0  0  0  0  0  0
    8.3117   -4.3698   27.4436 C   0  0  0  0  0  0  0  0  0  0  0  0
    1.1339   -5.0515   26.3541 C   0  0  0  0  0  0  0  0  0  0  0  0
    4.8080   -8.0362   16.7101 C   0  0  0  0  0  0  0  0  0  0  0  0
   -1.2173   -3.9294   26.9717 O   0  0  0  0  0  0  0  0  0  0  0  0
   -1.0025   -5.0942   27.4586 C   0  0  0  0  0  0  0  0  0  0  0  0
    2.2474   -8.9123   16.6273 C   0  0  0  0  0  0  0  0  0  0  0  0
    4.4957   -9.2636   17.3041 C   0  0  0  0  0  0  0  0  0  0  0  0
   -1.8070   -5.6086   28.1920 O   0  0  0  0  0  0  0  0  0  0  0  0
   10.4296   -5.1799   28.3140 C   0  0  0  0  0  0  0  0  0  0  0  0
    6.6017   -5.9004   26.9187 C   0  0  0  0  0  0  0  0  0  0  0  0
    2.4761   -6.9940   26.4111 N   0  0  0  0  0  0  0  0  0  0  0  0
    9.1353   -5.4053   27.8239 C   0  0  0  0  0  0  0  0  0  0  0  0
    0.9922   -9.3232   16.5995 O   0  0  0  0  0  0  0  0  0  0  0  0
    1.5232   -7.6869   27.1182 C   0  0  0  0  0  0  0  0  0  0  0  0
    8.6878   -6.6715   27.7262 N   0  0  0  0  0  0  0  0  0  0  0  0
    6.9911   -8.2423   27.1808 C   0  0  0  0  0  0  0  0  0  0  0  0
    3.8436   -7.2758   16.0578 C   0  0  0  0  0  0  0  0  0  0  0  0
    3.1882   -9.7190   17.2566 C   0  0  0  0  0  0  0  0  0  0  0  0
    5.3488   -6.1737   26.5092 C   0  0  0  0  0  0  0  0  0  0  0  0
    7.4567   -6.9464   27.2858 C   0  0  0  0  0  0  0  0  0  0  0  0
    0.1921   -5.7592   27.1123 C   0  0  0  0  0  0  0  0  0  0  0  0
    3.5517   -7.7407   25.9711 C   0  0  0  0  0  0  0  0  0  0  0  0
  1  4  4  0
  1 22  4  0
  2 20  4  0
  2 27  4  0
  3 12  4  0
  3 23  4  0
  4 25  4  0
  4 28  1  0
  5  8  4  0
  5 17  4  0
  6  7  4  0
  6 16  4  0
  7 18  4  0
  8 27  4  0
  9 13  4  0
  9 23  4  0
 10 11  1  0
 11 14  2  0
 11 27  1  0
 12 19  1  0
 12 24  4  0
 13 24  4  0
 15 18  1  0
 16 25  4  0
 16 26  4  0
 17 20  4  0
 17 28  1  0
 18 21  4  0
 21 26  4  0
 22 26  4  0
M  END
$$$$

 Created by Python create_sdf_string function

 28 30  0  0  0  0  0  0  0  0999 V2000
    5.7174   -8.4529   26.7190 C   0  0  0  0  0  0  0  0  0  0  0  0
    0.3974   -7.0711   27.5149 C   0  0  0  0  0  0  0  0  0  0  0  0
    2.5338   -7.6891   16.0102 C   0  0  0  0  0  0  0  0  0  0  0  0
    4.8690   -7.4380   26.4151 C   0  0  0  0  0  0  0  0  0  0  0  0
    2.3021   -5.6726   26.0378 C   0  0  0  0  0  0  0  0  0  0  0  0
    7.0880   -4.6163   27.0010 C   0  0  0  0  0  0  0  0  0  0  0  0
    8.3117   -4.3698   27.4436 C   0  0  0  0  0  0  0  0  0  0  0  0
    1.1339   -5.0515   26.3541 C   0  0  0  0  0  0  0  0  0  0  0  0
    4.8080   -8.0362   16.7101 C   0  0  0  0  0  0  0  0  0  0  0  0
   -1.2173   -3.9294   26.9717 O   0  0  0  0  0  0  0  0  0  0  0  0
   -1.0025   -5.0942   27.4586 C   0  0  0  0  0  0  0  0  0  0  0  0
    2.2474   -8.9123   16.6273 C   0  0  0  0  0  0  0  0  0  0  0  0
    4.4957   -9.2636   17.3041 C   0  0  0  0  0  0  0  0  0  0  0  0
   -1.8070   -5.6086   28.1920 O   0  0  0  0  0  0  0  0  0  0  0  0
   10.4296   -5.1799   28.3140 C   0  0  0  0  0  0  0  0  0  0  0  0
    6.6017   -5.9004   26.9187 C   0  0  0  0  0  0  0  0  0  0  0  0
    2.4761   -6.9940   26.4111 N   0  0  0  0  0  0  0  0  0  0  0  0
    9.1353   -5.4053   27.8239 C   0  0  0  0  0  0  0  0  0  0  0  0
    0.9922   -9.3232   16.5995 O   0  0  0  0  0  0  0  0  0  0  0  0
    1.5232   -7.6869   27.1182 C   0  0  0  0  0  0  0  0  0  0  0  0
    8.6878   -6.6715   27.7262 N   0  0  0  0  0  0  0  0  0  0  0  0
    6.9911   -8.2423   27.1808 C   0  0  0  0  0  0  0  0  0  0  0  0
    3.8436   -7.2758   16.0578 C   0  0  0  0  0  0  0  0  0  0  0  0
    3.1882   -9.7190   17.2566 C   0  0  0  0  0  0  0  0  0  0  0  0
    5.3488   -6.1737   26.5092 C   0  0  0  0  0  0  0  0  0  0  0  0
    7.4567   -6.9464   27.2858 C   0  0  0  0  0  0  0  0  0  0  0  0
    0.1921   -5.7592   27.1123 C   0  0  0  0  0  0  0  0  0  0  0  0
    3.5517   -7.7407   25.9711 C   0  0  0  0  0  0  0  0  0  0  0  0
  1  4  4  0
  1 22  4  0
  2 20  4  0
  2 27  4  0
  3 12  4  0
  3 23  4  0
  4 25  4  0
  4 28  1  0
  5  8  4  0
  5 17  4  0
  6  7  4  0
  6 16  4  0
  7 18  4  0
  8 27  4  0
  9 13  4  0
  9 23  4  0
 10 11  1  0
 11 14  2  0
 11 27  1  0
 12 19  1  0
 12 24  4  0
 13 24  4  0
 15 18  1  0
 16 25  4  0
 16 26  4  0
 17 20  4  0
 17 28  1  0
 18 21  4  0
 21 26  4  0
 22 26  4  0
M  END
$$$$

 Created by Python create_sdf_string function

 28 30  0  0  0  0  0  0  0  0999 V2000
    5.7174   -8.4529   26.7190 C   0  0  0  0  0  0  0  0  0  0  0  0
    0.3974   -7.0711   27.5149 C   0  0  0  0  0  0  0  0  0  0  0  0
    2.5338   -7.6891   16.0102 C   0  0  0  0  0  0  0  0  0  0  0  0
    4.8690   -7.4380   26.4151 C   0  0  0  0  0  0  0  0  0  0  0  0
    2.3021   -5.6726   26.0378 C   0  0  0  0  0  0  0  0  0  0  0  0
    7.0880   -4.6163   27.0010 C   0  0  0  0  0  0  0  0  0  0  0  0
    8.3117   -4.3698   27.4436 C   0  0  0  0  0  0  0  0  0  0  0  0
    1.1339   -5.0515   26.3541 C   0  0  0  0  0  0  0  0  0  0  0  0
    4.8080   -8.0362   16.7101 C   0  0  0  0  0  0  0  0  0  0  0  0
   -1.2173   -3.9294   26.9717 O   0  0  0  0  0  0  0  0  0  0  0  0
   -1.0025   -5.0942   27.4586 C   0  0  0  0  0  0  0  0  0  0  0  0
    2.2474   -8.9123   16.6273 C   0  0  0  0  0  0  0  0  0  0  0  0
    4.4957   -9.2636   17.3041 C   0  0  0  0  0  0  0  0  0  0  0  0
   -1.8070   -5.6086   28.1920 O   0  0  0  0  0  0  0  0  0  0  0  0
   10.4296   -5.1799   28.3140 C   0  0  0  0  0  0  0  0  0  0  0  0
    6.6017   -5.9004   26.9187 C   0  0  0  0  0  0  0  0  0  0  0  0
    2.4761   -6.9940   26.4111 N   0  0  0  0  0  0  0  0  0  0  0  0
    9.1353   -5.4053   27.8239 C   0  0  0  0  0  0  0  0  0  0  0  0
    0.9922   -9.3232   16.5995 O   0  0  0  0  0  0  0  0  0  0  0  0
    1.5232   -7.6869   27.1182 C   0  0  0  0  0  0  0  0  0  0  0  0
    8.6878   -6.6715   27.7262 N   0  0  0  0  0  0  0  0  0  0  0  0
    6.9911   -8.2423   27.1808 C   0  0  0  0  0  0  0  0  0  0  0  0
    3.8436   -7.2758   16.0578 C   0  0  0  0  0  0  0  0  0  0  0  0
    3.1882   -9.7190   17.2566 C   0  0  0  0  0  0  0  0  0  0  0  0
    5.3488   -6.1737   26.5092 C   0  0  0  0  0  0  0  0  0  0  0  0
    7.4567   -6.9464   27.2858 C   0  0  0  0  0  0  0  0  0  0  0  0
    0.1921   -5.7592   27.1123 C   0  0  0  0  0  0  0  0  0  0  0  0
    3.5517   -7.7407   25.9711 C   0  0  0  0  0  0  0  0  0  0  0  0
  1  4  4  0
  1 22  4  0
  2 20  4  0
  2 27  4  0
  3 12  4  0
  3 23  4  0
  4 25  4  0
  4 28  1  0
  5  8  4  0
  5 17  4  0
  6  7  4  0
  6 16  4  0
  7 18  4  0
  8 27  4  0
  9 13  4  0
  9 23  4  0
 10 11  1  0
 11 14  2  0
 11 27  1  0
 12 19  1  0
 12 24  4  0
 13 24  4  0
 15 18  1  0
 16 25  4  0
 16 26  4  0
 17 20  4  0
 17 28  1  0
 18 21  4  0
 21 26  4  0
 22 26  4  0
M  END
$$$$

 Created by Python create_sdf_string function

 28 30  0  0  0  0  0  0  0  0999 V2000
    5.7174   -8.4529   26.7190 C   0  0  0  0  0  0  0  0  0  0  0  0
    0.3974   -7.0711   27.5149 C   0  0  0  0  0  0  0  0  0  0  0  0
    2.5338   -7.6891   16.0102 C   0  0  0  0  0  0  0  0  0  0  0  0
    4.8690   -7.4380   26.4151 C   0  0  0  0  0  0  0  0  0  0  0  0
    2.3021   -5.6726   26.0378 C   0  0  0  0  0  0  0  0  0  0  0  0
    7.0880   -4.6163   27.0010 C   0  0  0  0  0  0  0  0  0  0  0  0
    8.3117   -4.3698   27.4436 C   0  0  0  0  0  0  0  0  0  0  0  0
    1.1339   -5.0515   26.3541 C   0  0  0  0  0  0  0  0  0  0  0  0
    4.8080   -8.0362   16.7101 C   0  0  0  0  0  0  0  0  0  0  0  0
   -1.2173   -3.9294   26.9717 O   0  0  0  0  0  0  0  0  0  0  0  0
   -1.0025   -5.0942   27.4586 C   0  0  0  0  0  0  0  0  0  0  0  0
    2.2474   -8.9123   16.6273 C   0  0  0  0  0  0  0  0  0  0  0  0
    4.4957   -9.2636   17.3041 C   0  0  0  0  0  0  0  0  0  0  0  0
   -1.8070   -5.6086   28.1920 O   0  0  0  0  0  0  0  0  0  0  0  0
   10.4296   -5.1799   28.3140 C   0  0  0  0  0  0  0  0  0  0  0  0
    6.6017   -5.9004   26.9187 C   0  0  0  0  0  0  0  0  0  0  0  0
    2.4761   -6.9940   26.4111 N   0  0  0  0  0  0  0  0  0  0  0  0
    9.1353   -5.4053   27.8239 C   0  0  0  0  0  0  0  0  0  0  0  0
    0.9922   -9.3232   16.5995 O   0  0  0  0  0  0  0  0  0  0  0  0
    1.5232   -7.6869   27.1182 C   0  0  0  0  0  0  0  0  0  0  0  0
    8.6878   -6.6715   27.7262 N   0  0  0  0  0  0  0  0  0  0  0  0
    6.9911   -8.2423   27.1808 C   0  0  0  0  0  0  0  0  0  0  0  0
    3.8436   -7.2758   16.0578 C   0  0  0  0  0  0  0  0  0  0  0  0
    3.1882   -9.7190   17.2566 C   0  0  0  0  0  0  0  0  0  0  0  0
    5.3488   -6.1737   26.5092 C   0  0  0  0  0  0  0  0  0  0  0  0
    7.4567   -6.9464   27.2858 C   0  0  0  0  0  0  0  0  0  0  0  0
    0.1921   -5.7592   27.1123 C   0  0  0  0  0  0  0  0  0  0  0  0
    3.5517   -7.7407   25.9711 C   0  0  0  0  0  0  0  0  0  0  0  0
  1  4  4  0
  1 22  4  0
  2 20  4  0
  2 27  4  0
  3 12  4  0
  3 23  4  0
  4 25  4  0
  4 28  1  0
  5  8  4  0
  5 17  4  0
  6  7  4  0
  6 16  4  0
  7 18  4  0
  8 27  4  0
  9 13  4  0
  9 23  4  0
 10 11  1  0
 11 14  2  0
 11 27  1  0
 12 19  1  0
 12 24  4  0
 13 24  4  0
 15 18  1  0
 16 25  4  0
 16 26  4  0
 17 20  4  0
 17 28  1  0
 18 21  4  0
 21 26  4  0
 22 26  4  0
M  END
$$$$

 Created by Python create_sdf_string function

 28 30  0  0  0  0  0  0  0  0999 V2000
    5.7174   -8.4529   26.7190 C   0  0  0  0  0  0  0  0  0  0  0  0
    0.3974   -7.0711   27.5149 C   0  0  0  0  0  0  0  0  0  0  0  0
    2.5338   -7.6891   16.0102 C   0  0  0  0  0  0  0  0  0  0  0  0
    4.8690   -7.4380   26.4151 C   0  0  0  0  0  0  0  0  0  0  0  0
    2.3021   -5.6726   26.0378 C   0  0  0  0  0  0  0  0  0  0  0  0
    7.0880   -4.6163   27.0010 C   0  0  0  0  0  0  0  0  0  0  0  0
    8.3117   -4.3698   27.4436 C   0  0  0  0  0  0  0  0  0  0  0  0
    1.1339   -5.0515   26.3541 C   0  0  0  0  0  0  0  0  0  0  0  0
    4.8080   -8.0362   16.7101 C   0  0  0  0  0  0  0  0  0  0  0  0
   -1.2173   -3.9294   26.9717 O   0  0  0  0  0  0  0  0  0  0  0  0
   -1.0025   -5.0942   27.4586 C   0  0  0  0  0  0  0  0  0  0  0  0
    2.2474   -8.9123   16.6273 C   0  0  0  0  0  0  0  0  0  0  0  0
    4.4957   -9.2636   17.3041 C   0  0  0  0  0  0  0  0  0  0  0  0
   -1.8070   -5.6086   28.1920 O   0  0  0  0  0  0  0  0  0  0  0  0
   10.4296   -5.1799   28.3140 C   0  0  0  0  0  0  0  0  0  0  0  0
    6.6017   -5.9004   26.9187 C   0  0  0  0  0  0  0  0  0  0  0  0
    2.4761   -6.9940   26.4111 N   0  0  0  0  0  0  0  0  0  0  0  0
    9.1353   -5.4053   27.8239 C   0  0  0  0  0  0  0  0  0  0  0  0
    0.9922   -9.3232   16.5995 O   0  0  0  0  0  0  0  0  0  0  0  0
    1.5232   -7.6869   27.1182 C   0  0  0  0  0  0  0  0  0  0  0  0
    8.6878   -6.6715   27.7262 N   0  0  0  0  0  0  0  0  0  0  0  0
    6.9911   -8.2423   27.1808 C   0  0  0  0  0  0  0  0  0  0  0  0
    3.8436   -7.2758   16.0578 C   0  0  0  0  0  0  0  0  0  0  0  0
    3.1882   -9.7190   17.2566 C   0  0  0  0  0  0  0  0  0  0  0  0
    5.3488   -6.1737   26.5092 C   0  0  0  0  0  0  0  0  0  0  0  0
    7.4567   -6.9464   27.2858 C   0  0  0  0  0  0  0  0  0  0  0  0
    0.1921   -5.7592   27.1123 C   0  0  0  0  0  0  0  0  0  0  0  0
    3.5517   -7.7407   25.9711 C   0  0  0  0  0  0  0  0  0  0  0  0
  1  4  4  0
  1 22  4  0
  2 20  4  0
  2 27  4  0
  3 12  4  0
  3 23  4  0
  4 25  4  0
  4 28  1  0
  5  8  4  0
  5 17  4  0
  6  7  4  0
  6 16  4  0
  7 18  4  0
  8 27  4  0
  9 13  4  0
  9 23  4  0
 10 11  1  0
 11 14  2  0
 11 27  1  0
 12 19  1  0
 12 24  4  0
 13 24  4  0
 15 18  1  0
 16 25  4  0
 16 26  4  0
 17 20  4  0
 17 28  1  0
 18 21  4  0
 21 26  4  0
 22 26  4  0
M  END
$$$$

 Created by Python create_sdf_string function

 28 30  0  0  0  0  0  0  0  0999 V2000
    5.7174   -8.4529   26.7190 C   0  0  0  0  0  0  0  0  0  0  0  0
    0.3974   -7.0711   27.5149 C   0  0  0  0  0  0  0  0  0  0  0  0
    2.5338   -7.6891   16.0102 C   0  0  0  0  0  0  0  0  0  0  0  0
    4.8690   -7.4380   26.4151 C   0  0  0  0  0  0  0  0  0  0  0  0
    2.3021   -5.6726   26.0378 C   0  0  0  0  0  0  0  0  0  0  0  0
    7.0880   -4.6163   27.0010 C   0  0  0  0  0  0  0  0  0  0  0  0
    8.3117   -4.3698   27.4436 C   0  0  0  0  0  0  0  0  0  0  0  0
    1.1339   -5.0515   26.3541 C   0  0  0  0  0  0  0  0  0  0  0  0
    4.8080   -8.0362   16.7101 C   0  0  0  0  0  0  0  0  0  0  0  0
   -1.2173   -3.9294   26.9717 O   0  0  0  0  0  0  0  0  0  0  0  0
   -1.0025   -5.0942   27.4586 C   0  0  0  0  0  0  0  0  0  0  0  0
    2.2474   -8.9123   16.6273 C   0  0  0  0  0  0  0  0  0  0  0  0
    4.4957   -9.2636   17.3041 C   0  0  0  0  0  0  0  0  0  0  0  0
   -1.8070   -5.6086   28.1920 O   0  0  0  0  0  0  0  0  0  0  0  0
   10.4296   -5.1799   28.3140 C   0  0  0  0  0  0  0  0  0  0  0  0
    6.6017   -5.9004   26.9187 C   0  0  0  0  0  0  0  0  0  0  0  0
    2.4761   -6.9940   26.4111 N   0  0  0  0  0  0  0  0  0  0  0  0
    9.1353   -5.4053   27.8239 C   0  0  0  0  0  0  0  0  0  0  0  0
    0.9922   -9.3232   16.5995 O   0  0  0  0  0  0  0  0  0  0  0  0
    1.5232   -7.6869   27.1182 C   0  0  0  0  0  0  0  0  0  0  0  0
    8.6878   -6.6715   27.7262 N   0  0  0  0  0  0  0  0  0  0  0  0
    6.9911   -8.2423   27.1808 C   0  0  0  0  0  0  0  0  0  0  0  0
    3.8436   -7.2758   16.0578 C   0  0  0  0  0  0  0  0  0  0  0  0
    3.1882   -9.7190   17.2566 C   0  0  0  0  0  0  0  0  0  0  0  0
    5.3488   -6.1737   26.5092 C   0  0  0  0  0  0  0  0  0  0  0  0
    7.4567   -6.9464   27.2858 C   0  0  0  0  0  0  0  0  0  0  0  0
    0.1921   -5.7592   27.1123 C   0  0  0  0  0  0  0  0  0  0  0  0
    3.5517   -7.7407   25.9711 C   0  0  0  0  0  0  0  0  0  0  0  0
  1  4  4  0
  1 22  4  0
  2 20  4  0
  2 27  4  0
  3 12  4  0
  3 23  4  0
  4 25  4  0
  4 28  1  0
  5  8  4  0
  5 17  4  0
  6  7  4  0
  6 16  4  0
  7 18  4  0
  8 27  4  0
  9 13  4  0
  9 23  4  0
 10 11  1  0
 11 14  2  0
 11 27  1  0
 12 19  1  0
 12 24  4  0
 13 24  4  0
 15 18  1  0
 16 25  4  0
 16 26  4  0
 17 20  4  0
 17 28  1  0
 18 21  4  0
 21 26  4  0
 22 26  4  0
M  END
$$$$

 Created by Python create_sdf_string function

 28 30  0  0  0  0  0  0  0  0999 V2000
    5.7174   -8.4529   26.7190 C   0  0  0  0  0  0  0  0  0  0  0  0
    0.3974   -7.0711   27.5149 C   0  0  0  0  0  0  0  0  0  0  0  0
    2.5338   -7.6891   16.0102 C   0  0  0  0  0  0  0  0  0  0  0  0
    4.8690   -7.4380   26.4151 C   0  0  0  0  0  0  0  0  0  0  0  0
    2.3021   -5.6726   26.0378 C   0  0  0  0  0  0  0  0  0  0  0  0
    7.0880   -4.6163   27.0010 C   0  0  0  0  0  0  0  0  0  0  0  0
    8.3117   -4.3698   27.4436 C   0  0  0  0  0  0  0  0  0  0  0  0
    1.1339   -5.0515   26.3541 C   0  0  0  0  0  0  0  0  0  0  0  0
    4.8080   -8.0362   16.7101 C   0  0  0  0  0  0  0  0  0  0  0  0
   -1.2173   -3.9294   26.9717 O   0  0  0  0  0  0  0  0  0  0  0  0
   -1.0025   -5.0942   27.4586 C   0  0  0  0  0  0  0  0  0  0  0  0
    2.2474   -8.9123   16.6273 C   0  0  0  0  0  0  0  0  0  0  0  0
    4.4957   -9.2636   17.3041 C   0  0  0  0  0  0  0  0  0  0  0  0
   -1.8070   -5.6086   28.1920 O   0  0  0  0  0  0  0  0  0  0  0  0
   10.4296   -5.1799   28.3140 C   0  0  0  0  0  0  0  0  0  0  0  0
    6.6017   -5.9004   26.9187 C   0  0  0  0  0  0  0  0  0  0  0  0
    2.4761   -6.9940   26.4111 N   0  0  0  0  0  0  0  0  0  0  0  0
    9.1353   -5.4053   27.8239 C   0  0  0  0  0  0  0  0  0  0  0  0
    0.9922   -9.3232   16.5995 O   0  0  0  0  0  0  0  0  0  0  0  0
    1.5232   -7.6869   27.1182 C   0  0  0  0  0  0  0  0  0  0  0  0
    8.6878   -6.6715   27.7262 N   0  0  0  0  0  0  0  0  0  0  0  0
    6.9911   -8.2423   27.1808 C   0  0  0  0  0  0  0  0  0  0  0  0
    3.8436   -7.2758   16.0578 C   0  0  0  0  0  0  0  0  0  0  0  0
    3.1882   -9.7190   17.2566 C   0  0  0  0  0  0  0  0  0  0  0  0
    5.3488   -6.1737   26.5092 C   0  0  0  0  0  0  0  0  0  0  0  0
    7.4567   -6.9464   27.2858 C   0  0  0  0  0  0  0  0  0  0  0  0
    0.1921   -5.7592   27.1123 C   0  0  0  0  0  0  0  0  0  0  0  0
    3.5517   -7.7407   25.9711 C   0  0  0  0  0  0  0  0  0  0  0  0
  1  4  4  0
  1 22  4  0
  2 20  4  0
  2 27  4  0
  3 12  4  0
  3 23  4  0
  4 25  4  0
  4 28  1  0
  5  8  4  0
  5 17  4  0
  6  7  4  0
  6 16  4  0
  7 18  4  0
  8 27  4  0
  9 13  4  0
  9 23  4  0
 10 11  1  0
 11 14  2  0
 11 27  1  0
 12 19  1  0
 12 24  4  0
 13 24  4  0
 15 18  1  0
 16 25  4  0
 16 26  4  0
 17 20  4  0
 17 28  1  0
 18 21  4  0
 21 26  4  0
 22 26  4  0
M  END
$$$$

 Created by Python create_sdf_string function

 28 30  0  0  0  0  0  0  0  0999 V2000
    5.7174   -8.4529   26.7190 C   0  0  0  0  0  0  0  0  0  0  0  0
    0.3974   -7.0711   27.5149 C   0  0  0  0  0  0  0  0  0  0  0  0
    2.5338   -7.6891   16.0102 C   0  0  0  0  0  0  0  0  0  0  0  0
    4.8690   -7.4380   26.4151 C   0  0  0  0  0  0  0  0  0  0  0  0
    2.3021   -5.6726   26.0378 C   0  0  0  0  0  0  0  0  0  0  0  0
    7.0880   -4.6163   27.0010 C   0  0  0  0  0  0  0  0  0  0  0  0
    8.3117   -4.3698   27.4436 C   0  0  0  0  0  0  0  0  0  0  0  0
    1.1339   -5.0515   26.3541 C   0  0  0  0  0  0  0  0  0  0  0  0
    4.8080   -8.0362   16.7101 C   0  0  0  0  0  0  0  0  0  0  0  0
   -1.2173   -3.9294   26.9717 O   0  0  0  0  0  0  0  0  0  0  0  0
   -1.0025   -5.0942   27.4586 C   0  0  0  0  0  0  0  0  0  0  0  0
    2.2474   -8.9123   16.6273 C   0  0  0  0  0  0  0  0  0  0  0  0
    4.4957   -9.2636   17.3041 C   0  0  0  0  0  0  0  0  0  0  0  0
   -1.8070   -5.6086   28.1920 O   0  0  0  0  0  0  0  0  0  0  0  0
   10.4296   -5.1799   28.3140 C   0  0  0  0  0  0  0  0  0  0  0  0
    6.6017   -5.9004   26.9187 C   0  0  0  0  0  0  0  0  0  0  0  0
    2.4761   -6.9940   26.4111 N   0  0  0  0  0  0  0  0  0  0  0  0
    9.1353   -5.4053   27.8239 C   0  0  0  0  0  0  0  0  0  0  0  0
    0.9922   -9.3232   16.5995 O   0  0  0  0  0  0  0  0  0  0  0  0
    1.5232   -7.6869   27.1182 C   0  0  0  0  0  0  0  0  0  0  0  0
    8.6878   -6.6715   27.7262 N   0  0  0  0  0  0  0  0  0  0  0  0
    6.9911   -8.2423   27.1808 C   0  0  0  0  0  0  0  0  0  0  0  0
    3.8436   -7.2758   16.0578 C   0  0  0  0  0  0  0  0  0  0  0  0
    3.1882   -9.7190   17.2566 C   0  0  0  0  0  0  0  0  0  0  0  0
    5.3488   -6.1737   26.5092 C   0  0  0  0  0  0  0  0  0  0  0  0
    7.4567   -6.9464   27.2858 C   0  0  0  0  0  0  0  0  0  0  0  0
    0.1921   -5.7592   27.1123 C   0  0  0  0  0  0  0  0  0  0  0  0
    3.5517   -7.7407   25.9711 C   0  0  0  0  0  0  0  0  0  0  0  0
  1  4  4  0
  1 22  4  0
  2 20  4  0
  2 27  4  0
  3 12  4  0
  3 23  4  0
  4 25  4  0
  4 28  1  0
  5  8  4  0
  5 17  4  0
  6  7  4  0
  6 16  4  0
  7 18  4  0
  8 27  4  0
  9 13  4  0
  9 23  4  0
 10 11  1  0
 11 14  2  0
 11 27  1  0
 12 19  1  0
 12 24  4  0
 13 24  4  0
 15 18  1  0
 16 25  4  0
 16 26  4  0
 17 20  4  0
 17 28  1  0
 18 21  4  0
 21 26  4  0
 22 26  4  0
M  END
$$$$

 Created by Python create_sdf_string function

 28 30  0  0  0  0  0  0  0  0999 V2000
    5.7174   -8.4529   26.7190 C   0  0  0  0  0  0  0  0  0  0  0  0
    0.3974   -7.0711   27.5149 C   0  0  0  0  0  0  0  0  0  0  0  0
    2.5338   -7.6891   16.0102 C   0  0  0  0  0  0  0  0  0  0  0  0
    4.8690   -7.4380   26.4151 C   0  0  0  0  0  0  0  0  0  0  0  0
    2.3021   -5.6726   26.0378 C   0  0  0  0  0  0  0  0  0  0  0  0
    7.0880   -4.6163   27.0010 C   0  0  0  0  0  0  0  0  0  0  0  0
    8.3117   -4.3698   27.4436 C   0  0  0  0  0  0  0  0  0  0  0  0
    1.1339   -5.0515   26.3541 C   0  0  0  0  0  0  0  0  0  0  0  0
    4.8080   -8.0362   16.7101 C   0  0  0  0  0  0  0  0  0  0  0  0
   -1.2173   -3.9294   26.9717 O   0  0  0  0  0  0  0  0  0  0  0  0
   -1.0025   -5.0942   27.4586 C   0  0  0  0  0  0  0  0  0  0  0  0
    2.2474   -8.9123   16.6273 C   0  0  0  0  0  0  0  0  0  0  0  0
    4.4957   -9.2636   17.3041 C   0  0  0  0  0  0  0  0  0  0  0  0
   -1.8070   -5.6086   28.1920 O   0  0  0  0  0  0  0  0  0  0  0  0
   10.4296   -5.1799   28.3140 C   0  0  0  0  0  0  0  0  0  0  0  0
    6.6017   -5.9004   26.9187 C   0  0  0  0  0  0  0  0  0  0  0  0
    2.4761   -6.9940   26.4111 N   0  0  0  0  0  0  0  0  0  0  0  0
    9.1353   -5.4053   27.8239 C   0  0  0  0  0  0  0  0  0  0  0  0
    0.9922   -9.3232   16.5995 O   0  0  0  0  0  0  0  0  0  0  0  0
    1.5232   -7.6869   27.1182 C   0  0  0  0  0  0  0  0  0  0  0  0
    8.6878   -6.6715   27.7262 N   0  0  0  0  0  0  0  0  0  0  0  0
    6.9911   -8.2423   27.1808 C   0  0  0  0  0  0  0  0  0  0  0  0
    3.8436   -7.2758   16.0578 C   0  0  0  0  0  0  0  0  0  0  0  0
    3.1882   -9.7190   17.2566 C   0  0  0  0  0  0  0  0  0  0  0  0
    5.3488   -6.1737   26.5092 C   0  0  0  0  0  0  0  0  0  0  0  0
    7.4567   -6.9464   27.2858 C   0  0  0  0  0  0  0  0  0  0  0  0
    0.1921   -5.7592   27.1123 C   0  0  0  0  0  0  0  0  0  0  0  0
    3.5517   -7.7407   25.9711 C   0  0  0  0  0  0  0  0  0  0  0  0
  1  4  4  0
  1 22  4  0
  2 20  4  0
  2 27  4  0
  3 12  4  0
  3 23  4  0
  4 25  4  0
  4 28  1  0
  5  8  4  0
  5 17  4  0
  6  7  4  0
  6 16  4  0
  7 18  4  0
  8 27  4  0
  9 13  4  0
  9 23  4  0
 10 11  1  0
 11 14  2  0
 11 27  1  0
 12 19  1  0
 12 24  4  0
 13 24  4  0
 15 18  1  0
 16 25  4  0
 16 26  4  0
 17 20  4  0
 17 28  1  0
 18 21  4  0
 21 26  4  0
 22 26  4  0
M  END
$$$$

 Created by Python create_sdf_string function

 28 30  0  0  0  0  0  0  0  0999 V2000
    5.7174   -8.4529   26.7190 C   0  0  0  0  0  0  0  0  0  0  0  0
    0.3974   -7.0711   27.5149 C   0  0  0  0  0  0  0  0  0  0  0  0
    2.5338   -7.6891   16.0102 C   0  0  0  0  0  0  0  0  0  0  0  0
    4.8690   -7.4380   26.4151 C   0  0  0  0  0  0  0  0  0  0  0  0
    2.3021   -5.6726   26.0378 C   0  0  0  0  0  0  0  0  0  0  0  0
    7.0880   -4.6163   27.0010 C   0  0  0  0  0  0  0  0  0  0  0  0
    8.3117   -4.3698   27.4436 C   0  0  0  0  0  0  0  0  0  0  0  0
    1.1339   -5.0515   26.3541 C   0  0  0  0  0  0  0  0  0  0  0  0
    4.8080   -8.0362   16.7101 C   0  0  0  0  0  0  0  0  0  0  0  0
   -1.2173   -3.9294   26.9717 O   0  0  0  0  0  0  0  0  0  0  0  0
   -1.0025   -5.0942   27.4586 C   0  0  0  0  0  0  0  0  0  0  0  0
    2.2474   -8.9123   16.6273 C   0  0  0  0  0  0  0  0  0  0  0  0
    4.4957   -9.2636   17.3041 C   0  0  0  0  0  0  0  0  0  0  0  0
   -1.8070   -5.6086   28.1920 O   0  0  0  0  0  0  0  0  0  0  0  0
   10.4296   -5.1799   28.3140 C   0  0  0  0  0  0  0  0  0  0  0  0
    6.6017   -5.9004   26.9187 C   0  0  0  0  0  0  0  0  0  0  0  0
    2.4761   -6.9940   26.4111 N   0  0  0  0  0  0  0  0  0  0  0  0
    9.1353   -5.4053   27.8239 C   0  0  0  0  0  0  0  0  0  0  0  0
    0.9922   -9.3232   16.5995 O   0  0  0  0  0  0  0  0  0  0  0  0
    1.5232   -7.6869   27.1182 C   0  0  0  0  0  0  0  0  0  0  0  0
    8.6878   -6.6715   27.7262 N   0  0  0  0  0  0  0  0  0  0  0  0
    6.9911   -8.2423   27.1808 C   0  0  0  0  0  0  0  0  0  0  0  0
    3.8436   -7.2758   16.0578 C   0  0  0  0  0  0  0  0  0  0  0  0
    3.1882   -9.7190   17.2566 C   0  0  0  0  0  0  0  0  0  0  0  0
    5.3488   -6.1737   26.5092 C   0  0  0  0  0  0  0  0  0  0  0  0
    7.4567   -6.9464   27.2858 C   0  0  0  0  0  0  0  0  0  0  0  0
    0.1921   -5.7592   27.1123 C   0  0  0  0  0  0  0  0  0  0  0  0
    3.5517   -7.7407   25.9711 C   0  0  0  0  0  0  0  0  0  0  0  0
  1  4  4  0
  1 22  4  0
  2 20  4  0
  2 27  4  0
  3 12  4  0
  3 23  4  0
  4 25  4  0
  4 28  1  0
  5  8  4  0
  5 17  4  0
  6  7  4  0
  6 16  4  0
  7 18  4  0
  8 27  4  0
  9 13  4  0
  9 23  4  0
 10 11  1  0
 11 14  2  0
 11 27  1  0
 12 19  1  0
 12 24  4  0
 13 24  4  0
 15 18  1  0
 16 25  4  0
 16 26  4  0
 17 20  4  0
 17 28  1  0
 18 21  4  0
 21 26  4  0
 22 26  4  0
M  END
$$$$

 Created by Python create_sdf_string function

 28 30  0  0  0  0  0  0  0  0999 V2000
    5.7174   -8.4529   26.7190 C   0  0  0  0  0  0  0  0  0  0  0  0
    0.3974   -7.0711   27.5149 C   0  0  0  0  0  0  0  0  0  0  0  0
    2.5338   -7.6891   16.0102 C   0  0  0  0  0  0  0  0  0  0  0  0
    4.8690   -7.4380   26.4151 C   0  0  0  0  0  0  0  0  0  0  0  0
    2.3021   -5.6726   26.0378 C   0  0  0  0  0  0  0  0  0  0  0  0
    7.0880   -4.6163   27.0010 C   0  0  0  0  0  0  0  0  0  0  0  0
    8.3117   -4.3698   27.4436 C   0  0  0  0  0  0  0  0  0  0  0  0
    1.1339   -5.0515   26.3541 C   0  0  0  0  0  0  0  0  0  0  0  0
    4.8080   -8.0362   16.7101 C   0  0  0  0  0  0  0  0  0  0  0  0
   -1.2173   -3.9294   26.9717 O   0  0  0  0  0  0  0  0  0  0  0  0
   -1.0025   -5.0942   27.4586 C   0  0  0  0  0  0  0  0  0  0  0  0
    2.2474   -8.9123   16.6273 C   0  0  0  0  0  0  0  0  0  0  0  0
    4.4957   -9.2636   17.3041 C   0  0  0  0  0  0  0  0  0  0  0  0
   -1.8070   -5.6086   28.1920 O   0  0  0  0  0  0  0  0  0  0  0  0
   10.4296   -5.1799   28.3140 C   0  0  0  0  0  0  0  0  0  0  0  0
    6.6017   -5.9004   26.9187 C   0  0  0  0  0  0  0  0  0  0  0  0
    2.4761   -6.9940   26.4111 N   0  0  0  0  0  0  0  0  0  0  0  0
    9.1353   -5.4053   27.8239 C   0  0  0  0  0  0  0  0  0  0  0  0
    0.9922   -9.3232   16.5995 O   0  0  0  0  0  0  0  0  0  0  0  0
    1.5232   -7.6869   27.1182 C   0  0  0  0  0  0  0  0  0  0  0  0
    8.6878   -6.6715   27.7262 N   0  0  0  0  0  0  0  0  0  0  0  0
    6.9911   -8.2423   27.1808 C   0  0  0  0  0  0  0  0  0  0  0  0
    3.8436   -7.2758   16.0578 C   0  0  0  0  0  0  0  0  0  0  0  0
    3.1882   -9.7190   17.2566 C   0  0  0  0  0  0  0  0  0  0  0  0
    5.3488   -6.1737   26.5092 C   0  0  0  0  0  0  0  0  0  0  0  0
    7.4567   -6.9464   27.2858 C   0  0  0  0  0  0  0  0  0  0  0  0
    0.1921   -5.7592   27.1123 C   0  0  0  0  0  0  0  0  0  0  0  0
    3.5517   -7.7407   25.9711 C   0  0  0  0  0  0  0  0  0  0  0  0
  1  4  4  0
  1 22  4  0
  2 20  4  0
  2 27  4  0
  3 12  4  0
  3 23  4  0
  4 25  4  0
  4 28  1  0
  5  8  4  0
  5 17  4  0
  6  7  4  0
  6 16  4  0
  7 18  4  0
  8 27  4  0
  9 13  4  0
  9 23  4  0
 10 11  1  0
 11 14  2  0
 11 27  1  0
 12 19  1  0
 12 24  4  0
 13 24  4  0
 15 18  1  0
 16 25  4  0
 16 26  4  0
 17 20  4  0
 17 28  1  0
 18 21  4  0
 21 26  4  0
 22 26  4  0
M  END
$$$$

 Created by Python create_sdf_string function

 28 30  0  0  0  0  0  0  0  0999 V2000
    5.7174   -8.4529   26.7190 C   0  0  0  0  0  0  0  0  0  0  0  0
    0.3974   -7.0711   27.5149 C   0  0  0  0  0  0  0  0  0  0  0  0
    2.5338   -7.6891   16.0102 C   0  0  0  0  0  0  0  0  0  0  0  0
    4.8690   -7.4380   26.4151 C   0  0  0  0  0  0  0  0  0  0  0  0
    2.3021   -5.6726   26.0378 C   0  0  0  0  0  0  0  0  0  0  0  0
    7.0880   -4.6163   27.0010 C   0  0  0  0  0  0  0  0  0  0  0  0
    8.3117   -4.3698   27.4436 C   0  0  0  0  0  0  0  0  0  0  0  0
    1.1339   -5.0515   26.3541 C   0  0  0  0  0  0  0  0  0  0  0  0
    4.8080   -8.0362   16.7101 C   0  0  0  0  0  0  0  0  0  0  0  0
   -1.2173   -3.9294   26.9717 O   0  0  0  0  0  0  0  0  0  0  0  0
   -1.0025   -5.0942   27.4586 C   0  0  0  0  0  0  0  0  0  0  0  0
    2.2474   -8.9123   16.6273 C   0  0  0  0  0  0  0  0  0  0  0  0
    4.4957   -9.2636   17.3041 C   0  0  0  0  0  0  0  0  0  0  0  0
   -1.8070   -5.6086   28.1920 O   0  0  0  0  0  0  0  0  0  0  0  0
   10.4296   -5.1799   28.3140 C   0  0  0  0  0  0  0  0  0  0  0  0
    6.6017   -5.9004   26.9187 C   0  0  0  0  0  0  0  0  0  0  0  0
    2.4761   -6.9940   26.4111 N   0  0  0  0  0  0  0  0  0  0  0  0
    9.1353   -5.4053   27.8239 C   0  0  0  0  0  0  0  0  0  0  0  0
    0.9922   -9.3232   16.5995 O   0  0  0  0  0  0  0  0  0  0  0  0
    1.5232   -7.6869   27.1182 C   0  0  0  0  0  0  0  0  0  0  0  0
    8.6878   -6.6715   27.7262 N   0  0  0  0  0  0  0  0  0  0  0  0
    6.9911   -8.2423   27.1808 C   0  0  0  0  0  0  0  0  0  0  0  0
    3.8436   -7.2758   16.0578 C   0  0  0  0  0  0  0  0  0  0  0  0
    3.1882   -9.7190   17.2566 C   0  0  0  0  0  0  0  0  0  0  0  0
    5.3488   -6.1737   26.5092 C   0  0  0  0  0  0  0  0  0  0  0  0
    7.4567   -6.9464   27.2858 C   0  0  0  0  0  0  0  0  0  0  0  0
    0.1921   -5.7592   27.1123 C   0  0  0  0  0  0  0  0  0  0  0  0
    3.5517   -7.7407   25.9711 C   0  0  0  0  0  0  0  0  0  0  0  0
  1  4  4  0
  1 22  4  0
  2 20  4  0
  2 27  4  0
  3 12  4  0
  3 23  4  0
  4 25  4  0
  4 28  1  0
  5  8  4  0
  5 17  4  0
  6  7  4  0
  6 16  4  0
  7 18  4  0
  8 27  4  0
  9 13  4  0
  9 23  4  0
 10 11  1  0
 11 14  2  0
 11 27  1  0
 12 19  1  0
 12 24  4  0
 13 24  4  0
 15 18  1  0
 16 25  4  0
 16 26  4  0
 17 20  4  0
 17 28  1  0
 18 21  4  0
 21 26  4  0
 22 26  4  0
M  END
$$$$

 Created by Python create_sdf_string function

 28 30  0  0  0  0  0  0  0  0999 V2000
    5.7174   -8.4529   26.7190 C   0  0  0  0  0  0  0  0  0  0  0  0
    0.3974   -7.0711   27.5149 C   0  0  0  0  0  0  0  0  0  0  0  0
    2.5338   -7.6891   16.0102 C   0  0  0  0  0  0  0  0  0  0  0  0
    4.8690   -7.4380   26.4151 C   0  0  0  0  0  0  0  0  0  0  0  0
    2.3021   -5.6726   26.0378 C   0  0  0  0  0  0  0  0  0  0  0  0
    7.0880   -4.6163   27.0010 C   0  0  0  0  0  0  0  0  0  0  0  0
    8.3117   -4.3698   27.4436 C   0  0  0  0  0  0  0  0  0  0  0  0
    1.1339   -5.0515   26.3541 C   0  0  0  0  0  0  0  0  0  0  0  0
    4.8080   -8.0362   16.7101 C   0  0  0  0  0  0  0  0  0  0  0  0
   -1.2173   -3.9294   26.9717 O   0  0  0  0  0  0  0  0  0  0  0  0
   -1.0025   -5.0942   27.4586 C   0  0  0  0  0  0  0  0  0  0  0  0
    2.2474   -8.9123   16.6273 C   0  0  0  0  0  0  0  0  0  0  0  0
    4.4957   -9.2636   17.3041 C   0  0  0  0  0  0  0  0  0  0  0  0
   -1.8070   -5.6086   28.1920 O   0  0  0  0  0  0  0  0  0  0  0  0
   10.4296   -5.1799   28.3140 C   0  0  0  0  0  0  0  0  0  0  0  0
    6.6017   -5.9004   26.9187 C   0  0  0  0  0  0  0  0  0  0  0  0
    2.4761   -6.9940   26.4111 N   0  0  0  0  0  0  0  0  0  0  0  0
    9.1353   -5.4053   27.8239 C   0  0  0  0  0  0  0  0  0  0  0  0
    0.9922   -9.3232   16.5995 O   0  0  0  0  0  0  0  0  0  0  0  0
    1.5232   -7.6869   27.1182 C   0  0  0  0  0  0  0  0  0  0  0  0
    8.6878   -6.6715   27.7262 N   0  0  0  0  0  0  0  0  0  0  0  0
    6.9911   -8.2423   27.1808 C   0  0  0  0  0  0  0  0  0  0  0  0
    3.8436   -7.2758   16.0578 C   0  0  0  0  0  0  0  0  0  0  0  0
    3.1882   -9.7190   17.2566 C   0  0  0  0  0  0  0  0  0  0  0  0
    5.3488   -6.1737   26.5092 C   0  0  0  0  0  0  0  0  0  0  0  0
    7.4567   -6.9464   27.2858 C   0  0  0  0  0  0  0  0  0  0  0  0
    0.1921   -5.7592   27.1123 C   0  0  0  0  0  0  0  0  0  0  0  0
    3.5517   -7.7407   25.9711 C   0  0  0  0  0  0  0  0  0  0  0  0
  1  4  4  0
  1 22  4  0
  2 20  4  0
  2 27  4  0
  3 12  4  0
  3 23  4  0
  4 25  4  0
  4 28  1  0
  5  8  4  0
  5 17  4  0
  6  7  4  0
  6 16  4  0
  7 18  4  0
  8 27  4  0
  9 13  4  0
  9 23  4  0
 10 11  1  0
 11 14  2  0
 11 27  1  0
 12 19  1  0
 12 24  4  0
 13 24  4  0
 15 18  1  0
 16 25  4  0
 16 26  4  0
 17 20  4  0
 17 28  1  0
 18 21  4  0
 21 26  4  0
 22 26  4  0
M  END
$$$$

 Created by Python create_sdf_string function

 28 30  0  0  0  0  0  0  0  0999 V2000
    5.7174   -8.4529   26.7190 C   0  0  0  0  0  0  0  0  0  0  0  0
    0.3974   -7.0711   27.5149 C   0  0  0  0  0  0  0  0  0  0  0  0
    2.5338   -7.6891   16.0102 C   0  0  0  0  0  0  0  0  0  0  0  0
    4.8690   -7.4380   26.4151 C   0  0  0  0  0  0  0  0  0  0  0  0
    2.3021   -5.6726   26.0378 C   0  0  0  0  0  0  0  0  0  0  0  0
    7.0880   -4.6163   27.0010 C   0  0  0  0  0  0  0  0  0  0  0  0
    8.3117   -4.3698   27.4436 C   0  0  0  0  0  0  0  0  0  0  0  0
    1.1339   -5.0515   26.3541 C   0  0  0  0  0  0  0  0  0  0  0  0
    4.8080   -8.0362   16.7101 C   0  0  0  0  0  0  0  0  0  0  0  0
   -1.2173   -3.9294   26.9717 O   0  0  0  0  0  0  0  0  0  0  0  0
   -1.0025   -5.0942   27.4586 C   0  0  0  0  0  0  0  0  0  0  0  0
    2.2474   -8.9123   16.6273 C   0  0  0  0  0  0  0  0  0  0  0  0
    4.4957   -9.2636   17.3041 C   0  0  0  0  0  0  0  0  0  0  0  0
   -1.8070   -5.6086   28.1920 O   0  0  0  0  0  0  0  0  0  0  0  0
   10.4296   -5.1799   28.3140 C   0  0  0  0  0  0  0  0  0  0  0  0
    6.6017   -5.9004   26.9187 C   0  0  0  0  0  0  0  0  0  0  0  0
    2.4761   -6.9940   26.4111 N   0  0  0  0  0  0  0  0  0  0  0  0
    9.1353   -5.4053   27.8239 C   0  0  0  0  0  0  0  0  0  0  0  0
    0.9922   -9.3232   16.5995 O   0  0  0  0  0  0  0  0  0  0  0  0
    1.5232   -7.6869   27.1182 C   0  0  0  0  0  0  0  0  0  0  0  0
    8.6878   -6.6715   27.7262 N   0  0  0  0  0  0  0  0  0  0  0  0
    6.9911   -8.2423   27.1808 C   0  0  0  0  0  0  0  0  0  0  0  0
    3.8436   -7.2758   16.0578 C   0  0  0  0  0  0  0  0  0  0  0  0
    3.1882   -9.7190   17.2566 C   0  0  0  0  0  0  0  0  0  0  0  0
    5.3488   -6.1737   26.5092 C   0  0  0  0  0  0  0  0  0  0  0  0
    7.4567   -6.9464   27.2858 C   0  0  0  0  0  0  0  0  0  0  0  0
    0.1921   -5.7592   27.1123 C   0  0  0  0  0  0  0  0  0  0  0  0
    3.5517   -7.7407   25.9711 C   0  0  0  0  0  0  0  0  0  0  0  0
  1  4  4  0
  1 22  4  0
  2 20  4  0
  2 27  4  0
  3 12  4  0
  3 23  4  0
  4 25  4  0
  4 28  1  0
  5  8  4  0
  5 17  4  0
  6  7  4  0
  6 16  4  0
  7 18  4  0
  8 27  4  0
  9 13  4  0
  9 23  4  0
 10 11  1  0
 11 14  2  0
 11 27  1  0
 12 19  1  0
 12 24  4  0
 13 24  4  0
 15 18  1  0
 16 25  4  0
 16 26  4  0
 17 20  4  0
 17 28  1  0
 18 21  4  0
 21 26  4  0
 22 26  4  0
M  END
$$$$

 Created by Python create_sdf_string function

 28 30  0  0  0  0  0  0  0  0999 V2000
    5.7174   -8.4529   26.7190 C   0  0  0  0  0  0  0  0  0  0  0  0
    0.3974   -7.0711   27.5149 C   0  0  0  0  0  0  0  0  0  0  0  0
    2.5338   -7.6891   16.0102 C   0  0  0  0  0  0  0  0  0  0  0  0
    4.8690   -7.4380   26.4151 C   0  0  0  0  0  0  0  0  0  0  0  0
    2.3021   -5.6726   26.0378 C   0  0  0  0  0  0  0  0  0  0  0  0
    7.0880   -4.6163   27.0010 C   0  0  0  0  0  0  0  0  0  0  0  0
    8.3117   -4.3698   27.4436 C   0  0  0  0  0  0  0  0  0  0  0  0
    1.1339   -5.0515   26.3541 C   0  0  0  0  0  0  0  0  0  0  0  0
    4.8080   -8.0362   16.7101 C   0  0  0  0  0  0  0  0  0  0  0  0
   -1.2173   -3.9294   26.9717 O   0  0  0  0  0  0  0  0  0  0  0  0
   -1.0025   -5.0942   27.4586 C   0  0  0  0  0  0  0  0  0  0  0  0
    2.2474   -8.9123   16.6273 C   0  0  0  0  0  0  0  0  0  0  0  0
    4.4957   -9.2636   17.3041 C   0  0  0  0  0  0  0  0  0  0  0  0
   -1.8070   -5.6086   28.1920 O   0  0  0  0  0  0  0  0  0  0  0  0
   10.4296   -5.1799   28.3140 C   0  0  0  0  0  0  0  0  0  0  0  0
    6.6017   -5.9004   26.9187 C   0  0  0  0  0  0  0  0  0  0  0  0
    2.4761   -6.9940   26.4111 N   0  0  0  0  0  0  0  0  0  0  0  0
    9.1353   -5.4053   27.8239 C   0  0  0  0  0  0  0  0  0  0  0  0
    0.9922   -9.3232   16.5995 O   0  0  0  0  0  0  0  0  0  0  0  0
    1.5232   -7.6869   27.1182 C   0  0  0  0  0  0  0  0  0  0  0  0
    8.6878   -6.6715   27.7262 N   0  0  0  0  0  0  0  0  0  0  0  0
    6.9911   -8.2423   27.1808 C   0  0  0  0  0  0  0  0  0  0  0  0
    3.8436   -7.2758   16.0578 C   0  0  0  0  0  0  0  0  0  0  0  0
    3.1882   -9.7190   17.2566 C   0  0  0  0  0  0  0  0  0  0  0  0
    5.3488   -6.1737   26.5092 C   0  0  0  0  0  0  0  0  0  0  0  0
    7.4567   -6.9464   27.2858 C   0  0  0  0  0  0  0  0  0  0  0  0
    0.1921   -5.7592   27.1123 C   0  0  0  0  0  0  0  0  0  0  0  0
    3.5517   -7.7407   25.9711 C   0  0  0  0  0  0  0  0  0  0  0  0
  1  4  4  0
  1 22  4  0
  2 20  4  0
  2 27  4  0
  3 12  4  0
  3 23  4  0
  4 25  4  0
  4 28  1  0
  5  8  4  0
  5 17  4  0
  6  7  4  0
  6 16  4  0
  7 18  4  0
  8 27  4  0
  9 13  4  0
  9 23  4  0
 10 11  1  0
 11 14  2  0
 11 27  1  0
 12 19  1  0
 12 24  4  0
 13 24  4  0
 15 18  1  0
 16 25  4  0
 16 26  4  0
 17 20  4  0
 17 28  1  0
 18 21  4  0
 21 26  4  0
 22 26  4  0
M  END
$$$$

 Created by Python create_sdf_string function

 28 30  0  0  0  0  0  0  0  0999 V2000
    5.7174   -8.4529   26.7190 C   0  0  0  0  0  0  0  0  0  0  0  0
    0.3974   -7.0711   27.5149 C   0  0  0  0  0  0  0  0  0  0  0  0
    2.5338   -7.6891   16.0102 C   0  0  0  0  0  0  0  0  0  0  0  0
    4.8690   -7.4380   26.4151 C   0  0  0  0  0  0  0  0  0  0  0  0
    2.3021   -5.6726   26.0378 C   0  0  0  0  0  0  0  0  0  0  0  0
    7.0880   -4.6163   27.0010 C   0  0  0  0  0  0  0  0  0  0  0  0
    8.3117   -4.3698   27.4436 C   0  0  0  0  0  0  0  0  0  0  0  0
    1.1339   -5.0515   26.3541 C   0  0  0  0  0  0  0  0  0  0  0  0
    4.8080   -8.0362   16.7101 C   0  0  0  0  0  0  0  0  0  0  0  0
   -1.2173   -3.9294   26.9717 O   0  0  0  0  0  0  0  0  0  0  0  0
   -1.0025   -5.0942   27.4586 C   0  0  0  0  0  0  0  0  0  0  0  0
    2.2474   -8.9123   16.6273 C   0  0  0  0  0  0  0  0  0  0  0  0
    4.4957   -9.2636   17.3041 C   0  0  0  0  0  0  0  0  0  0  0  0
   -1.8070   -5.6086   28.1920 O   0  0  0  0  0  0  0  0  0  0  0  0
   10.4296   -5.1799   28.3140 C   0  0  0  0  0  0  0  0  0  0  0  0
    6.6017   -5.9004   26.9187 C   0  0  0  0  0  0  0  0  0  0  0  0
    2.4761   -6.9940   26.4111 N   0  0  0  0  0  0  0  0  0  0  0  0
    9.1353   -5.4053   27.8239 C   0  0  0  0  0  0  0  0  0  0  0  0
    0.9922   -9.3232   16.5995 O   0  0  0  0  0  0  0  0  0  0  0  0
    1.5232   -7.6869   27.1182 C   0  0  0  0  0  0  0  0  0  0  0  0
    8.6878   -6.6715   27.7262 N   0  0  0  0  0  0  0  0  0  0  0  0
    6.9911   -8.2423   27.1808 C   0  0  0  0  0  0  0  0  0  0  0  0
    3.8436   -7.2758   16.0578 C   0  0  0  0  0  0  0  0  0  0  0  0
    3.1882   -9.7190   17.2566 C   0  0  0  0  0  0  0  0  0  0  0  0
    5.3488   -6.1737   26.5092 C   0  0  0  0  0  0  0  0  0  0  0  0
    7.4567   -6.9464   27.2858 C   0  0  0  0  0  0  0  0  0  0  0  0
    0.1921   -5.7592   27.1123 C   0  0  0  0  0  0  0  0  0  0  0  0
    3.5517   -7.7407   25.9711 C   0  0  0  0  0  0  0  0  0  0  0  0
  1  4  4  0
  1 22  4  0
  2 20  4  0
  2 27  4  0
  3 12  4  0
  3 23  4  0
  4 25  4  0
  4 28  1  0
  5  8  4  0
  5 17  4  0
  6  7  4  0
  6 16  4  0
  7 18  4  0
  8 27  4  0
  9 13  4  0
  9 23  4  0
 10 11  1  0
 11 14  2  0
 11 27  1  0
 12 19  1  0
 12 24  4  0
 13 24  4  0
 15 18  1  0
 16 25  4  0
 16 26  4  0
 17 20  4  0
 17 28  1  0
 18 21  4  0
 21 26  4  0
 22 26  4  0
M  END
$$$$

 Created by Python create_sdf_string function

 28 30  0  0  0  0  0  0  0  0999 V2000
    5.7174   -8.4529   26.7190 C   0  0  0  0  0  0  0  0  0  0  0  0
    0.3974   -7.0711   27.5149 C   0  0  0  0  0  0  0  0  0  0  0  0
    2.5338   -7.6891   16.0102 C   0  0  0  0  0  0  0  0  0  0  0  0
    4.8690   -7.4380   26.4151 C   0  0  0  0  0  0  0  0  0  0  0  0
    2.3021   -5.6726   26.0378 C   0  0  0  0  0  0  0  0  0  0  0  0
    7.0880   -4.6163   27.0010 C   0  0  0  0  0  0  0  0  0  0  0  0
    8.3117   -4.3698   27.4436 C   0  0  0  0  0  0  0  0  0  0  0  0
    1.1339   -5.0515   26.3541 C   0  0  0  0  0  0  0  0  0  0  0  0
    4.8080   -8.0362   16.7101 C   0  0  0  0  0  0  0  0  0  0  0  0
   -1.2173   -3.9294   26.9717 O   0  0  0  0  0  0  0  0  0  0  0  0
   -1.0025   -5.0942   27.4586 C   0  0  0  0  0  0  0  0  0  0  0  0
    2.2474   -8.9123   16.6273 C   0  0  0  0  0  0  0  0  0  0  0  0
    4.4957   -9.2636   17.3041 C   0  0  0  0  0  0  0  0  0  0  0  0
   -1.8070   -5.6086   28.1920 O   0  0  0  0  0  0  0  0  0  0  0  0
   10.4296   -5.1799   28.3140 C   0  0  0  0  0  0  0  0  0  0  0  0
    6.6017   -5.9004   26.9187 C   0  0  0  0  0  0  0  0  0  0  0  0
    2.4761   -6.9940   26.4111 N   0  0  0  0  0  0  0  0  0  0  0  0
    9.1353   -5.4053   27.8239 C   0  0  0  0  0  0  0  0  0  0  0  0
    0.9922   -9.3232   16.5995 O   0  0  0  0  0  0  0  0  0  0  0  0
    1.5232   -7.6869   27.1182 C   0  0  0  0  0  0  0  0  0  0  0  0
    8.6878   -6.6715   27.7262 N   0  0  0  0  0  0  0  0  0  0  0  0
    6.9911   -8.2423   27.1808 C   0  0  0  0  0  0  0  0  0  0  0  0
    3.8436   -7.2758   16.0578 C   0  0  0  0  0  0  0  0  0  0  0  0
    3.1882   -9.7190   17.2566 C   0  0  0  0  0  0  0  0  0  0  0  0
    5.3488   -6.1737   26.5092 C   0  0  0  0  0  0  0  0  0  0  0  0
    7.4567   -6.9464   27.2858 C   0  0  0  0  0  0  0  0  0  0  0  0
    0.1921   -5.7592   27.1123 C   0  0  0  0  0  0  0  0  0  0  0  0
    3.5517   -7.7407   25.9711 C   0  0  0  0  0  0  0  0  0  0  0  0
  1  4  4  0
  1 22  4  0
  2 20  4  0
  2 27  4  0
  3 12  4  0
  3 23  4  0
  4 25  4  0
  4 28  1  0
  5  8  4  0
  5 17  4  0
  6  7  4  0
  6 16  4  0
  7 18  4  0
  8 27  4  0
  9 13  4  0
  9 23  4  0
 10 11  1  0
 11 14  2  0
 11 27  1  0
 12 19  1  0
 12 24  4  0
 13 24  4  0
 15 18  1  0
 16 25  4  0
 16 26  4  0
 17 20  4  0
 17 28  1  0
 18 21  4  0
 21 26  4  0
 22 26  4  0
M  END
$$$$

 Created by Python create_sdf_string function

 28 30  0  0  0  0  0  0  0  0999 V2000
    5.7174   -8.4529   26.7190 C   0  0  0  0  0  0  0  0  0  0  0  0
    0.3974   -7.0711   27.5149 C   0  0  0  0  0  0  0  0  0  0  0  0
    2.5338   -7.6891   16.0102 C   0  0  0  0  0  0  0  0  0  0  0  0
    4.8690   -7.4380   26.4151 C   0  0  0  0  0  0  0  0  0  0  0  0
    2.3021   -5.6726   26.0378 C   0  0  0  0  0  0  0  0  0  0  0  0
    7.0880   -4.6163   27.0010 C   0  0  0  0  0  0  0  0  0  0  0  0
    8.3117   -4.3698   27.4436 C   0  0  0  0  0  0  0  0  0  0  0  0
    1.1339   -5.0515   26.3541 C   0  0  0  0  0  0  0  0  0  0  0  0
    4.8080   -8.0362   16.7101 C   0  0  0  0  0  0  0  0  0  0  0  0
   -1.2173   -3.9294   26.9717 O   0  0  0  0  0  0  0  0  0  0  0  0
   -1.0025   -5.0942   27.4586 C   0  0  0  0  0  0  0  0  0  0  0  0
    2.2474   -8.9123   16.6273 C   0  0  0  0  0  0  0  0  0  0  0  0
    4.4957   -9.2636   17.3041 C   0  0  0  0  0  0  0  0  0  0  0  0
   -1.8070   -5.6086   28.1920 O   0  0  0  0  0  0  0  0  0  0  0  0
   10.4296   -5.1799   28.3140 C   0  0  0  0  0  0  0  0  0  0  0  0
    6.6017   -5.9004   26.9187 C   0  0  0  0  0  0  0  0  0  0  0  0
    2.4761   -6.9940   26.4111 N   0  0  0  0  0  0  0  0  0  0  0  0
    9.1353   -5.4053   27.8239 C   0  0  0  0  0  0  0  0  0  0  0  0
    0.9922   -9.3232   16.5995 O   0  0  0  0  0  0  0  0  0  0  0  0
    1.5232   -7.6869   27.1182 C   0  0  0  0  0  0  0  0  0  0  0  0
    8.6878   -6.6715   27.7262 N   0  0  0  0  0  0  0  0  0  0  0  0
    6.9911   -8.2423   27.1808 C   0  0  0  0  0  0  0  0  0  0  0  0
    3.8436   -7.2758   16.0578 C   0  0  0  0  0  0  0  0  0  0  0  0
    3.1882   -9.7190   17.2566 C   0  0  0  0  0  0  0  0  0  0  0  0
    5.3488   -6.1737   26.5092 C   0  0  0  0  0  0  0  0  0  0  0  0
    7.4567   -6.9464   27.2858 C   0  0  0  0  0  0  0  0  0  0  0  0
    0.1921   -5.7592   27.1123 C   0  0  0  0  0  0  0  0  0  0  0  0
    3.5517   -7.7407   25.9711 C   0  0  0  0  0  0  0  0  0  0  0  0
  1  4  4  0
  1 22  4  0
  2 20  4  0
  2 27  4  0
  3 12  4  0
  3 23  4  0
  4 25  4  0
  4 28  1  0
  5  8  4  0
  5 17  4  0
  6  7  4  0
  6 16  4  0
  7 18  4  0
  8 27  4  0
  9 13  4  0
  9 23  4  0
 10 11  1  0
 11 14  2  0
 11 27  1  0
 12 19  1  0
 12 24  4  0
 13 24  4  0
 15 18  1  0
 16 25  4  0
 16 26  4  0
 17 20  4  0
 17 28  1  0
 18 21  4  0
 21 26  4  0
 22 26  4  0
M  END
$$$$

 Created by Python create_sdf_string function

 28 30  0  0  0  0  0  0  0  0999 V2000
    5.7174   -8.4529   26.7190 C   0  0  0  0  0  0  0  0  0  0  0  0
    0.3974   -7.0711   27.5149 C   0  0  0  0  0  0  0  0  0  0  0  0
    2.5338   -7.6891   16.0102 C   0  0  0  0  0  0  0  0  0  0  0  0
    4.8690   -7.4380   26.4151 C   0  0  0  0  0  0  0  0  0  0  0  0
    2.3021   -5.6726   26.0378 C   0  0  0  0  0  0  0  0  0  0  0  0
    7.0880   -4.6163   27.0010 C   0  0  0  0  0  0  0  0  0  0  0  0
    8.3117   -4.3698   27.4436 C   0  0  0  0  0  0  0  0  0  0  0  0
    1.1339   -5.0515   26.3541 C   0  0  0  0  0  0  0  0  0  0  0  0
    4.8080   -8.0362   16.7101 C   0  0  0  0  0  0  0  0  0  0  0  0
   -1.2173   -3.9294   26.9717 O   0  0  0  0  0  0  0  0  0  0  0  0
   -1.0025   -5.0942   27.4586 C   0  0  0  0  0  0  0  0  0  0  0  0
    2.2474   -8.9123   16.6273 C   0  0  0  0  0  0  0  0  0  0  0  0
    4.4957   -9.2636   17.3041 C   0  0  0  0  0  0  0  0  0  0  0  0
   -1.8070   -5.6086   28.1920 O   0  0  0  0  0  0  0  0  0  0  0  0
   10.4296   -5.1799   28.3140 C   0  0  0  0  0  0  0  0  0  0  0  0
    6.6017   -5.9004   26.9187 C   0  0  0  0  0  0  0  0  0  0  0  0
    2.4761   -6.9940   26.4111 N   0  0  0  0  0  0  0  0  0  0  0  0
    9.1353   -5.4053   27.8239 C   0  0  0  0  0  0  0  0  0  0  0  0
    0.9922   -9.3232   16.5995 O   0  0  0  0  0  0  0  0  0  0  0  0
    1.5232   -7.6869   27.1182 C   0  0  0  0  0  0  0  0  0  0  0  0
    8.6878   -6.6715   27.7262 N   0  0  0  0  0  0  0  0  0  0  0  0
    6.9911   -8.2423   27.1808 C   0  0  0  0  0  0  0  0  0  0  0  0
    3.8436   -7.2758   16.0578 C   0  0  0  0  0  0  0  0  0  0  0  0
    3.1882   -9.7190   17.2566 C   0  0  0  0  0  0  0  0  0  0  0  0
    5.3488   -6.1737   26.5092 C   0  0  0  0  0  0  0  0  0  0  0  0
    7.4567   -6.9464   27.2858 C   0  0  0  0  0  0  0  0  0  0  0  0
    0.1921   -5.7592   27.1123 C   0  0  0  0  0  0  0  0  0  0  0  0
    3.5517   -7.7407   25.9711 C   0  0  0  0  0  0  0  0  0  0  0  0
  1  4  4  0
  1 22  4  0
  2 20  4  0
  2 27  4  0
  3 12  4  0
  3 23  4  0
  4 25  4  0
  4 28  1  0
  5  8  4  0
  5 17  4  0
  6  7  4  0
  6 16  4  0
  7 18  4  0
  8 27  4  0
  9 13  4  0
  9 23  4  0
 10 11  1  0
 11 14  2  0
 11 27  1  0
 12 19  1  0
 12 24  4  0
 13 24  4  0
 15 18  1  0
 16 25  4  0
 16 26  4  0
 17 20  4  0
 17 28  1  0
 18 21  4  0
 21 26  4  0
 22 26  4  0
M  END
$$$$

 Created by Python create_sdf_string function

 28 30  0  0  0  0  0  0  0  0999 V2000
    5.7174   -8.4529   26.7190 C   0  0  0  0  0  0  0  0  0  0  0  0
    0.3974   -7.0711   27.5149 C   0  0  0  0  0  0  0  0  0  0  0  0
    2.5338   -7.6891   16.0102 C   0  0  0  0  0  0  0  0  0  0  0  0
    4.8690   -7.4380   26.4151 C   0  0  0  0  0  0  0  0  0  0  0  0
    2.3021   -5.6726   26.0378 C   0  0  0  0  0  0  0  0  0  0  0  0
    7.0880   -4.6163   27.0010 C   0  0  0  0  0  0  0  0  0  0  0  0
    8.3117   -4.3698   27.4436 C   0  0  0  0  0  0  0  0  0  0  0  0
    1.1339   -5.0515   26.3541 C   0  0  0  0  0  0  0  0  0  0  0  0
    4.8080   -8.0362   16.7101 C   0  0  0  0  0  0  0  0  0  0  0  0
   -1.2173   -3.9294   26.9717 O   0  0  0  0  0  0  0  0  0  0  0  0
   -1.0025   -5.0942   27.4586 C   0  0  0  0  0  0  0  0  0  0  0  0
    2.2474   -8.9123   16.6273 C   0  0  0  0  0  0  0  0  0  0  0  0
    4.4957   -9.2636   17.3041 C   0  0  0  0  0  0  0  0  0  0  0  0
   -1.8070   -5.6086   28.1920 O   0  0  0  0  0  0  0  0  0  0  0  0
   10.4296   -5.1799   28.3140 C   0  0  0  0  0  0  0  0  0  0  0  0
    6.6017   -5.9004   26.9187 C   0  0  0  0  0  0  0  0  0  0  0  0
    2.4761   -6.9940   26.4111 N   0  0  0  0  0  0  0  0  0  0  0  0
    9.1353   -5.4053   27.8239 C   0  0  0  0  0  0  0  0  0  0  0  0
    0.9922   -9.3232   16.5995 O   0  0  0  0  0  0  0  0  0  0  0  0
    1.5232   -7.6869   27.1182 C   0  0  0  0  0  0  0  0  0  0  0  0
    8.6878   -6.6715   27.7262 N   0  0  0  0  0  0  0  0  0  0  0  0
    6.9911   -8.2423   27.1808 C   0  0  0  0  0  0  0  0  0  0  0  0
    3.8436   -7.2758   16.0578 C   0  0  0  0  0  0  0  0  0  0  0  0
    3.1882   -9.7190   17.2566 C   0  0  0  0  0  0  0  0  0  0  0  0
    5.3488   -6.1737   26.5092 C   0  0  0  0  0  0  0  0  0  0  0  0
    7.4567   -6.9464   27.2858 C   0  0  0  0  0  0  0  0  0  0  0  0
    0.1921   -5.7592   27.1123 C   0  0  0  0  0  0  0  0  0  0  0  0
    3.5517   -7.7407   25.9711 C   0  0  0  0  0  0  0  0  0  0  0  0
  1  4  4  0
  1 22  4  0
  2 20  4  0
  2 27  4  0
  3 12  4  0
  3 23  4  0
  4 25  4  0
  4 28  1  0
  5  8  4  0
  5 17  4  0
  6  7  4  0
  6 16  4  0
  7 18  4  0
  8 27  4  0
  9 13  4  0
  9 23  4  0
 10 11  1  0
 11 14  2  0
 11 27  1  0
 12 19  1  0
 12 24  4  0
 13 24  4  0
 15 18  1  0
 16 25  4  0
 16 26  4  0
 17 20  4  0
 17 28  1  0
 18 21  4  0
 21 26  4  0
 22 26  4  0
M  END
$$$$

 Created by Python create_sdf_string function

 28 30  0  0  0  0  0  0  0  0999 V2000
    5.7174   -8.4529   26.7190 C   0  0  0  0  0  0  0  0  0  0  0  0
    0.3974   -7.0711   27.5149 C   0  0  0  0  0  0  0  0  0  0  0  0
    2.5338   -7.6891   16.0102 C   0  0  0  0  0  0  0  0  0  0  0  0
    4.8690   -7.4380   26.4151 C   0  0  0  0  0  0  0  0  0  0  0  0
    2.3021   -5.6726   26.0378 C   0  0  0  0  0  0  0  0  0  0  0  0
    7.0880   -4.6163   27.0010 C   0  0  0  0  0  0  0  0  0  0  0  0
    8.3117   -4.3698   27.4436 C   0  0  0  0  0  0  0  0  0  0  0  0
    1.1339   -5.0515   26.3541 C   0  0  0  0  0  0  0  0  0  0  0  0
    4.8080   -8.0362   16.7101 C   0  0  0  0  0  0  0  0  0  0  0  0
   -1.2173   -3.9294   26.9717 O   0  0  0  0  0  0  0  0  0  0  0  0
   -1.0025   -5.0942   27.4586 C   0  0  0  0  0  0  0  0  0  0  0  0
    2.2474   -8.9123   16.6273 C   0  0  0  0  0  0  0  0  0  0  0  0
    4.4957   -9.2636   17.3041 C   0  0  0  0  0  0  0  0  0  0  0  0
   -1.8070   -5.6086   28.1920 O   0  0  0  0  0  0  0  0  0  0  0  0
   10.4296   -5.1799   28.3140 C   0  0  0  0  0  0  0  0  0  0  0  0
    6.6017   -5.9004   26.9187 C   0  0  0  0  0  0  0  0  0  0  0  0
    2.4761   -6.9940   26.4111 N   0  0  0  0  0  0  0  0  0  0  0  0
    9.1353   -5.4053   27.8239 C   0  0  0  0  0  0  0  0  0  0  0  0
    0.9922   -9.3232   16.5995 O   0  0  0  0  0  0  0  0  0  0  0  0
    1.5232   -7.6869   27.1182 C   0  0  0  0  0  0  0  0  0  0  0  0
    8.6878   -6.6715   27.7262 N   0  0  0  0  0  0  0  0  0  0  0  0
    6.9911   -8.2423   27.1808 C   0  0  0  0  0  0  0  0  0  0  0  0
    3.8436   -7.2758   16.0578 C   0  0  0  0  0  0  0  0  0  0  0  0
    3.1882   -9.7190   17.2566 C   0  0  0  0  0  0  0  0  0  0  0  0
    5.3488   -6.1737   26.5092 C   0  0  0  0  0  0  0  0  0  0  0  0
    7.4567   -6.9464   27.2858 C   0  0  0  0  0  0  0  0  0  0  0  0
    0.1921   -5.7592   27.1123 C   0  0  0  0  0  0  0  0  0  0  0  0
    3.5517   -7.7407   25.9711 C   0  0  0  0  0  0  0  0  0  0  0  0
  1  4  4  0
  1 22  4  0
  2 20  4  0
  2 27  4  0
  3 12  4  0
  3 23  4  0
  4 25  4  0
  4 28  1  0
  5  8  4  0
  5 17  4  0
  6  7  4  0
  6 16  4  0
  7 18  4  0
  8 27  4  0
  9 13  4  0
  9 23  4  0
 10 11  1  0
 11 14  2  0
 11 27  1  0
 12 19  1  0
 12 24  4  0
 13 24  4  0
 15 18  1  0
 16 25  4  0
 16 26  4  0
 17 20  4  0
 17 28  1  0
 18 21  4  0
 21 26  4  0
 22 26  4  0
M  END
$$$$

 Created by Python create_sdf_string function

 28 30  0  0  0  0  0  0  0  0999 V2000
    5.7174   -8.4529   26.7190 C   0  0  0  0  0  0  0  0  0  0  0  0
    0.3974   -7.0711   27.5149 C   0  0  0  0  0  0  0  0  0  0  0  0
    2.5338   -7.6891   16.0102 C   0  0  0  0  0  0  0  0  0  0  0  0
    4.8690   -7.4380   26.4151 C   0  0  0  0  0  0  0  0  0  0  0  0
    2.3021   -5.6726   26.0378 C   0  0  0  0  0  0  0  0  0  0  0  0
    7.0880   -4.6163   27.0010 C   0  0  0  0  0  0  0  0  0  0  0  0
    8.3117   -4.3698   27.4436 C   0  0  0  0  0  0  0  0  0  0  0  0
    1.1339   -5.0515   26.3541 C   0  0  0  0  0  0  0  0  0  0  0  0
    4.8080   -8.0362   16.7101 C   0  0  0  0  0  0  0  0  0  0  0  0
   -1.2173   -3.9294   26.9717 O   0  0  0  0  0  0  0  0  0  0  0  0
   -1.0025   -5.0942   27.4586 C   0  0  0  0  0  0  0  0  0  0  0  0
    2.2474   -8.9123   16.6273 C   0  0  0  0  0  0  0  0  0  0  0  0
    4.4957   -9.2636   17.3041 C   0  0  0  0  0  0  0  0  0  0  0  0
   -1.8070   -5.6086   28.1920 O   0  0  0  0  0  0  0  0  0  0  0  0
   10.4296   -5.1799   28.3140 C   0  0  0  0  0  0  0  0  0  0  0  0
    6.6017   -5.9004   26.9187 C   0  0  0  0  0  0  0  0  0  0  0  0
    2.4761   -6.9940   26.4111 N   0  0  0  0  0  0  0  0  0  0  0  0
    9.1353   -5.4053   27.8239 C   0  0  0  0  0  0  0  0  0  0  0  0
    0.9922   -9.3232   16.5995 O   0  0  0  0  0  0  0  0  0  0  0  0
    1.5232   -7.6869   27.1182 C   0  0  0  0  0  0  0  0  0  0  0  0
    8.6878   -6.6715   27.7262 N   0  0  0  0  0  0  0  0  0  0  0  0
    6.9911   -8.2423   27.1808 C   0  0  0  0  0  0  0  0  0  0  0  0
    3.8436   -7.2758   16.0578 C   0  0  0  0  0  0  0  0  0  0  0  0
    3.1882   -9.7190   17.2566 C   0  0  0  0  0  0  0  0  0  0  0  0
    5.3488   -6.1737   26.5092 C   0  0  0  0  0  0  0  0  0  0  0  0
    7.4567   -6.9464   27.2858 C   0  0  0  0  0  0  0  0  0  0  0  0
    0.1921   -5.7592   27.1123 C   0  0  0  0  0  0  0  0  0  0  0  0
    3.5517   -7.7407   25.9711 C   0  0  0  0  0  0  0  0  0  0  0  0
  1  4  4  0
  1 22  4  0
  2 20  4  0
  2 27  4  0
  3 12  4  0
  3 23  4  0
  4 25  4  0
  4 28  1  0
  5  8  4  0
  5 17  4  0
  6  7  4  0
  6 16  4  0
  7 18  4  0
  8 27  4  0
  9 13  4  0
  9 23  4  0
 10 11  1  0
 11 14  2  0
 11 27  1  0
 12 19  1  0
 12 24  4  0
 13 24  4  0
 15 18  1  0
 16 25  4  0
 16 26  4  0
 17 20  4  0
 17 28  1  0
 18 21  4  0
 21 26  4  0
 22 26  4  0
M  END
$$$$

 Created by Python create_sdf_string function

 28 30  0  0  0  0  0  0  0  0999 V2000
    5.7174   -8.4529   26.7190 C   0  0  0  0  0  0  0  0  0  0  0  0
    0.3974   -7.0711   27.5149 C   0  0  0  0  0  0  0  0  0  0  0  0
    2.5338   -7.6891   16.0102 C   0  0  0  0  0  0  0  0  0  0  0  0
    4.8690   -7.4380   26.4151 C   0  0  0  0  0  0  0  0  0  0  0  0
    2.3021   -5.6726   26.0378 C   0  0  0  0  0  0  0  0  0  0  0  0
    7.0880   -4.6163   27.0010 C   0  0  0  0  0  0  0  0  0  0  0  0
    8.3117   -4.3698   27.4436 C   0  0  0  0  0  0  0  0  0  0  0  0
    1.1339   -5.0515   26.3541 C   0  0  0  0  0  0  0  0  0  0  0  0
    4.8080   -8.0362   16.7101 C   0  0  0  0  0  0  0  0  0  0  0  0
   -1.2173   -3.9294   26.9717 O   0  0  0  0  0  0  0  0  0  0  0  0
   -1.0025   -5.0942   27.4586 C   0  0  0  0  0  0  0  0  0  0  0  0
    2.2474   -8.9123   16.6273 C   0  0  0  0  0  0  0  0  0  0  0  0
    4.4957   -9.2636   17.3041 C   0  0  0  0  0  0  0  0  0  0  0  0
   -1.8070   -5.6086   28.1920 O   0  0  0  0  0  0  0  0  0  0  0  0
   10.4296   -5.1799   28.3140 C   0  0  0  0  0  0  0  0  0  0  0  0
    6.6017   -5.9004   26.9187 C   0  0  0  0  0  0  0  0  0  0  0  0
    2.4761   -6.9940   26.4111 N   0  0  0  0  0  0  0  0  0  0  0  0
    9.1353   -5.4053   27.8239 C   0  0  0  0  0  0  0  0  0  0  0  0
    0.9922   -9.3232   16.5995 O   0  0  0  0  0  0  0  0  0  0  0  0
    1.5232   -7.6869   27.1182 C   0  0  0  0  0  0  0  0  0  0  0  0
    8.6878   -6.6715   27.7262 N   0  0  0  0  0  0  0  0  0  0  0  0
    6.9911   -8.2423   27.1808 C   0  0  0  0  0  0  0  0  0  0  0  0
    3.8436   -7.2758   16.0578 C   0  0  0  0  0  0  0  0  0  0  0  0
    3.1882   -9.7190   17.2566 C   0  0  0  0  0  0  0  0  0  0  0  0
    5.3488   -6.1737   26.5092 C   0  0  0  0  0  0  0  0  0  0  0  0
    7.4567   -6.9464   27.2858 C   0  0  0  0  0  0  0  0  0  0  0  0
    0.1921   -5.7592   27.1123 C   0  0  0  0  0  0  0  0  0  0  0  0
    3.5517   -7.7407   25.9711 C   0  0  0  0  0  0  0  0  0  0  0  0
  1  4  4  0
  1 22  4  0
  2 20  4  0
  2 27  4  0
  3 12  4  0
  3 23  4  0
  4 25  4  0
  4 28  1  0
  5  8  4  0
  5 17  4  0
  6  7  4  0
  6 16  4  0
  7 18  4  0
  8 27  4  0
  9 13  4  0
  9 23  4  0
 10 11  1  0
 11 14  2  0
 11 27  1  0
 12 19  1  0
 12 24  4  0
 13 24  4  0
 15 18  1  0
 16 25  4  0
 16 26  4  0
 17 20  4  0
 17 28  1  0
 18 21  4  0
 21 26  4  0
 22 26  4  0
M  END
$$$$

 Created by Python create_sdf_string function

 28 30  0  0  0  0  0  0  0  0999 V2000
    5.7174   -8.4529   26.7190 C   0  0  0  0  0  0  0  0  0  0  0  0
    0.3974   -7.0711   27.5149 C   0  0  0  0  0  0  0  0  0  0  0  0
    2.5338   -7.6891   16.0102 C   0  0  0  0  0  0  0  0  0  0  0  0
    4.8690   -7.4380   26.4151 C   0  0  0  0  0  0  0  0  0  0  0  0
    2.3021   -5.6726   26.0378 C   0  0  0  0  0  0  0  0  0  0  0  0
    7.0880   -4.6163   27.0010 C   0  0  0  0  0  0  0  0  0  0  0  0
    8.3117   -4.3698   27.4436 C   0  0  0  0  0  0  0  0  0  0  0  0
    1.1339   -5.0515   26.3541 C   0  0  0  0  0  0  0  0  0  0  0  0
    4.8080   -8.0362   16.7101 C   0  0  0  0  0  0  0  0  0  0  0  0
   -1.2173   -3.9294   26.9717 O   0  0  0  0  0  0  0  0  0  0  0  0
   -1.0025   -5.0942   27.4586 C   0  0  0  0  0  0  0  0  0  0  0  0
    2.2474   -8.9123   16.6273 C   0  0  0  0  0  0  0  0  0  0  0  0
    4.4957   -9.2636   17.3041 C   0  0  0  0  0  0  0  0  0  0  0  0
   -1.8070   -5.6086   28.1920 O   0  0  0  0  0  0  0  0  0  0  0  0
   10.4296   -5.1799   28.3140 C   0  0  0  0  0  0  0  0  0  0  0  0
    6.6017   -5.9004   26.9187 C   0  0  0  0  0  0  0  0  0  0  0  0
    2.4761   -6.9940   26.4111 N   0  0  0  0  0  0  0  0  0  0  0  0
    9.1353   -5.4053   27.8239 C   0  0  0  0  0  0  0  0  0  0  0  0
    0.9922   -9.3232   16.5995 O   0  0  0  0  0  0  0  0  0  0  0  0
    1.5232   -7.6869   27.1182 C   0  0  0  0  0  0  0  0  0  0  0  0
    8.6878   -6.6715   27.7262 N   0  0  0  0  0  0  0  0  0  0  0  0
    6.9911   -8.2423   27.1808 C   0  0  0  0  0  0  0  0  0  0  0  0
    3.8436   -7.2758   16.0578 C   0  0  0  0  0  0  0  0  0  0  0  0
    3.1882   -9.7190   17.2566 C   0  0  0  0  0  0  0  0  0  0  0  0
    5.3488   -6.1737   26.5092 C   0  0  0  0  0  0  0  0  0  0  0  0
    7.4567   -6.9464   27.2858 C   0  0  0  0  0  0  0  0  0  0  0  0
    0.1921   -5.7592   27.1123 C   0  0  0  0  0  0  0  0  0  0  0  0
    3.5517   -7.7407   25.9711 C   0  0  0  0  0  0  0  0  0  0  0  0
  1  4  4  0
  1 22  4  0
  2 20  4  0
  2 27  4  0
  3 12  4  0
  3 23  4  0
  4 25  4  0
  4 28  1  0
  5  8  4  0
  5 17  4  0
  6  7  4  0
  6 16  4  0
  7 18  4  0
  8 27  4  0
  9 13  4  0
  9 23  4  0
 10 11  1  0
 11 14  2  0
 11 27  1  0
 12 19  1  0
 12 24  4  0
 13 24  4  0
 15 18  1  0
 16 25  4  0
 16 26  4  0
 17 20  4  0
 17 28  1  0
 18 21  4  0
 21 26  4  0
 22 26  4  0
M  END
$$$$

 Created by Python create_sdf_string function

 28 30  0  0  0  0  0  0  0  0999 V2000
    5.7174   -8.4529   26.7190 C   0  0  0  0  0  0  0  0  0  0  0  0
    0.3974   -7.0711   27.5149 C   0  0  0  0  0  0  0  0  0  0  0  0
    2.5338   -7.6891   16.0102 C   0  0  0  0  0  0  0  0  0  0  0  0
    4.8690   -7.4380   26.4151 C   0  0  0  0  0  0  0  0  0  0  0  0
    2.3021   -5.6726   26.0378 C   0  0  0  0  0  0  0  0  0  0  0  0
    7.0880   -4.6163   27.0010 C   0  0  0  0  0  0  0  0  0  0  0  0
    8.3117   -4.3698   27.4436 C   0  0  0  0  0  0  0  0  0  0  0  0
    1.1339   -5.0515   26.3541 C   0  0  0  0  0  0  0  0  0  0  0  0
    4.8080   -8.0362   16.7101 C   0  0  0  0  0  0  0  0  0  0  0  0
   -1.2173   -3.9294   26.9717 O   0  0  0  0  0  0  0  0  0  0  0  0
   -1.0025   -5.0942   27.4586 C   0  0  0  0  0  0  0  0  0  0  0  0
    2.2474   -8.9123   16.6273 C   0  0  0  0  0  0  0  0  0  0  0  0
    4.4957   -9.2636   17.3041 C   0  0  0  0  0  0  0  0  0  0  0  0
   -1.8070   -5.6086   28.1920 O   0  0  0  0  0  0  0  0  0  0  0  0
   10.4296   -5.1799   28.3140 C   0  0  0  0  0  0  0  0  0  0  0  0
    6.6017   -5.9004   26.9187 C   0  0  0  0  0  0  0  0  0  0  0  0
    2.4761   -6.9940   26.4111 N   0  0  0  0  0  0  0  0  0  0  0  0
    9.1353   -5.4053   27.8239 C   0  0  0  0  0  0  0  0  0  0  0  0
    0.9922   -9.3232   16.5995 O   0  0  0  0  0  0  0  0  0  0  0  0
    1.5232   -7.6869   27.1182 C   0  0  0  0  0  0  0  0  0  0  0  0
    8.6878   -6.6715   27.7262 N   0  0  0  0  0  0  0  0  0  0  0  0
    6.9911   -8.2423   27.1808 C   0  0  0  0  0  0  0  0  0  0  0  0
    3.8436   -7.2758   16.0578 C   0  0  0  0  0  0  0  0  0  0  0  0
    3.1882   -9.7190   17.2566 C   0  0  0  0  0  0  0  0  0  0  0  0
    5.3488   -6.1737   26.5092 C   0  0  0  0  0  0  0  0  0  0  0  0
    7.4567   -6.9464   27.2858 C   0  0  0  0  0  0  0  0  0  0  0  0
    0.1921   -5.7592   27.1123 C   0  0  0  0  0  0  0  0  0  0  0  0
    3.5517   -7.7407   25.9711 C   0  0  0  0  0  0  0  0  0  0  0  0
  1  4  4  0
  1 22  4  0
  2 20  4  0
  2 27  4  0
  3 12  4  0
  3 23  4  0
  4 25  4  0
  4 28  1  0
  5  8  4  0
  5 17  4  0
  6  7  4  0
  6 16  4  0
  7 18  4  0
  8 27  4  0
  9 13  4  0
  9 23  4  0
 10 11  1  0
 11 14  2  0
 11 27  1  0
 12 19  1  0
 12 24  4  0
 13 24  4  0
 15 18  1  0
 16 25  4  0
 16 26  4  0
 17 20  4  0
 17 28  1  0
 18 21  4  0
 21 26  4  0
 22 26  4  0
M  END
$$$$

 Created by Python create_sdf_string function

 28 30  0  0  0  0  0  0  0  0999 V2000
    5.7174   -8.4529   26.7190 C   0  0  0  0  0  0  0  0  0  0  0  0
    0.3974   -7.0711   27.5149 C   0  0  0  0  0  0  0  0  0  0  0  0
    2.5338   -7.6891   16.0102 C   0  0  0  0  0  0  0  0  0  0  0  0
    4.8690   -7.4380   26.4151 C   0  0  0  0  0  0  0  0  0  0  0  0
    2.3021   -5.6726   26.0378 C   0  0  0  0  0  0  0  0  0  0  0  0
    7.0880   -4.6163   27.0010 C   0  0  0  0  0  0  0  0  0  0  0  0
    8.3117   -4.3698   27.4436 C   0  0  0  0  0  0  0  0  0  0  0  0
    1.1339   -5.0515   26.3541 C   0  0  0  0  0  0  0  0  0  0  0  0
    4.8080   -8.0362   16.7101 C   0  0  0  0  0  0  0  0  0  0  0  0
   -1.2173   -3.9294   26.9717 O   0  0  0  0  0  0  0  0  0  0  0  0
   -1.0025   -5.0942   27.4586 C   0  0  0  0  0  0  0  0  0  0  0  0
    2.2474   -8.9123   16.6273 C   0  0  0  0  0  0  0  0  0  0  0  0
    4.4957   -9.2636   17.3041 C   0  0  0  0  0  0  0  0  0  0  0  0
   -1.8070   -5.6086   28.1920 O   0  0  0  0  0  0  0  0  0  0  0  0
   10.4296   -5.1799   28.3140 C   0  0  0  0  0  0  0  0  0  0  0  0
    6.6017   -5.9004   26.9187 C   0  0  0  0  0  0  0  0  0  0  0  0
    2.4761   -6.9940   26.4111 N   0  0  0  0  0  0  0  0  0  0  0  0
    9.1353   -5.4053   27.8239 C   0  0  0  0  0  0  0  0  0  0  0  0
    0.9922   -9.3232   16.5995 O   0  0  0  0  0  0  0  0  0  0  0  0
    1.5232   -7.6869   27.1182 C   0  0  0  0  0  0  0  0  0  0  0  0
    8.6878   -6.6715   27.7262 N   0  0  0  0  0  0  0  0  0  0  0  0
    6.9911   -8.2423   27.1808 C   0  0  0  0  0  0  0  0  0  0  0  0
    3.8436   -7.2758   16.0578 C   0  0  0  0  0  0  0  0  0  0  0  0
    3.1882   -9.7190   17.2566 C   0  0  0  0  0  0  0  0  0  0  0  0
    5.3488   -6.1737   26.5092 C   0  0  0  0  0  0  0  0  0  0  0  0
    7.4567   -6.9464   27.2858 C   0  0  0  0  0  0  0  0  0  0  0  0
    0.1921   -5.7592   27.1123 C   0  0  0  0  0  0  0  0  0  0  0  0
    3.5517   -7.7407   25.9711 C   0  0  0  0  0  0  0  0  0  0  0  0
  1  4  4  0
  1 22  4  0
  2 20  4  0
  2 27  4  0
  3 12  4  0
  3 23  4  0
  4 25  4  0
  4 28  1  0
  5  8  4  0
  5 17  4  0
  6  7  4  0
  6 16  4  0
  7 18  4  0
  8 27  4  0
  9 13  4  0
  9 23  4  0
 10 11  1  0
 11 14  2  0
 11 27  1  0
 12 19  1  0
 12 24  4  0
 13 24  4  0
 15 18  1  0
 16 25  4  0
 16 26  4  0
 17 20  4  0
 17 28  1  0
 18 21  4  0
 21 26  4  0
 22 26  4  0
M  END
$$$$

 Created by Python create_sdf_string function

 28 30  0  0  0  0  0  0  0  0999 V2000
    5.7174   -8.4529   26.7190 C   0  0  0  0  0  0  0  0  0  0  0  0
    0.3974   -7.0711   27.5149 C   0  0  0  0  0  0  0  0  0  0  0  0
    2.5338   -7.6891   16.0102 C   0  0  0  0  0  0  0  0  0  0  0  0
    4.8690   -7.4380   26.4151 C   0  0  0  0  0  0  0  0  0  0  0  0
    2.3021   -5.6726   26.0378 C   0  0  0  0  0  0  0  0  0  0  0  0
    7.0880   -4.6163   27.0010 C   0  0  0  0  0  0  0  0  0  0  0  0
    8.3117   -4.3698   27.4436 C   0  0  0  0  0  0  0  0  0  0  0  0
    1.1339   -5.0515   26.3541 C   0  0  0  0  0  0  0  0  0  0  0  0
    4.8080   -8.0362   16.7101 C   0  0  0  0  0  0  0  0  0  0  0  0
   -1.2173   -3.9294   26.9717 O   0  0  0  0  0  0  0  0  0  0  0  0
   -1.0025   -5.0942   27.4586 C   0  0  0  0  0  0  0  0  0  0  0  0
    2.2474   -8.9123   16.6273 C   0  0  0  0  0  0  0  0  0  0  0  0
    4.4957   -9.2636   17.3041 C   0  0  0  0  0  0  0  0  0  0  0  0
   -1.8070   -5.6086   28.1920 O   0  0  0  0  0  0  0  0  0  0  0  0
   10.4296   -5.1799   28.3140 C   0  0  0  0  0  0  0  0  0  0  0  0
    6.6017   -5.9004   26.9187 C   0  0  0  0  0  0  0  0  0  0  0  0
    2.4761   -6.9940   26.4111 N   0  0  0  0  0  0  0  0  0  0  0  0
    9.1353   -5.4053   27.8239 C   0  0  0  0  0  0  0  0  0  0  0  0
    0.9922   -9.3232   16.5995 O   0  0  0  0  0  0  0  0  0  0  0  0
    1.5232   -7.6869   27.1182 C   0  0  0  0  0  0  0  0  0  0  0  0
    8.6878   -6.6715   27.7262 N   0  0  0  0  0  0  0  0  0  0  0  0
    6.9911   -8.2423   27.1808 C   0  0  0  0  0  0  0  0  0  0  0  0
    3.8436   -7.2758   16.0578 C   0  0  0  0  0  0  0  0  0  0  0  0
    3.1882   -9.7190   17.2566 C   0  0  0  0  0  0  0  0  0  0  0  0
    5.3488   -6.1737   26.5092 C   0  0  0  0  0  0  0  0  0  0  0  0
    7.4567   -6.9464   27.2858 C   0  0  0  0  0  0  0  0  0  0  0  0
    0.1921   -5.7592   27.1123 C   0  0  0  0  0  0  0  0  0  0  0  0
    3.5517   -7.7407   25.9711 C   0  0  0  0  0  0  0  0  0  0  0  0
  1  4  4  0
  1 22  4  0
  2 20  4  0
  2 27  4  0
  3 12  4  0
  3 23  4  0
  4 25  4  0
  4 28  1  0
  5  8  4  0
  5 17  4  0
  6  7  4  0
  6 16  4  0
  7 18  4  0
  8 27  4  0
  9 13  4  0
  9 23  4  0
 10 11  1  0
 11 14  2  0
 11 27  1  0
 12 19  1  0
 12 24  4  0
 13 24  4  0
 15 18  1  0
 16 25  4  0
 16 26  4  0
 17 20  4  0
 17 28  1  0
 18 21  4  0
 21 26  4  0
 22 26  4  0
M  END
$$$$

 Created by Python create_sdf_string function

 28 30  0  0  0  0  0  0  0  0999 V2000
    5.7174   -8.4529   26.7190 C   0  0  0  0  0  0  0  0  0  0  0  0
    0.3974   -7.0711   27.5149 C   0  0  0  0  0  0  0  0  0  0  0  0
    2.5338   -7.6891   16.0102 C   0  0  0  0  0  0  0  0  0  0  0  0
    4.8690   -7.4380   26.4151 C   0  0  0  0  0  0  0  0  0  0  0  0
    2.3021   -5.6726   26.0378 C   0  0  0  0  0  0  0  0  0  0  0  0
    7.0880   -4.6163   27.0010 C   0  0  0  0  0  0  0  0  0  0  0  0
    8.3117   -4.3698   27.4436 C   0  0  0  0  0  0  0  0  0  0  0  0
    1.1339   -5.0515   26.3541 C   0  0  0  0  0  0  0  0  0  0  0  0
    4.8080   -8.0362   16.7101 C   0  0  0  0  0  0  0  0  0  0  0  0
   -1.2173   -3.9294   26.9717 O   0  0  0  0  0  0  0  0  0  0  0  0
   -1.0025   -5.0942   27.4586 C   0  0  0  0  0  0  0  0  0  0  0  0
    2.2474   -8.9123   16.6273 C   0  0  0  0  0  0  0  0  0  0  0  0
    4.4957   -9.2636   17.3041 C   0  0  0  0  0  0  0  0  0  0  0  0
   -1.8070   -5.6086   28.1920 O   0  0  0  0  0  0  0  0  0  0  0  0
   10.4296   -5.1799   28.3140 C   0  0  0  0  0  0  0  0  0  0  0  0
    6.6017   -5.9004   26.9187 C   0  0  0  0  0  0  0  0  0  0  0  0
    2.4761   -6.9940   26.4111 N   0  0  0  0  0  0  0  0  0  0  0  0
    9.1353   -5.4053   27.8239 C   0  0  0  0  0  0  0  0  0  0  0  0
    0.9922   -9.3232   16.5995 O   0  0  0  0  0  0  0  0  0  0  0  0
    1.5232   -7.6869   27.1182 C   0  0  0  0  0  0  0  0  0  0  0  0
    8.6878   -6.6715   27.7262 N   0  0  0  0  0  0  0  0  0  0  0  0
    6.9911   -8.2423   27.1808 C   0  0  0  0  0  0  0  0  0  0  0  0
    3.8436   -7.2758   16.0578 C   0  0  0  0  0  0  0  0  0  0  0  0
    3.1882   -9.7190   17.2566 C   0  0  0  0  0  0  0  0  0  0  0  0
    5.3488   -6.1737   26.5092 C   0  0  0  0  0  0  0  0  0  0  0  0
    7.4567   -6.9464   27.2858 C   0  0  0  0  0  0  0  0  0  0  0  0
    0.1921   -5.7592   27.1123 C   0  0  0  0  0  0  0  0  0  0  0  0
    3.5517   -7.7407   25.9711 C   0  0  0  0  0  0  0  0  0  0  0  0
  1  4  4  0
  1 22  4  0
  2 20  4  0
  2 27  4  0
  3 12  4  0
  3 23  4  0
  4 25  4  0
  4 28  1  0
  5  8  4  0
  5 17  4  0
  6  7  4  0
  6 16  4  0
  7 18  4  0
  8 27  4  0
  9 13  4  0
  9 23  4  0
 10 11  1  0
 11 14  2  0
 11 27  1  0
 12 19  1  0
 12 24  4  0
 13 24  4  0
 15 18  1  0
 16 25  4  0
 16 26  4  0
 17 20  4  0
 17 28  1  0
 18 21  4  0
 21 26  4  0
 22 26  4  0
M  END
$$$$

 Created by Python create_sdf_string function

 28 30  0  0  0  0  0  0  0  0999 V2000
    5.7174   -8.4529   26.7190 C   0  0  0  0  0  0  0  0  0  0  0  0
    0.3974   -7.0711   27.5149 C   0  0  0  0  0  0  0  0  0  0  0  0
    2.5338   -7.6891   16.0102 C   0  0  0  0  0  0  0  0  0  0  0  0
    4.8690   -7.4380   26.4151 C   0  0  0  0  0  0  0  0  0  0  0  0
    2.3021   -5.6726   26.0378 C   0  0  0  0  0  0  0  0  0  0  0  0
    7.0880   -4.6163   27.0010 C   0  0  0  0  0  0  0  0  0  0  0  0
    8.3117   -4.3698   27.4436 C   0  0  0  0  0  0  0  0  0  0  0  0
    1.1339   -5.0515   26.3541 C   0  0  0  0  0  0  0  0  0  0  0  0
    4.8080   -8.0362   16.7101 C   0  0  0  0  0  0  0  0  0  0  0  0
   -1.2173   -3.9294   26.9717 O   0  0  0  0  0  0  0  0  0  0  0  0
   -1.0025   -5.0942   27.4586 C   0  0  0  0  0  0  0  0  0  0  0  0
    2.2474   -8.9123   16.6273 C   0  0  0  0  0  0  0  0  0  0  0  0
    4.4957   -9.2636   17.3041 C   0  0  0  0  0  0  0  0  0  0  0  0
   -1.8070   -5.6086   28.1920 O   0  0  0  0  0  0  0  0  0  0  0  0
   10.4296   -5.1799   28.3140 C   0  0  0  0  0  0  0  0  0  0  0  0
    6.6017   -5.9004   26.9187 C   0  0  0  0  0  0  0  0  0  0  0  0
    2.4761   -6.9940   26.4111 N   0  0  0  0  0  0  0  0  0  0  0  0
    9.1353   -5.4053   27.8239 C   0  0  0  0  0  0  0  0  0  0  0  0
    0.9922   -9.3232   16.5995 O   0  0  0  0  0  0  0  0  0  0  0  0
    1.5232   -7.6869   27.1182 C   0  0  0  0  0  0  0  0  0  0  0  0
    8.6878   -6.6715   27.7262 N   0  0  0  0  0  0  0  0  0  0  0  0
    6.9911   -8.2423   27.1808 C   0  0  0  0  0  0  0  0  0  0  0  0
    3.8436   -7.2758   16.0578 C   0  0  0  0  0  0  0  0  0  0  0  0
    3.1882   -9.7190   17.2566 C   0  0  0  0  0  0  0  0  0  0  0  0
    5.3488   -6.1737   26.5092 C   0  0  0  0  0  0  0  0  0  0  0  0
    7.4567   -6.9464   27.2858 C   0  0  0  0  0  0  0  0  0  0  0  0
    0.1921   -5.7592   27.1123 C   0  0  0  0  0  0  0  0  0  0  0  0
    3.5517   -7.7407   25.9711 C   0  0  0  0  0  0  0  0  0  0  0  0
  1  4  4  0
  1 22  4  0
  2 20  4  0
  2 27  4  0
  3 12  4  0
  3 23  4  0
  4 25  4  0
  4 28  1  0
  5  8  4  0
  5 17  4  0
  6  7  4  0
  6 16  4  0
  7 18  4  0
  8 27  4  0
  9 13  4  0
  9 23  4  0
 10 11  1  0
 11 14  2  0
 11 27  1  0
 12 19  1  0
 12 24  4  0
 13 24  4  0
 15 18  1  0
 16 25  4  0
 16 26  4  0
 17 20  4  0
 17 28  1  0
 18 21  4  0
 21 26  4  0
 22 26  4  0
M  END
$$$$

 Created by Python create_sdf_string function

 28 30  0  0  0  0  0  0  0  0999 V2000
    5.7174   -8.4529   26.7190 C   0  0  0  0  0  0  0  0  0  0  0  0
    0.3974   -7.0711   27.5149 C   0  0  0  0  0  0  0  0  0  0  0  0
    2.5338   -7.6891   16.0102 C   0  0  0  0  0  0  0  0  0  0  0  0
    4.8690   -7.4380   26.4151 C   0  0  0  0  0  0  0  0  0  0  0  0
    2.3021   -5.6726   26.0378 C   0  0  0  0  0  0  0  0  0  0  0  0
    7.0880   -4.6163   27.0010 C   0  0  0  0  0  0  0  0  0  0  0  0
    8.3117   -4.3698   27.4436 C   0  0  0  0  0  0  0  0  0  0  0  0
    1.1339   -5.0515   26.3541 C   0  0  0  0  0  0  0  0  0  0  0  0
    4.8080   -8.0362   16.7101 C   0  0  0  0  0  0  0  0  0  0  0  0
   -1.2173   -3.9294   26.9717 O   0  0  0  0  0  0  0  0  0  0  0  0
   -1.0025   -5.0942   27.4586 C   0  0  0  0  0  0  0  0  0  0  0  0
    2.2474   -8.9123   16.6273 C   0  0  0  0  0  0  0  0  0  0  0  0
    4.4957   -9.2636   17.3041 C   0  0  0  0  0  0  0  0  0  0  0  0
   -1.8070   -5.6086   28.1920 O   0  0  0  0  0  0  0  0  0  0  0  0
   10.4296   -5.1799   28.3140 C   0  0  0  0  0  0  0  0  0  0  0  0
    6.6017   -5.9004   26.9187 C   0  0  0  0  0  0  0  0  0  0  0  0
    2.4761   -6.9940   26.4111 N   0  0  0  0  0  0  0  0  0  0  0  0
    9.1353   -5.4053   27.8239 C   0  0  0  0  0  0  0  0  0  0  0  0
    0.9922   -9.3232   16.5995 O   0  0  0  0  0  0  0  0  0  0  0  0
    1.5232   -7.6869   27.1182 C   0  0  0  0  0  0  0  0  0  0  0  0
    8.6878   -6.6715   27.7262 N   0  0  0  0  0  0  0  0  0  0  0  0
    6.9911   -8.2423   27.1808 C   0  0  0  0  0  0  0  0  0  0  0  0
    3.8436   -7.2758   16.0578 C   0  0  0  0  0  0  0  0  0  0  0  0
    3.1882   -9.7190   17.2566 C   0  0  0  0  0  0  0  0  0  0  0  0
    5.3488   -6.1737   26.5092 C   0  0  0  0  0  0  0  0  0  0  0  0
    7.4567   -6.9464   27.2858 C   0  0  0  0  0  0  0  0  0  0  0  0
    0.1921   -5.7592   27.1123 C   0  0  0  0  0  0  0  0  0  0  0  0
    3.5517   -7.7407   25.9711 C   0  0  0  0  0  0  0  0  0  0  0  0
  1  4  4  0
  1 22  4  0
  2 20  4  0
  2 27  4  0
  3 12  4  0
  3 23  4  0
  4 25  4  0
  4 28  1  0
  5  8  4  0
  5 17  4  0
  6  7  4  0
  6 16  4  0
  7 18  4  0
  8 27  4  0
  9 13  4  0
  9 23  4  0
 10 11  1  0
 11 14  2  0
 11 27  1  0
 12 19  1  0
 12 24  4  0
 13 24  4  0
 15 18  1  0
 16 25  4  0
 16 26  4  0
 17 20  4  0
 17 28  1  0
 18 21  4  0
 21 26  4  0
 22 26  4  0
M  END
$$$$

 Created by Python create_sdf_string function

 28 30  0  0  0  0  0  0  0  0999 V2000
    5.7174   -8.4529   26.7190 C   0  0  0  0  0  0  0  0  0  0  0  0
    0.3974   -7.0711   27.5149 C   0  0  0  0  0  0  0  0  0  0  0  0
    2.5338   -7.6891   16.0102 C   0  0  0  0  0  0  0  0  0  0  0  0
    4.8690   -7.4380   26.4151 C   0  0  0  0  0  0  0  0  0  0  0  0
    2.3021   -5.6726   26.0378 C   0  0  0  0  0  0  0  0  0  0  0  0
    7.0880   -4.6163   27.0010 C   0  0  0  0  0  0  0  0  0  0  0  0
    8.3117   -4.3698   27.4436 C   0  0  0  0  0  0  0  0  0  0  0  0
    1.1339   -5.0515   26.3541 C   0  0  0  0  0  0  0  0  0  0  0  0
    4.8080   -8.0362   16.7101 C   0  0  0  0  0  0  0  0  0  0  0  0
   -1.2173   -3.9294   26.9717 O   0  0  0  0  0  0  0  0  0  0  0  0
   -1.0025   -5.0942   27.4586 C   0  0  0  0  0  0  0  0  0  0  0  0
    2.2474   -8.9123   16.6273 C   0  0  0  0  0  0  0  0  0  0  0  0
    4.4957   -9.2636   17.3041 C   0  0  0  0  0  0  0  0  0  0  0  0
   -1.8070   -5.6086   28.1920 O   0  0  0  0  0  0  0  0  0  0  0  0
   10.4296   -5.1799   28.3140 C   0  0  0  0  0  0  0  0  0  0  0  0
    6.6017   -5.9004   26.9187 C   0  0  0  0  0  0  0  0  0  0  0  0
    2.4761   -6.9940   26.4111 N   0  0  0  0  0  0  0  0  0  0  0  0
    9.1353   -5.4053   27.8239 C   0  0  0  0  0  0  0  0  0  0  0  0
    0.9922   -9.3232   16.5995 O   0  0  0  0  0  0  0  0  0  0  0  0
    1.5232   -7.6869   27.1182 C   0  0  0  0  0  0  0  0  0  0  0  0
    8.6878   -6.6715   27.7262 N   0  0  0  0  0  0  0  0  0  0  0  0
    6.9911   -8.2423   27.1808 C   0  0  0  0  0  0  0  0  0  0  0  0
    3.8436   -7.2758   16.0578 C   0  0  0  0  0  0  0  0  0  0  0  0
    3.1882   -9.7190   17.2566 C   0  0  0  0  0  0  0  0  0  0  0  0
    5.3488   -6.1737   26.5092 C   0  0  0  0  0  0  0  0  0  0  0  0
    7.4567   -6.9464   27.2858 C   0  0  0  0  0  0  0  0  0  0  0  0
    0.1921   -5.7592   27.1123 C   0  0  0  0  0  0  0  0  0  0  0  0
    3.5517   -7.7407   25.9711 C   0  0  0  0  0  0  0  0  0  0  0  0
  1  4  4  0
  1 22  4  0
  2 20  4  0
  2 27  4  0
  3 12  4  0
  3 23  4  0
  4 25  4  0
  4 28  1  0
  5  8  4  0
  5 17  4  0
  6  7  4  0
  6 16  4  0
  7 18  4  0
  8 27  4  0
  9 13  4  0
  9 23  4  0
 10 11  1  0
 11 14  2  0
 11 27  1  0
 12 19  1  0
 12 24  4  0
 13 24  4  0
 15 18  1  0
 16 25  4  0
 16 26  4  0
 17 20  4  0
 17 28  1  0
 18 21  4  0
 21 26  4  0
 22 26  4  0
M  END
$$$$

 Created by Python create_sdf_string function

 28 30  0  0  0  0  0  0  0  0999 V2000
    5.7174   -8.4529   26.7190 C   0  0  0  0  0  0  0  0  0  0  0  0
    0.3974   -7.0711   27.5149 C   0  0  0  0  0  0  0  0  0  0  0  0
    2.5338   -7.6891   16.0102 C   0  0  0  0  0  0  0  0  0  0  0  0
    4.8690   -7.4380   26.4151 C   0  0  0  0  0  0  0  0  0  0  0  0
    2.3021   -5.6726   26.0378 C   0  0  0  0  0  0  0  0  0  0  0  0
    7.0880   -4.6163   27.0010 C   0  0  0  0  0  0  0  0  0  0  0  0
    8.3117   -4.3698   27.4436 C   0  0  0  0  0  0  0  0  0  0  0  0
    1.1339   -5.0515   26.3541 C   0  0  0  0  0  0  0  0  0  0  0  0
    4.8080   -8.0362   16.7101 C   0  0  0  0  0  0  0  0  0  0  0  0
   -1.2173   -3.9294   26.9717 O   0  0  0  0  0  0  0  0  0  0  0  0
   -1.0025   -5.0942   27.4586 C   0  0  0  0  0  0  0  0  0  0  0  0
    2.2474   -8.9123   16.6273 C   0  0  0  0  0  0  0  0  0  0  0  0
    4.4957   -9.2636   17.3041 C   0  0  0  0  0  0  0  0  0  0  0  0
   -1.8070   -5.6086   28.1920 O   0  0  0  0  0  0  0  0  0  0  0  0
   10.4296   -5.1799   28.3140 C   0  0  0  0  0  0  0  0  0  0  0  0
    6.6017   -5.9004   26.9187 C   0  0  0  0  0  0  0  0  0  0  0  0
    2.4761   -6.9940   26.4111 N   0  0  0  0  0  0  0  0  0  0  0  0
    9.1353   -5.4053   27.8239 C   0  0  0  0  0  0  0  0  0  0  0  0
    0.9922   -9.3232   16.5995 O   0  0  0  0  0  0  0  0  0  0  0  0
    1.5232   -7.6869   27.1182 C   0  0  0  0  0  0  0  0  0  0  0  0
    8.6878   -6.6715   27.7262 N   0  0  0  0  0  0  0  0  0  0  0  0
    6.9911   -8.2423   27.1808 C   0  0  0  0  0  0  0  0  0  0  0  0
    3.8436   -7.2758   16.0578 C   0  0  0  0  0  0  0  0  0  0  0  0
    3.1882   -9.7190   17.2566 C   0  0  0  0  0  0  0  0  0  0  0  0
    5.3488   -6.1737   26.5092 C   0  0  0  0  0  0  0  0  0  0  0  0
    7.4567   -6.9464   27.2858 C   0  0  0  0  0  0  0  0  0  0  0  0
    0.1921   -5.7592   27.1123 C   0  0  0  0  0  0  0  0  0  0  0  0
    3.5517   -7.7407   25.9711 C   0  0  0  0  0  0  0  0  0  0  0  0
  1  4  4  0
  1 22  4  0
  2 20  4  0
  2 27  4  0
  3 12  4  0
  3 23  4  0
  4 25  4  0
  4 28  1  0
  5  8  4  0
  5 17  4  0
  6  7  4  0
  6 16  4  0
  7 18  4  0
  8 27  4  0
  9 13  4  0
  9 23  4  0
 10 11  1  0
 11 14  2  0
 11 27  1  0
 12 19  1  0
 12 24  4  0
 13 24  4  0
 15 18  1  0
 16 25  4  0
 16 26  4  0
 17 20  4  0
 17 28  1  0
 18 21  4  0
 21 26  4  0
 22 26  4  0
M  END
$$$$

 Created by Python create_sdf_string function

 28 30  0  0  0  0  0  0  0  0999 V2000
    5.7174   -8.4529   26.7190 C   0  0  0  0  0  0  0  0  0  0  0  0
    0.3974   -7.0711   27.5149 C   0  0  0  0  0  0  0  0  0  0  0  0
    2.5338   -7.6891   16.0102 C   0  0  0  0  0  0  0  0  0  0  0  0
    4.8690   -7.4380   26.4151 C   0  0  0  0  0  0  0  0  0  0  0  0
    2.3021   -5.6726   26.0378 C   0  0  0  0  0  0  0  0  0  0  0  0
    7.0880   -4.6163   27.0010 C   0  0  0  0  0  0  0  0  0  0  0  0
    8.3117   -4.3698   27.4436 C   0  0  0  0  0  0  0  0  0  0  0  0
    1.1339   -5.0515   26.3541 C   0  0  0  0  0  0  0  0  0  0  0  0
    4.8080   -8.0362   16.7101 C   0  0  0  0  0  0  0  0  0  0  0  0
   -1.2173   -3.9294   26.9717 O   0  0  0  0  0  0  0  0  0  0  0  0
   -1.0025   -5.0942   27.4586 C   0  0  0  0  0  0  0  0  0  0  0  0
    2.2474   -8.9123   16.6273 C   0  0  0  0  0  0  0  0  0  0  0  0
    4.4957   -9.2636   17.3041 C   0  0  0  0  0  0  0  0  0  0  0  0
   -1.8070   -5.6086   28.1920 O   0  0  0  0  0  0  0  0  0  0  0  0
   10.4296   -5.1799   28.3140 C   0  0  0  0  0  0  0  0  0  0  0  0
    6.6017   -5.9004   26.9187 C   0  0  0  0  0  0  0  0  0  0  0  0
    2.4761   -6.9940   26.4111 N   0  0  0  0  0  0  0  0  0  0  0  0
    9.1353   -5.4053   27.8239 C   0  0  0  0  0  0  0  0  0  0  0  0
    0.9922   -9.3232   16.5995 O   0  0  0  0  0  0  0  0  0  0  0  0
    1.5232   -7.6869   27.1182 C   0  0  0  0  0  0  0  0  0  0  0  0
    8.6878   -6.6715   27.7262 N   0  0  0  0  0  0  0  0  0  0  0  0
    6.9911   -8.2423   27.1808 C   0  0  0  0  0  0  0  0  0  0  0  0
    3.8436   -7.2758   16.0578 C   0  0  0  0  0  0  0  0  0  0  0  0
    3.1882   -9.7190   17.2566 C   0  0  0  0  0  0  0  0  0  0  0  0
    5.3488   -6.1737   26.5092 C   0  0  0  0  0  0  0  0  0  0  0  0
    7.4567   -6.9464   27.2858 C   0  0  0  0  0  0  0  0  0  0  0  0
    0.1921   -5.7592   27.1123 C   0  0  0  0  0  0  0  0  0  0  0  0
    3.5517   -7.7407   25.9711 C   0  0  0  0  0  0  0  0  0  0  0  0
  1  4  4  0
  1 22  4  0
  2 20  4  0
  2 27  4  0
  3 12  4  0
  3 23  4  0
  4 25  4  0
  4 28  1  0
  5  8  4  0
  5 17  4  0
  6  7  4  0
  6 16  4  0
  7 18  4  0
  8 27  4  0
  9 13  4  0
  9 23  4  0
 10 11  1  0
 11 14  2  0
 11 27  1  0
 12 19  1  0
 12 24  4  0
 13 24  4  0
 15 18  1  0
 16 25  4  0
 16 26  4  0
 17 20  4  0
 17 28  1  0
 18 21  4  0
 21 26  4  0
 22 26  4  0
M  END
$$$$

 Created by Python create_sdf_string function

 28 30  0  0  0  0  0  0  0  0999 V2000
    5.7174   -8.4529   26.7190 C   0  0  0  0  0  0  0  0  0  0  0  0
    0.3974   -7.0711   27.5149 C   0  0  0  0  0  0  0  0  0  0  0  0
    2.5338   -7.6891   16.0102 C   0  0  0  0  0  0  0  0  0  0  0  0
    4.8690   -7.4380   26.4151 C   0  0  0  0  0  0  0  0  0  0  0  0
    2.3021   -5.6726   26.0378 C   0  0  0  0  0  0  0  0  0  0  0  0
    7.0880   -4.6163   27.0010 C   0  0  0  0  0  0  0  0  0  0  0  0
    8.3117   -4.3698   27.4436 C   0  0  0  0  0  0  0  0  0  0  0  0
    1.1339   -5.0515   26.3541 C   0  0  0  0  0  0  0  0  0  0  0  0
    4.8080   -8.0362   16.7101 C   0  0  0  0  0  0  0  0  0  0  0  0
   -1.2173   -3.9294   26.9717 O   0  0  0  0  0  0  0  0  0  0  0  0
   -1.0025   -5.0942   27.4586 C   0  0  0  0  0  0  0  0  0  0  0  0
    2.2474   -8.9123   16.6273 C   0  0  0  0  0  0  0  0  0  0  0  0
    4.4957   -9.2636   17.3041 C   0  0  0  0  0  0  0  0  0  0  0  0
   -1.8070   -5.6086   28.1920 O   0  0  0  0  0  0  0  0  0  0  0  0
   10.4296   -5.1799   28.3140 C   0  0  0  0  0  0  0  0  0  0  0  0
    6.6017   -5.9004   26.9187 C   0  0  0  0  0  0  0  0  0  0  0  0
    2.4761   -6.9940   26.4111 N   0  0  0  0  0  0  0  0  0  0  0  0
    9.1353   -5.4053   27.8239 C   0  0  0  0  0  0  0  0  0  0  0  0
    0.9922   -9.3232   16.5995 O   0  0  0  0  0  0  0  0  0  0  0  0
    1.5232   -7.6869   27.1182 C   0  0  0  0  0  0  0  0  0  0  0  0
    8.6878   -6.6715   27.7262 N   0  0  0  0  0  0  0  0  0  0  0  0
    6.9911   -8.2423   27.1808 C   0  0  0  0  0  0  0  0  0  0  0  0
    3.8436   -7.2758   16.0578 C   0  0  0  0  0  0  0  0  0  0  0  0
    3.1882   -9.7190   17.2566 C   0  0  0  0  0  0  0  0  0  0  0  0
    5.3488   -6.1737   26.5092 C   0  0  0  0  0  0  0  0  0  0  0  0
    7.4567   -6.9464   27.2858 C   0  0  0  0  0  0  0  0  0  0  0  0
    0.1921   -5.7592   27.1123 C   0  0  0  0  0  0  0  0  0  0  0  0
    3.5517   -7.7407   25.9711 C   0  0  0  0  0  0  0  0  0  0  0  0
  1  4  4  0
  1 22  4  0
  2 20  4  0
  2 27  4  0
  3 12  4  0
  3 23  4  0
  4 25  4  0
  4 28  1  0
  5  8  4  0
  5 17  4  0
  6  7  4  0
  6 16  4  0
  7 18  4  0
  8 27  4  0
  9 13  4  0
  9 23  4  0
 10 11  1  0
 11 14  2  0
 11 27  1  0
 12 19  1  0
 12 24  4  0
 13 24  4  0
 15 18  1  0
 16 25  4  0
 16 26  4  0
 17 20  4  0
 17 28  1  0
 18 21  4  0
 21 26  4  0
 22 26  4  0
M  END
$$$$

 Created by Python create_sdf_string function

 28 30  0  0  0  0  0  0  0  0999 V2000
    5.7174   -8.4529   26.7190 C   0  0  0  0  0  0  0  0  0  0  0  0
    0.3974   -7.0711   27.5149 C   0  0  0  0  0  0  0  0  0  0  0  0
    2.5338   -7.6891   16.0102 C   0  0  0  0  0  0  0  0  0  0  0  0
    4.8690   -7.4380   26.4151 C   0  0  0  0  0  0  0  0  0  0  0  0
    2.3021   -5.6726   26.0378 C   0  0  0  0  0  0  0  0  0  0  0  0
    7.0880   -4.6163   27.0010 C   0  0  0  0  0  0  0  0  0  0  0  0
    8.3117   -4.3698   27.4436 C   0  0  0  0  0  0  0  0  0  0  0  0
    1.1339   -5.0515   26.3541 C   0  0  0  0  0  0  0  0  0  0  0  0
    4.8080   -8.0362   16.7101 C   0  0  0  0  0  0  0  0  0  0  0  0
   -1.2173   -3.9294   26.9717 O   0  0  0  0  0  0  0  0  0  0  0  0
   -1.0025   -5.0942   27.4586 C   0  0  0  0  0  0  0  0  0  0  0  0
    2.2474   -8.9123   16.6273 C   0  0  0  0  0  0  0  0  0  0  0  0
    4.4957   -9.2636   17.3041 C   0  0  0  0  0  0  0  0  0  0  0  0
   -1.8070   -5.6086   28.1920 O   0  0  0  0  0  0  0  0  0  0  0  0
   10.4296   -5.1799   28.3140 C   0  0  0  0  0  0  0  0  0  0  0  0
    6.6017   -5.9004   26.9187 C   0  0  0  0  0  0  0  0  0  0  0  0
    2.4761   -6.9940   26.4111 N   0  0  0  0  0  0  0  0  0  0  0  0
    9.1353   -5.4053   27.8239 C   0  0  0  0  0  0  0  0  0  0  0  0
    0.9922   -9.3232   16.5995 O   0  0  0  0  0  0  0  0  0  0  0  0
    1.5232   -7.6869   27.1182 C   0  0  0  0  0  0  0  0  0  0  0  0
    8.6878   -6.6715   27.7262 N   0  0  0  0  0  0  0  0  0  0  0  0
    6.9911   -8.2423   27.1808 C   0  0  0  0  0  0  0  0  0  0  0  0
    3.8436   -7.2758   16.0578 C   0  0  0  0  0  0  0  0  0  0  0  0
    3.1882   -9.7190   17.2566 C   0  0  0  0  0  0  0  0  0  0  0  0
    5.3488   -6.1737   26.5092 C   0  0  0  0  0  0  0  0  0  0  0  0
    7.4567   -6.9464   27.2858 C   0  0  0  0  0  0  0  0  0  0  0  0
    0.1921   -5.7592   27.1123 C   0  0  0  0  0  0  0  0  0  0  0  0
    3.5517   -7.7407   25.9711 C   0  0  0  0  0  0  0  0  0  0  0  0
  1  4  4  0
  1 22  4  0
  2 20  4  0
  2 27  4  0
  3 12  4  0
  3 23  4  0
  4 25  4  0
  4 28  1  0
  5  8  4  0
  5 17  4  0
  6  7  4  0
  6 16  4  0
  7 18  4  0
  8 27  4  0
  9 13  4  0
  9 23  4  0
 10 11  1  0
 11 14  2  0
 11 27  1  0
 12 19  1  0
 12 24  4  0
 13 24  4  0
 15 18  1  0
 16 25  4  0
 16 26  4  0
 17 20  4  0
 17 28  1  0
 18 21  4  0
 21 26  4  0
 22 26  4  0
M  END
$$$$

 Created by Python create_sdf_string function

 28 30  0  0  0  0  0  0  0  0999 V2000
    5.7174   -8.4529   26.7190 C   0  0  0  0  0  0  0  0  0  0  0  0
    0.3974   -7.0711   27.5149 C   0  0  0  0  0  0  0  0  0  0  0  0
    2.5338   -7.6891   16.0102 C   0  0  0  0  0  0  0  0  0  0  0  0
    4.8690   -7.4380   26.4151 C   0  0  0  0  0  0  0  0  0  0  0  0
    2.3021   -5.6726   26.0378 C   0  0  0  0  0  0  0  0  0  0  0  0
    7.0880   -4.6163   27.0010 C   0  0  0  0  0  0  0  0  0  0  0  0
    8.3117   -4.3698   27.4436 C   0  0  0  0  0  0  0  0  0  0  0  0
    1.1339   -5.0515   26.3541 C   0  0  0  0  0  0  0  0  0  0  0  0
    4.8080   -8.0362   16.7101 C   0  0  0  0  0  0  0  0  0  0  0  0
   -1.2173   -3.9294   26.9717 O   0  0  0  0  0  0  0  0  0  0  0  0
   -1.0025   -5.0942   27.4586 C   0  0  0  0  0  0  0  0  0  0  0  0
    2.2474   -8.9123   16.6273 C   0  0  0  0  0  0  0  0  0  0  0  0
    4.4957   -9.2636   17.3041 C   0  0  0  0  0  0  0  0  0  0  0  0
   -1.8070   -5.6086   28.1920 O   0  0  0  0  0  0  0  0  0  0  0  0
   10.4296   -5.1799   28.3140 C   0  0  0  0  0  0  0  0  0  0  0  0
    6.6017   -5.9004   26.9187 C   0  0  0  0  0  0  0  0  0  0  0  0
    2.4761   -6.9940   26.4111 N   0  0  0  0  0  0  0  0  0  0  0  0
    9.1353   -5.4053   27.8239 C   0  0  0  0  0  0  0  0  0  0  0  0
    0.9922   -9.3232   16.5995 O   0  0  0  0  0  0  0  0  0  0  0  0
    1.5232   -7.6869   27.1182 C   0  0  0  0  0  0  0  0  0  0  0  0
    8.6878   -6.6715   27.7262 N   0  0  0  0  0  0  0  0  0  0  0  0
    6.9911   -8.2423   27.1808 C   0  0  0  0  0  0  0  0  0  0  0  0
    3.8436   -7.2758   16.0578 C   0  0  0  0  0  0  0  0  0  0  0  0
    3.1882   -9.7190   17.2566 C   0  0  0  0  0  0  0  0  0  0  0  0
    5.3488   -6.1737   26.5092 C   0  0  0  0  0  0  0  0  0  0  0  0
    7.4567   -6.9464   27.2858 C   0  0  0  0  0  0  0  0  0  0  0  0
    0.1921   -5.7592   27.1123 C   0  0  0  0  0  0  0  0  0  0  0  0
    3.5517   -7.7407   25.9711 C   0  0  0  0  0  0  0  0  0  0  0  0
  1  4  4  0
  1 22  4  0
  2 20  4  0
  2 27  4  0
  3 12  4  0
  3 23  4  0
  4 25  4  0
  4 28  1  0
  5  8  4  0
  5 17  4  0
  6  7  4  0
  6 16  4  0
  7 18  4  0
  8 27  4  0
  9 13  4  0
  9 23  4  0
 10 11  1  0
 11 14  2  0
 11 27  1  0
 12 19  1  0
 12 24  4  0
 13 24  4  0
 15 18  1  0
 16 25  4  0
 16 26  4  0
 17 20  4  0
 17 28  1  0
 18 21  4  0
 21 26  4  0
 22 26  4  0
M  END
$$$$

 Created by Python create_sdf_string function

 28 30  0  0  0  0  0  0  0  0999 V2000
    5.7174   -8.4529   26.7190 C   0  0  0  0  0  0  0  0  0  0  0  0
    0.3974   -7.0711   27.5149 C   0  0  0  0  0  0  0  0  0  0  0  0
    2.5338   -7.6891   16.0102 C   0  0  0  0  0  0  0  0  0  0  0  0
    4.8690   -7.4380   26.4151 C   0  0  0  0  0  0  0  0  0  0  0  0
    2.3021   -5.6726   26.0378 C   0  0  0  0  0  0  0  0  0  0  0  0
    7.0880   -4.6163   27.0010 C   0  0  0  0  0  0  0  0  0  0  0  0
    8.3117   -4.3698   27.4436 C   0  0  0  0  0  0  0  0  0  0  0  0
    1.1339   -5.0515   26.3541 C   0  0  0  0  0  0  0  0  0  0  0  0
    4.8080   -8.0362   16.7101 C   0  0  0  0  0  0  0  0  0  0  0  0
   -1.2173   -3.9294   26.9717 O   0  0  0  0  0  0  0  0  0  0  0  0
   -1.0025   -5.0942   27.4586 C   0  0  0  0  0  0  0  0  0  0  0  0
    2.2474   -8.9123   16.6273 C   0  0  0  0  0  0  0  0  0  0  0  0
    4.4957   -9.2636   17.3041 C   0  0  0  0  0  0  0  0  0  0  0  0
   -1.8070   -5.6086   28.1920 O   0  0  0  0  0  0  0  0  0  0  0  0
   10.4296   -5.1799   28.3140 C   0  0  0  0  0  0  0  0  0  0  0  0
    6.6017   -5.9004   26.9187 C   0  0  0  0  0  0  0  0  0  0  0  0
    2.4761   -6.9940   26.4111 N   0  0  0  0  0  0  0  0  0  0  0  0
    9.1353   -5.4053   27.8239 C   0  0  0  0  0  0  0  0  0  0  0  0
    0.9922   -9.3232   16.5995 O   0  0  0  0  0  0  0  0  0  0  0  0
    1.5232   -7.6869   27.1182 C   0  0  0  0  0  0  0  0  0  0  0  0
    8.6878   -6.6715   27.7262 N   0  0  0  0  0  0  0  0  0  0  0  0
    6.9911   -8.2423   27.1808 C   0  0  0  0  0  0  0  0  0  0  0  0
    3.8436   -7.2758   16.0578 C   0  0  0  0  0  0  0  0  0  0  0  0
    3.1882   -9.7190   17.2566 C   0  0  0  0  0  0  0  0  0  0  0  0
    5.3488   -6.1737   26.5092 C   0  0  0  0  0  0  0  0  0  0  0  0
    7.4567   -6.9464   27.2858 C   0  0  0  0  0  0  0  0  0  0  0  0
    0.1921   -5.7592   27.1123 C   0  0  0  0  0  0  0  0  0  0  0  0
    3.5517   -7.7407   25.9711 C   0  0  0  0  0  0  0  0  0  0  0  0
  1  4  4  0
  1 22  4  0
  2 20  4  0
  2 27  4  0
  3 12  4  0
  3 23  4  0
  4 25  4  0
  4 28  1  0
  5  8  4  0
  5 17  4  0
  6  7  4  0
  6 16  4  0
  7 18  4  0
  8 27  4  0
  9 13  4  0
  9 23  4  0
 10 11  1  0
 11 14  2  0
 11 27  1  0
 12 19  1  0
 12 24  4  0
 13 24  4  0
 15 18  1  0
 16 25  4  0
 16 26  4  0
 17 20  4  0
 17 28  1  0
 18 21  4  0
 21 26  4  0
 22 26  4  0
M  END
$$$$

 Created by Python create_sdf_string function

 28 30  0  0  0  0  0  0  0  0999 V2000
    5.7174   -8.4529   26.7190 C   0  0  0  0  0  0  0  0  0  0  0  0
    0.3974   -7.0711   27.5149 C   0  0  0  0  0  0  0  0  0  0  0  0
    2.5338   -7.6891   16.0102 C   0  0  0  0  0  0  0  0  0  0  0  0
    4.8690   -7.4380   26.4151 C   0  0  0  0  0  0  0  0  0  0  0  0
    2.3021   -5.6726   26.0378 C   0  0  0  0  0  0  0  0  0  0  0  0
    7.0880   -4.6163   27.0010 C   0  0  0  0  0  0  0  0  0  0  0  0
    8.3117   -4.3698   27.4436 C   0  0  0  0  0  0  0  0  0  0  0  0
    1.1339   -5.0515   26.3541 C   0  0  0  0  0  0  0  0  0  0  0  0
    4.8080   -8.0362   16.7101 C   0  0  0  0  0  0  0  0  0  0  0  0
   -1.2173   -3.9294   26.9717 O   0  0  0  0  0  0  0  0  0  0  0  0
   -1.0025   -5.0942   27.4586 C   0  0  0  0  0  0  0  0  0  0  0  0
    2.2474   -8.9123   16.6273 C   0  0  0  0  0  0  0  0  0  0  0  0
    4.4957   -9.2636   17.3041 C   0  0  0  0  0  0  0  0  0  0  0  0
   -1.8070   -5.6086   28.1920 O   0  0  0  0  0  0  0  0  0  0  0  0
   10.4296   -5.1799   28.3140 C   0  0  0  0  0  0  0  0  0  0  0  0
    6.6017   -5.9004   26.9187 C   0  0  0  0  0  0  0  0  0  0  0  0
    2.4761   -6.9940   26.4111 N   0  0  0  0  0  0  0  0  0  0  0  0
    9.1353   -5.4053   27.8239 C   0  0  0  0  0  0  0  0  0  0  0  0
    0.9922   -9.3232   16.5995 O   0  0  0  0  0  0  0  0  0  0  0  0
    1.5232   -7.6869   27.1182 C   0  0  0  0  0  0  0  0  0  0  0  0
    8.6878   -6.6715   27.7262 N   0  0  0  0  0  0  0  0  0  0  0  0
    6.9911   -8.2423   27.1808 C   0  0  0  0  0  0  0  0  0  0  0  0
    3.8436   -7.2758   16.0578 C   0  0  0  0  0  0  0  0  0  0  0  0
    3.1882   -9.7190   17.2566 C   0  0  0  0  0  0  0  0  0  0  0  0
    5.3488   -6.1737   26.5092 C   0  0  0  0  0  0  0  0  0  0  0  0
    7.4567   -6.9464   27.2858 C   0  0  0  0  0  0  0  0  0  0  0  0
    0.1921   -5.7592   27.1123 C   0  0  0  0  0  0  0  0  0  0  0  0
    3.5517   -7.7407   25.9711 C   0  0  0  0  0  0  0  0  0  0  0  0
  1  4  4  0
  1 22  4  0
  2 20  4  0
  2 27  4  0
  3 12  4  0
  3 23  4  0
  4 25  4  0
  4 28  1  0
  5  8  4  0
  5 17  4  0
  6  7  4  0
  6 16  4  0
  7 18  4  0
  8 27  4  0
  9 13  4  0
  9 23  4  0
 10 11  1  0
 11 14  2  0
 11 27  1  0
 12 19  1  0
 12 24  4  0
 13 24  4  0
 15 18  1  0
 16 25  4  0
 16 26  4  0
 17 20  4  0
 17 28  1  0
 18 21  4  0
 21 26  4  0
 22 26  4  0
M  END
$$$$

 Created by Python create_sdf_string function

 28 30  0  0  0  0  0  0  0  0999 V2000
    5.7174   -8.4529   26.7190 C   0  0  0  0  0  0  0  0  0  0  0  0
    0.3974   -7.0711   27.5149 C   0  0  0  0  0  0  0  0  0  0  0  0
    2.5338   -7.6891   16.0102 C   0  0  0  0  0  0  0  0  0  0  0  0
    4.8690   -7.4380   26.4151 C   0  0  0  0  0  0  0  0  0  0  0  0
    2.3021   -5.6726   26.0378 C   0  0  0  0  0  0  0  0  0  0  0  0
    7.0880   -4.6163   27.0010 C   0  0  0  0  0  0  0  0  0  0  0  0
    8.3117   -4.3698   27.4436 C   0  0  0  0  0  0  0  0  0  0  0  0
    1.1339   -5.0515   26.3541 C   0  0  0  0  0  0  0  0  0  0  0  0
    4.8080   -8.0362   16.7101 C   0  0  0  0  0  0  0  0  0  0  0  0
   -1.2173   -3.9294   26.9717 O   0  0  0  0  0  0  0  0  0  0  0  0
   -1.0025   -5.0942   27.4586 C   0  0  0  0  0  0  0  0  0  0  0  0
    2.2474   -8.9123   16.6273 C   0  0  0  0  0  0  0  0  0  0  0  0
    4.4957   -9.2636   17.3041 C   0  0  0  0  0  0  0  0  0  0  0  0
   -1.8070   -5.6086   28.1920 O   0  0  0  0  0  0  0  0  0  0  0  0
   10.4296   -5.1799   28.3140 C   0  0  0  0  0  0  0  0  0  0  0  0
    6.6017   -5.9004   26.9187 C   0  0  0  0  0  0  0  0  0  0  0  0
    2.4761   -6.9940   26.4111 N   0  0  0  0  0  0  0  0  0  0  0  0
    9.1353   -5.4053   27.8239 C   0  0  0  0  0  0  0  0  0  0  0  0
    0.9922   -9.3232   16.5995 O   0  0  0  0  0  0  0  0  0  0  0  0
    1.5232   -7.6869   27.1182 C   0  0  0  0  0  0  0  0  0  0  0  0
    8.6878   -6.6715   27.7262 N   0  0  0  0  0  0  0  0  0  0  0  0
    6.9911   -8.2423   27.1808 C   0  0  0  0  0  0  0  0  0  0  0  0
    3.8436   -7.2758   16.0578 C   0  0  0  0  0  0  0  0  0  0  0  0
    3.1882   -9.7190   17.2566 C   0  0  0  0  0  0  0  0  0  0  0  0
    5.3488   -6.1737   26.5092 C   0  0  0  0  0  0  0  0  0  0  0  0
    7.4567   -6.9464   27.2858 C   0  0  0  0  0  0  0  0  0  0  0  0
    0.1921   -5.7592   27.1123 C   0  0  0  0  0  0  0  0  0  0  0  0
    3.5517   -7.7407   25.9711 C   0  0  0  0  0  0  0  0  0  0  0  0
  1  4  4  0
  1 22  4  0
  2 20  4  0
  2 27  4  0
  3 12  4  0
  3 23  4  0
  4 25  4  0
  4 28  1  0
  5  8  4  0
  5 17  4  0
  6  7  4  0
  6 16  4  0
  7 18  4  0
  8 27  4  0
  9 13  4  0
  9 23  4  0
 10 11  1  0
 11 14  2  0
 11 27  1  0
 12 19  1  0
 12 24  4  0
 13 24  4  0
 15 18  1  0
 16 25  4  0
 16 26  4  0
 17 20  4  0
 17 28  1  0
 18 21  4  0
 21 26  4  0
 22 26  4  0
M  END
$$$$

 Created by Python create_sdf_string function

 28 30  0  0  0  0  0  0  0  0999 V2000
    5.7174   -8.4529   26.7190 C   0  0  0  0  0  0  0  0  0  0  0  0
    0.3974   -7.0711   27.5149 C   0  0  0  0  0  0  0  0  0  0  0  0
    2.5338   -7.6891   16.0102 C   0  0  0  0  0  0  0  0  0  0  0  0
    4.8690   -7.4380   26.4151 C   0  0  0  0  0  0  0  0  0  0  0  0
    2.3021   -5.6726   26.0378 C   0  0  0  0  0  0  0  0  0  0  0  0
    7.0880   -4.6163   27.0010 C   0  0  0  0  0  0  0  0  0  0  0  0
    8.3117   -4.3698   27.4436 C   0  0  0  0  0  0  0  0  0  0  0  0
    1.1339   -5.0515   26.3541 C   0  0  0  0  0  0  0  0  0  0  0  0
    4.8080   -8.0362   16.7101 C   0  0  0  0  0  0  0  0  0  0  0  0
   -1.2173   -3.9294   26.9717 O   0  0  0  0  0  0  0  0  0  0  0  0
   -1.0025   -5.0942   27.4586 C   0  0  0  0  0  0  0  0  0  0  0  0
    2.2474   -8.9123   16.6273 C   0  0  0  0  0  0  0  0  0  0  0  0
    4.4957   -9.2636   17.3041 C   0  0  0  0  0  0  0  0  0  0  0  0
   -1.8070   -5.6086   28.1920 O   0  0  0  0  0  0  0  0  0  0  0  0
   10.4296   -5.1799   28.3140 C   0  0  0  0  0  0  0  0  0  0  0  0
    6.6017   -5.9004   26.9187 C   0  0  0  0  0  0  0  0  0  0  0  0
    2.4761   -6.9940   26.4111 N   0  0  0  0  0  0  0  0  0  0  0  0
    9.1353   -5.4053   27.8239 C   0  0  0  0  0  0  0  0  0  0  0  0
    0.9922   -9.3232   16.5995 O   0  0  0  0  0  0  0  0  0  0  0  0
    1.5232   -7.6869   27.1182 C   0  0  0  0  0  0  0  0  0  0  0  0
    8.6878   -6.6715   27.7262 N   0  0  0  0  0  0  0  0  0  0  0  0
    6.9911   -8.2423   27.1808 C   0  0  0  0  0  0  0  0  0  0  0  0
    3.8436   -7.2758   16.0578 C   0  0  0  0  0  0  0  0  0  0  0  0
    3.1882   -9.7190   17.2566 C   0  0  0  0  0  0  0  0  0  0  0  0
    5.3488   -6.1737   26.5092 C   0  0  0  0  0  0  0  0  0  0  0  0
    7.4567   -6.9464   27.2858 C   0  0  0  0  0  0  0  0  0  0  0  0
    0.1921   -5.7592   27.1123 C   0  0  0  0  0  0  0  0  0  0  0  0
    3.5517   -7.7407   25.9711 C   0  0  0  0  0  0  0  0  0  0  0  0
  1  4  4  0
  1 22  4  0
  2 20  4  0
  2 27  4  0
  3 12  4  0
  3 23  4  0
  4 25  4  0
  4 28  1  0
  5  8  4  0
  5 17  4  0
  6  7  4  0
  6 16  4  0
  7 18  4  0
  8 27  4  0
  9 13  4  0
  9 23  4  0
 10 11  1  0
 11 14  2  0
 11 27  1  0
 12 19  1  0
 12 24  4  0
 13 24  4  0
 15 18  1  0
 16 25  4  0
 16 26  4  0
 17 20  4  0
 17 28  1  0
 18 21  4  0
 21 26  4  0
 22 26  4  0
M  END
$$$$

 Created by Python create_sdf_string function

 28 30  0  0  0  0  0  0  0  0999 V2000
    5.7174   -8.4529   26.7190 C   0  0  0  0  0  0  0  0  0  0  0  0
    0.3974   -7.0711   27.5149 C   0  0  0  0  0  0  0  0  0  0  0  0
    2.5338   -7.6891   16.0102 C   0  0  0  0  0  0  0  0  0  0  0  0
    4.8690   -7.4380   26.4151 C   0  0  0  0  0  0  0  0  0  0  0  0
    2.3021   -5.6726   26.0378 C   0  0  0  0  0  0  0  0  0  0  0  0
    7.0880   -4.6163   27.0010 C   0  0  0  0  0  0  0  0  0  0  0  0
    8.3117   -4.3698   27.4436 C   0  0  0  0  0  0  0  0  0  0  0  0
    1.1339   -5.0515   26.3541 C   0  0  0  0  0  0  0  0  0  0  0  0
    4.8080   -8.0362   16.7101 C   0  0  0  0  0  0  0  0  0  0  0  0
   -1.2173   -3.9294   26.9717 O   0  0  0  0  0  0  0  0  0  0  0  0
   -1.0025   -5.0942   27.4586 C   0  0  0  0  0  0  0  0  0  0  0  0
    2.2474   -8.9123   16.6273 C   0  0  0  0  0  0  0  0  0  0  0  0
    4.4957   -9.2636   17.3041 C   0  0  0  0  0  0  0  0  0  0  0  0
   -1.8070   -5.6086   28.1920 O   0  0  0  0  0  0  0  0  0  0  0  0
   10.4296   -5.1799   28.3140 C   0  0  0  0  0  0  0  0  0  0  0  0
    6.6017   -5.9004   26.9187 C   0  0  0  0  0  0  0  0  0  0  0  0
    2.4761   -6.9940   26.4111 N   0  0  0  0  0  0  0  0  0  0  0  0
    9.1353   -5.4053   27.8239 C   0  0  0  0  0  0  0  0  0  0  0  0
    0.9922   -9.3232   16.5995 O   0  0  0  0  0  0  0  0  0  0  0  0
    1.5232   -7.6869   27.1182 C   0  0  0  0  0  0  0  0  0  0  0  0
    8.6878   -6.6715   27.7262 N   0  0  0  0  0  0  0  0  0  0  0  0
    6.9911   -8.2423   27.1808 C   0  0  0  0  0  0  0  0  0  0  0  0
    3.8436   -7.2758   16.0578 C   0  0  0  0  0  0  0  0  0  0  0  0
    3.1882   -9.7190   17.2566 C   0  0  0  0  0  0  0  0  0  0  0  0
    5.3488   -6.1737   26.5092 C   0  0  0  0  0  0  0  0  0  0  0  0
    7.4567   -6.9464   27.2858 C   0  0  0  0  0  0  0  0  0  0  0  0
    0.1921   -5.7592   27.1123 C   0  0  0  0  0  0  0  0  0  0  0  0
    3.5517   -7.7407   25.9711 C   0  0  0  0  0  0  0  0  0  0  0  0
  1  4  4  0
  1 22  4  0
  2 20  4  0
  2 27  4  0
  3 12  4  0
  3 23  4  0
  4 25  4  0
  4 28  1  0
  5  8  4  0
  5 17  4  0
  6  7  4  0
  6 16  4  0
  7 18  4  0
  8 27  4  0
  9 13  4  0
  9 23  4  0
 10 11  1  0
 11 14  2  0
 11 27  1  0
 12 19  1  0
 12 24  4  0
 13 24  4  0
 15 18  1  0
 16 25  4  0
 16 26  4  0
 17 20  4  0
 17 28  1  0
 18 21  4  0
 21 26  4  0
 22 26  4  0
M  END
$$$$

 Created by Python create_sdf_string function

 28 30  0  0  0  0  0  0  0  0999 V2000
    5.7174   -8.4529   26.7190 C   0  0  0  0  0  0  0  0  0  0  0  0
    0.3974   -7.0711   27.5149 C   0  0  0  0  0  0  0  0  0  0  0  0
    2.5338   -7.6891   16.0102 C   0  0  0  0  0  0  0  0  0  0  0  0
    4.8690   -7.4380   26.4151 C   0  0  0  0  0  0  0  0  0  0  0  0
    2.3021   -5.6726   26.0378 C   0  0  0  0  0  0  0  0  0  0  0  0
    7.0880   -4.6163   27.0010 C   0  0  0  0  0  0  0  0  0  0  0  0
    8.3117   -4.3698   27.4436 C   0  0  0  0  0  0  0  0  0  0  0  0
    1.1339   -5.0515   26.3541 C   0  0  0  0  0  0  0  0  0  0  0  0
    4.8080   -8.0362   16.7101 C   0  0  0  0  0  0  0  0  0  0  0  0
   -1.2173   -3.9294   26.9717 O   0  0  0  0  0  0  0  0  0  0  0  0
   -1.0025   -5.0942   27.4586 C   0  0  0  0  0  0  0  0  0  0  0  0
    2.2474   -8.9123   16.6273 C   0  0  0  0  0  0  0  0  0  0  0  0
    4.4957   -9.2636   17.3041 C   0  0  0  0  0  0  0  0  0  0  0  0
   -1.8070   -5.6086   28.1920 O   0  0  0  0  0  0  0  0  0  0  0  0
   10.4296   -5.1799   28.3140 C   0  0  0  0  0  0  0  0  0  0  0  0
    6.6017   -5.9004   26.9187 C   0  0  0  0  0  0  0  0  0  0  0  0
    2.4761   -6.9940   26.4111 N   0  0  0  0  0  0  0  0  0  0  0  0
    9.1353   -5.4053   27.8239 C   0  0  0  0  0  0  0  0  0  0  0  0
    0.9922   -9.3232   16.5995 O   0  0  0  0  0  0  0  0  0  0  0  0
    1.5232   -7.6869   27.1182 C   0  0  0  0  0  0  0  0  0  0  0  0
    8.6878   -6.6715   27.7262 N   0  0  0  0  0  0  0  0  0  0  0  0
    6.9911   -8.2423   27.1808 C   0  0  0  0  0  0  0  0  0  0  0  0
    3.8436   -7.2758   16.0578 C   0  0  0  0  0  0  0  0  0  0  0  0
    3.1882   -9.7190   17.2566 C   0  0  0  0  0  0  0  0  0  0  0  0
    5.3488   -6.1737   26.5092 C   0  0  0  0  0  0  0  0  0  0  0  0
    7.4567   -6.9464   27.2858 C   0  0  0  0  0  0  0  0  0  0  0  0
    0.1921   -5.7592   27.1123 C   0  0  0  0  0  0  0  0  0  0  0  0
    3.5517   -7.7407   25.9711 C   0  0  0  0  0  0  0  0  0  0  0  0
  1  4  4  0
  1 22  4  0
  2 20  4  0
  2 27  4  0
  3 12  4  0
  3 23  4  0
  4 25  4  0
  4 28  1  0
  5  8  4  0
  5 17  4  0
  6  7  4  0
  6 16  4  0
  7 18  4  0
  8 27  4  0
  9 13  4  0
  9 23  4  0
 10 11  1  0
 11 14  2  0
 11 27  1  0
 12 19  1  0
 12 24  4  0
 13 24  4  0
 15 18  1  0
 16 25  4  0
 16 26  4  0
 17 20  4  0
 17 28  1  0
 18 21  4  0
 21 26  4  0
 22 26  4  0
M  END
$$$$

 Created by Python create_sdf_string function

 28 30  0  0  0  0  0  0  0  0999 V2000
    5.7174   -8.4529   26.7190 C   0  0  0  0  0  0  0  0  0  0  0  0
    0.3974   -7.0711   27.5149 C   0  0  0  0  0  0  0  0  0  0  0  0
    2.5338   -7.6891   16.0102 C   0  0  0  0  0  0  0  0  0  0  0  0
    4.8690   -7.4380   26.4151 C   0  0  0  0  0  0  0  0  0  0  0  0
    2.3021   -5.6726   26.0378 C   0  0  0  0  0  0  0  0  0  0  0  0
    7.0880   -4.6163   27.0010 C   0  0  0  0  0  0  0  0  0  0  0  0
    8.3117   -4.3698   27.4436 C   0  0  0  0  0  0  0  0  0  0  0  0
    1.1339   -5.0515   26.3541 C   0  0  0  0  0  0  0  0  0  0  0  0
    4.8080   -8.0362   16.7101 C   0  0  0  0  0  0  0  0  0  0  0  0
   -1.2173   -3.9294   26.9717 O   0  0  0  0  0  0  0  0  0  0  0  0
   -1.0025   -5.0942   27.4586 C   0  0  0  0  0  0  0  0  0  0  0  0
    2.2474   -8.9123   16.6273 C   0  0  0  0  0  0  0  0  0  0  0  0
    4.4957   -9.2636   17.3041 C   0  0  0  0  0  0  0  0  0  0  0  0
   -1.8070   -5.6086   28.1920 O   0  0  0  0  0  0  0  0  0  0  0  0
   10.4296   -5.1799   28.3140 C   0  0  0  0  0  0  0  0  0  0  0  0
    6.6017   -5.9004   26.9187 C   0  0  0  0  0  0  0  0  0  0  0  0
    2.4761   -6.9940   26.4111 N   0  0  0  0  0  0  0  0  0  0  0  0
    9.1353   -5.4053   27.8239 C   0  0  0  0  0  0  0  0  0  0  0  0
    0.9922   -9.3232   16.5995 O   0  0  0  0  0  0  0  0  0  0  0  0
    1.5232   -7.6869   27.1182 C   0  0  0  0  0  0  0  0  0  0  0  0
    8.6878   -6.6715   27.7262 N   0  0  0  0  0  0  0  0  0  0  0  0
    6.9911   -8.2423   27.1808 C   0  0  0  0  0  0  0  0  0  0  0  0
    3.8436   -7.2758   16.0578 C   0  0  0  0  0  0  0  0  0  0  0  0
    3.1882   -9.7190   17.2566 C   0  0  0  0  0  0  0  0  0  0  0  0
    5.3488   -6.1737   26.5092 C   0  0  0  0  0  0  0  0  0  0  0  0
    7.4567   -6.9464   27.2858 C   0  0  0  0  0  0  0  0  0  0  0  0
    0.1921   -5.7592   27.1123 C   0  0  0  0  0  0  0  0  0  0  0  0
    3.5517   -7.7407   25.9711 C   0  0  0  0  0  0  0  0  0  0  0  0
  1  4  4  0
  1 22  4  0
  2 20  4  0
  2 27  4  0
  3 12  4  0
  3 23  4  0
  4 25  4  0
  4 28  1  0
  5  8  4  0
  5 17  4  0
  6  7  4  0
  6 16  4  0
  7 18  4  0
  8 27  4  0
  9 13  4  0
  9 23  4  0
 10 11  1  0
 11 14  2  0
 11 27  1  0
 12 19  1  0
 12 24  4  0
 13 24  4  0
 15 18  1  0
 16 25  4  0
 16 26  4  0
 17 20  4  0
 17 28  1  0
 18 21  4  0
 21 26  4  0
 22 26  4  0
M  END
$$$$

 Created by Python create_sdf_string function

 28 30  0  0  0  0  0  0  0  0999 V2000
    5.7174   -8.4529   26.7190 C   0  0  0  0  0  0  0  0  0  0  0  0
    0.3974   -7.0711   27.5149 C   0  0  0  0  0  0  0  0  0  0  0  0
    2.5338   -7.6891   16.0102 C   0  0  0  0  0  0  0  0  0  0  0  0
    4.8690   -7.4380   26.4151 C   0  0  0  0  0  0  0  0  0  0  0  0
    2.3021   -5.6726   26.0378 C   0  0  0  0  0  0  0  0  0  0  0  0
    7.0880   -4.6163   27.0010 C   0  0  0  0  0  0  0  0  0  0  0  0
    8.3117   -4.3698   27.4436 C   0  0  0  0  0  0  0  0  0  0  0  0
    1.1339   -5.0515   26.3541 C   0  0  0  0  0  0  0  0  0  0  0  0
    4.8080   -8.0362   16.7101 C   0  0  0  0  0  0  0  0  0  0  0  0
   -1.2173   -3.9294   26.9717 O   0  0  0  0  0  0  0  0  0  0  0  0
   -1.0025   -5.0942   27.4586 C   0  0  0  0  0  0  0  0  0  0  0  0
    2.2474   -8.9123   16.6273 C   0  0  0  0  0  0  0  0  0  0  0  0
    4.4957   -9.2636   17.3041 C   0  0  0  0  0  0  0  0  0  0  0  0
   -1.8070   -5.6086   28.1920 O   0  0  0  0  0  0  0  0  0  0  0  0
   10.4296   -5.1799   28.3140 C   0  0  0  0  0  0  0  0  0  0  0  0
    6.6017   -5.9004   26.9187 C   0  0  0  0  0  0  0  0  0  0  0  0
    2.4761   -6.9940   26.4111 N   0  0  0  0  0  0  0  0  0  0  0  0
    9.1353   -5.4053   27.8239 C   0  0  0  0  0  0  0  0  0  0  0  0
    0.9922   -9.3232   16.5995 O   0  0  0  0  0  0  0  0  0  0  0  0
    1.5232   -7.6869   27.1182 C   0  0  0  0  0  0  0  0  0  0  0  0
    8.6878   -6.6715   27.7262 N   0  0  0  0  0  0  0  0  0  0  0  0
    6.9911   -8.2423   27.1808 C   0  0  0  0  0  0  0  0  0  0  0  0
    3.8436   -7.2758   16.0578 C   0  0  0  0  0  0  0  0  0  0  0  0
    3.1882   -9.7190   17.2566 C   0  0  0  0  0  0  0  0  0  0  0  0
    5.3488   -6.1737   26.5092 C   0  0  0  0  0  0  0  0  0  0  0  0
    7.4567   -6.9464   27.2858 C   0  0  0  0  0  0  0  0  0  0  0  0
    0.1921   -5.7592   27.1123 C   0  0  0  0  0  0  0  0  0  0  0  0
    3.5517   -7.7407   25.9711 C   0  0  0  0  0  0  0  0  0  0  0  0
  1  4  4  0
  1 22  4  0
  2 20  4  0
  2 27  4  0
  3 12  4  0
  3 23  4  0
  4 25  4  0
  4 28  1  0
  5  8  4  0
  5 17  4  0
  6  7  4  0
  6 16  4  0
  7 18  4  0
  8 27  4  0
  9 13  4  0
  9 23  4  0
 10 11  1  0
 11 14  2  0
 11 27  1  0
 12 19  1  0
 12 24  4  0
 13 24  4  0
 15 18  1  0
 16 25  4  0
 16 26  4  0
 17 20  4  0
 17 28  1  0
 18 21  4  0
 21 26  4  0
 22 26  4  0
M  END
$$$$

 Created by Python create_sdf_string function

 28 30  0  0  0  0  0  0  0  0999 V2000
    5.7174   -8.4529   26.7190 C   0  0  0  0  0  0  0  0  0  0  0  0
    0.3974   -7.0711   27.5149 C   0  0  0  0  0  0  0  0  0  0  0  0
    2.5338   -7.6891   16.0102 C   0  0  0  0  0  0  0  0  0  0  0  0
    4.8690   -7.4380   26.4151 C   0  0  0  0  0  0  0  0  0  0  0  0
    2.3021   -5.6726   26.0378 C   0  0  0  0  0  0  0  0  0  0  0  0
    7.0880   -4.6163   27.0010 C   0  0  0  0  0  0  0  0  0  0  0  0
    8.3117   -4.3698   27.4436 C   0  0  0  0  0  0  0  0  0  0  0  0
    1.1339   -5.0515   26.3541 C   0  0  0  0  0  0  0  0  0  0  0  0
    4.8080   -8.0362   16.7101 C   0  0  0  0  0  0  0  0  0  0  0  0
   -1.2173   -3.9294   26.9717 O   0  0  0  0  0  0  0  0  0  0  0  0
   -1.0025   -5.0942   27.4586 C   0  0  0  0  0  0  0  0  0  0  0  0
    2.2474   -8.9123   16.6273 C   0  0  0  0  0  0  0  0  0  0  0  0
    4.4957   -9.2636   17.3041 C   0  0  0  0  0  0  0  0  0  0  0  0
   -1.8070   -5.6086   28.1920 O   0  0  0  0  0  0  0  0  0  0  0  0
   10.4296   -5.1799   28.3140 C   0  0  0  0  0  0  0  0  0  0  0  0
    6.6017   -5.9004   26.9187 C   0  0  0  0  0  0  0  0  0  0  0  0
    2.4761   -6.9940   26.4111 N   0  0  0  0  0  0  0  0  0  0  0  0
    9.1353   -5.4053   27.8239 C   0  0  0  0  0  0  0  0  0  0  0  0
    0.9922   -9.3232   16.5995 O   0  0  0  0  0  0  0  0  0  0  0  0
    1.5232   -7.6869   27.1182 C   0  0  0  0  0  0  0  0  0  0  0  0
    8.6878   -6.6715   27.7262 N   0  0  0  0  0  0  0  0  0  0  0  0
    6.9911   -8.2423   27.1808 C   0  0  0  0  0  0  0  0  0  0  0  0
    3.8436   -7.2758   16.0578 C   0  0  0  0  0  0  0  0  0  0  0  0
    3.1882   -9.7190   17.2566 C   0  0  0  0  0  0  0  0  0  0  0  0
    5.3488   -6.1737   26.5092 C   0  0  0  0  0  0  0  0  0  0  0  0
    7.4567   -6.9464   27.2858 C   0  0  0  0  0  0  0  0  0  0  0  0
    0.1921   -5.7592   27.1123 C   0  0  0  0  0  0  0  0  0  0  0  0
    3.5517   -7.7407   25.9711 C   0  0  0  0  0  0  0  0  0  0  0  0
  1  4  4  0
  1 22  4  0
  2 20  4  0
  2 27  4  0
  3 12  4  0
  3 23  4  0
  4 25  4  0
  4 28  1  0
  5  8  4  0
  5 17  4  0
  6  7  4  0
  6 16  4  0
  7 18  4  0
  8 27  4  0
  9 13  4  0
  9 23  4  0
 10 11  1  0
 11 14  2  0
 11 27  1  0
 12 19  1  0
 12 24  4  0
 13 24  4  0
 15 18  1  0
 16 25  4  0
 16 26  4  0
 17 20  4  0
 17 28  1  0
 18 21  4  0
 21 26  4  0
 22 26  4  0
M  END
$$$$

 Created by Python create_sdf_string function

 28 30  0  0  0  0  0  0  0  0999 V2000
    5.7174   -8.4529   26.7190 C   0  0  0  0  0  0  0  0  0  0  0  0
    0.3974   -7.0711   27.5149 C   0  0  0  0  0  0  0  0  0  0  0  0
    2.5338   -7.6891   16.0102 C   0  0  0  0  0  0  0  0  0  0  0  0
    4.8690   -7.4380   26.4151 C   0  0  0  0  0  0  0  0  0  0  0  0
    2.3021   -5.6726   26.0378 C   0  0  0  0  0  0  0  0  0  0  0  0
    7.0880   -4.6163   27.0010 C   0  0  0  0  0  0  0  0  0  0  0  0
    8.3117   -4.3698   27.4436 C   0  0  0  0  0  0  0  0  0  0  0  0
    1.1339   -5.0515   26.3541 C   0  0  0  0  0  0  0  0  0  0  0  0
    4.8080   -8.0362   16.7101 C   0  0  0  0  0  0  0  0  0  0  0  0
   -1.2173   -3.9294   26.9717 O   0  0  0  0  0  0  0  0  0  0  0  0
   -1.0025   -5.0942   27.4586 C   0  0  0  0  0  0  0  0  0  0  0  0
    2.2474   -8.9123   16.6273 C   0  0  0  0  0  0  0  0  0  0  0  0
    4.4957   -9.2636   17.3041 C   0  0  0  0  0  0  0  0  0  0  0  0
   -1.8070   -5.6086   28.1920 O   0  0  0  0  0  0  0  0  0  0  0  0
   10.4296   -5.1799   28.3140 C   0  0  0  0  0  0  0  0  0  0  0  0
    6.6017   -5.9004   26.9187 C   0  0  0  0  0  0  0  0  0  0  0  0
    2.4761   -6.9940   26.4111 N   0  0  0  0  0  0  0  0  0  0  0  0
    9.1353   -5.4053   27.8239 C   0  0  0  0  0  0  0  0  0  0  0  0
    0.9922   -9.3232   16.5995 O   0  0  0  0  0  0  0  0  0  0  0  0
    1.5232   -7.6869   27.1182 C   0  0  0  0  0  0  0  0  0  0  0  0
    8.6878   -6.6715   27.7262 N   0  0  0  0  0  0  0  0  0  0  0  0
    6.9911   -8.2423   27.1808 C   0  0  0  0  0  0  0  0  0  0  0  0
    3.8436   -7.2758   16.0578 C   0  0  0  0  0  0  0  0  0  0  0  0
    3.1882   -9.7190   17.2566 C   0  0  0  0  0  0  0  0  0  0  0  0
    5.3488   -6.1737   26.5092 C   0  0  0  0  0  0  0  0  0  0  0  0
    7.4567   -6.9464   27.2858 C   0  0  0  0  0  0  0  0  0  0  0  0
    0.1921   -5.7592   27.1123 C   0  0  0  0  0  0  0  0  0  0  0  0
    3.5517   -7.7407   25.9711 C   0  0  0  0  0  0  0  0  0  0  0  0
  1  4  4  0
  1 22  4  0
  2 20  4  0
  2 27  4  0
  3 12  4  0
  3 23  4  0
  4 25  4  0
  4 28  1  0
  5  8  4  0
  5 17  4  0
  6  7  4  0
  6 16  4  0
  7 18  4  0
  8 27  4  0
  9 13  4  0
  9 23  4  0
 10 11  1  0
 11 14  2  0
 11 27  1  0
 12 19  1  0
 12 24  4  0
 13 24  4  0
 15 18  1  0
 16 25  4  0
 16 26  4  0
 17 20  4  0
 17 28  1  0
 18 21  4  0
 21 26  4  0
 22 26  4  0
M  END
$$$$

 Created by Python create_sdf_string function

 28 30  0  0  0  0  0  0  0  0999 V2000
    5.7174   -8.4529   26.7190 C   0  0  0  0  0  0  0  0  0  0  0  0
    0.3974   -7.0711   27.5149 C   0  0  0  0  0  0  0  0  0  0  0  0
    2.5338   -7.6891   16.0102 C   0  0  0  0  0  0  0  0  0  0  0  0
    4.8690   -7.4380   26.4151 C   0  0  0  0  0  0  0  0  0  0  0  0
    2.3021   -5.6726   26.0378 C   0  0  0  0  0  0  0  0  0  0  0  0
    7.0880   -4.6163   27.0010 C   0  0  0  0  0  0  0  0  0  0  0  0
    8.3117   -4.3698   27.4436 C   0  0  0  0  0  0  0  0  0  0  0  0
    1.1339   -5.0515   26.3541 C   0  0  0  0  0  0  0  0  0  0  0  0
    4.8080   -8.0362   16.7101 C   0  0  0  0  0  0  0  0  0  0  0  0
   -1.2173   -3.9294   26.9717 O   0  0  0  0  0  0  0  0  0  0  0  0
   -1.0025   -5.0942   27.4586 C   0  0  0  0  0  0  0  0  0  0  0  0
    2.2474   -8.9123   16.6273 C   0  0  0  0  0  0  0  0  0  0  0  0
    4.4957   -9.2636   17.3041 C   0  0  0  0  0  0  0  0  0  0  0  0
   -1.8070   -5.6086   28.1920 O   0  0  0  0  0  0  0  0  0  0  0  0
   10.4296   -5.1799   28.3140 C   0  0  0  0  0  0  0  0  0  0  0  0
    6.6017   -5.9004   26.9187 C   0  0  0  0  0  0  0  0  0  0  0  0
    2.4761   -6.9940   26.4111 N   0  0  0  0  0  0  0  0  0  0  0  0
    9.1353   -5.4053   27.8239 C   0  0  0  0  0  0  0  0  0  0  0  0
    0.9922   -9.3232   16.5995 O   0  0  0  0  0  0  0  0  0  0  0  0
    1.5232   -7.6869   27.1182 C   0  0  0  0  0  0  0  0  0  0  0  0
    8.6878   -6.6715   27.7262 N   0  0  0  0  0  0  0  0  0  0  0  0
    6.9911   -8.2423   27.1808 C   0  0  0  0  0  0  0  0  0  0  0  0
    3.8436   -7.2758   16.0578 C   0  0  0  0  0  0  0  0  0  0  0  0
    3.1882   -9.7190   17.2566 C   0  0  0  0  0  0  0  0  0  0  0  0
    5.3488   -6.1737   26.5092 C   0  0  0  0  0  0  0  0  0  0  0  0
    7.4567   -6.9464   27.2858 C   0  0  0  0  0  0  0  0  0  0  0  0
    0.1921   -5.7592   27.1123 C   0  0  0  0  0  0  0  0  0  0  0  0
    3.5517   -7.7407   25.9711 C   0  0  0  0  0  0  0  0  0  0  0  0
  1  4  4  0
  1 22  4  0
  2 20  4  0
  2 27  4  0
  3 12  4  0
  3 23  4  0
  4 25  4  0
  4 28  1  0
  5  8  4  0
  5 17  4  0
  6  7  4  0
  6 16  4  0
  7 18  4  0
  8 27  4  0
  9 13  4  0
  9 23  4  0
 10 11  1  0
 11 14  2  0
 11 27  1  0
 12 19  1  0
 12 24  4  0
 13 24  4  0
 15 18  1  0
 16 25  4  0
 16 26  4  0
 17 20  4  0
 17 28  1  0
 18 21  4  0
 21 26  4  0
 22 26  4  0
M  END
$$$$

 Created by Python create_sdf_string function

 28 30  0  0  0  0  0  0  0  0999 V2000
    5.7174   -8.4529   26.7190 C   0  0  0  0  0  0  0  0  0  0  0  0
    0.3974   -7.0711   27.5149 C   0  0  0  0  0  0  0  0  0  0  0  0
    2.5338   -7.6891   16.0102 C   0  0  0  0  0  0  0  0  0  0  0  0
    4.8690   -7.4380   26.4151 C   0  0  0  0  0  0  0  0  0  0  0  0
    2.3021   -5.6726   26.0378 C   0  0  0  0  0  0  0  0  0  0  0  0
    7.0880   -4.6163   27.0010 C   0  0  0  0  0  0  0  0  0  0  0  0
    8.3117   -4.3698   27.4436 C   0  0  0  0  0  0  0  0  0  0  0  0
    1.1339   -5.0515   26.3541 C   0  0  0  0  0  0  0  0  0  0  0  0
    4.8080   -8.0362   16.7101 C   0  0  0  0  0  0  0  0  0  0  0  0
   -1.2173   -3.9294   26.9717 O   0  0  0  0  0  0  0  0  0  0  0  0
   -1.0025   -5.0942   27.4586 C   0  0  0  0  0  0  0  0  0  0  0  0
    2.2474   -8.9123   16.6273 C   0  0  0  0  0  0  0  0  0  0  0  0
    4.4957   -9.2636   17.3041 C   0  0  0  0  0  0  0  0  0  0  0  0
   -1.8070   -5.6086   28.1920 O   0  0  0  0  0  0  0  0  0  0  0  0
   10.4296   -5.1799   28.3140 C   0  0  0  0  0  0  0  0  0  0  0  0
    6.6017   -5.9004   26.9187 C   0  0  0  0  0  0  0  0  0  0  0  0
    2.4761   -6.9940   26.4111 N   0  0  0  0  0  0  0  0  0  0  0  0
    9.1353   -5.4053   27.8239 C   0  0  0  0  0  0  0  0  0  0  0  0
    0.9922   -9.3232   16.5995 O   0  0  0  0  0  0  0  0  0  0  0  0
    1.5232   -7.6869   27.1182 C   0  0  0  0  0  0  0  0  0  0  0  0
    8.6878   -6.6715   27.7262 N   0  0  0  0  0  0  0  0  0  0  0  0
    6.9911   -8.2423   27.1808 C   0  0  0  0  0  0  0  0  0  0  0  0
    3.8436   -7.2758   16.0578 C   0  0  0  0  0  0  0  0  0  0  0  0
    3.1882   -9.7190   17.2566 C   0  0  0  0  0  0  0  0  0  0  0  0
    5.3488   -6.1737   26.5092 C   0  0  0  0  0  0  0  0  0  0  0  0
    7.4567   -6.9464   27.2858 C   0  0  0  0  0  0  0  0  0  0  0  0
    0.1921   -5.7592   27.1123 C   0  0  0  0  0  0  0  0  0  0  0  0
    3.5517   -7.7407   25.9711 C   0  0  0  0  0  0  0  0  0  0  0  0
  1  4  4  0
  1 22  4  0
  2 20  4  0
  2 27  4  0
  3 12  4  0
  3 23  4  0
  4 25  4  0
  4 28  1  0
  5  8  4  0
  5 17  4  0
  6  7  4  0
  6 16  4  0
  7 18  4  0
  8 27  4  0
  9 13  4  0
  9 23  4  0
 10 11  1  0
 11 14  2  0
 11 27  1  0
 12 19  1  0
 12 24  4  0
 13 24  4  0
 15 18  1  0
 16 25  4  0
 16 26  4  0
 17 20  4  0
 17 28  1  0
 18 21  4  0
 21 26  4  0
 22 26  4  0
M  END
$$$$

 Created by Python create_sdf_string function

 28 30  0  0  0  0  0  0  0  0999 V2000
    5.7174   -8.4529   26.7190 C   0  0  0  0  0  0  0  0  0  0  0  0
    0.3974   -7.0711   27.5149 C   0  0  0  0  0  0  0  0  0  0  0  0
    2.5338   -7.6891   16.0102 C   0  0  0  0  0  0  0  0  0  0  0  0
    4.8690   -7.4380   26.4151 C   0  0  0  0  0  0  0  0  0  0  0  0
    2.3021   -5.6726   26.0378 C   0  0  0  0  0  0  0  0  0  0  0  0
    7.0880   -4.6163   27.0010 C   0  0  0  0  0  0  0  0  0  0  0  0
    8.3117   -4.3698   27.4436 C   0  0  0  0  0  0  0  0  0  0  0  0
    1.1339   -5.0515   26.3541 C   0  0  0  0  0  0  0  0  0  0  0  0
    4.8080   -8.0362   16.7101 C   0  0  0  0  0  0  0  0  0  0  0  0
   -1.2173   -3.9294   26.9717 O   0  0  0  0  0  0  0  0  0  0  0  0
   -1.0025   -5.0942   27.4586 C   0  0  0  0  0  0  0  0  0  0  0  0
    2.2474   -8.9123   16.6273 C   0  0  0  0  0  0  0  0  0  0  0  0
    4.4957   -9.2636   17.3041 C   0  0  0  0  0  0  0  0  0  0  0  0
   -1.8070   -5.6086   28.1920 O   0  0  0  0  0  0  0  0  0  0  0  0
   10.4296   -5.1799   28.3140 C   0  0  0  0  0  0  0  0  0  0  0  0
    6.6017   -5.9004   26.9187 C   0  0  0  0  0  0  0  0  0  0  0  0
    2.4761   -6.9940   26.4111 N   0  0  0  0  0  0  0  0  0  0  0  0
    9.1353   -5.4053   27.8239 C   0  0  0  0  0  0  0  0  0  0  0  0
    0.9922   -9.3232   16.5995 O   0  0  0  0  0  0  0  0  0  0  0  0
    1.5232   -7.6869   27.1182 C   0  0  0  0  0  0  0  0  0  0  0  0
    8.6878   -6.6715   27.7262 N   0  0  0  0  0  0  0  0  0  0  0  0
    6.9911   -8.2423   27.1808 C   0  0  0  0  0  0  0  0  0  0  0  0
    3.8436   -7.2758   16.0578 C   0  0  0  0  0  0  0  0  0  0  0  0
    3.1882   -9.7190   17.2566 C   0  0  0  0  0  0  0  0  0  0  0  0
    5.3488   -6.1737   26.5092 C   0  0  0  0  0  0  0  0  0  0  0  0
    7.4567   -6.9464   27.2858 C   0  0  0  0  0  0  0  0  0  0  0  0
    0.1921   -5.7592   27.1123 C   0  0  0  0  0  0  0  0  0  0  0  0
    3.5517   -7.7407   25.9711 C   0  0  0  0  0  0  0  0  0  0  0  0
  1  4  4  0
  1 22  4  0
  2 20  4  0
  2 27  4  0
  3 12  4  0
  3 23  4  0
  4 25  4  0
  4 28  1  0
  5  8  4  0
  5 17  4  0
  6  7  4  0
  6 16  4  0
  7 18  4  0
  8 27  4  0
  9 13  4  0
  9 23  4  0
 10 11  1  0
 11 14  2  0
 11 27  1  0
 12 19  1  0
 12 24  4  0
 13 24  4  0
 15 18  1  0
 16 25  4  0
 16 26  4  0
 17 20  4  0
 17 28  1  0
 18 21  4  0
 21 26  4  0
 22 26  4  0
M  END
$$$$

 Created by Python create_sdf_string function

 28 30  0  0  0  0  0  0  0  0999 V2000
    5.7174   -8.4529   26.7190 C   0  0  0  0  0  0  0  0  0  0  0  0
    0.3974   -7.0711   27.5149 C   0  0  0  0  0  0  0  0  0  0  0  0
    2.5338   -7.6891   16.0102 C   0  0  0  0  0  0  0  0  0  0  0  0
    4.8690   -7.4380   26.4151 C   0  0  0  0  0  0  0  0  0  0  0  0
    2.3021   -5.6726   26.0378 C   0  0  0  0  0  0  0  0  0  0  0  0
    7.0880   -4.6163   27.0010 C   0  0  0  0  0  0  0  0  0  0  0  0
    8.3117   -4.3698   27.4436 C   0  0  0  0  0  0  0  0  0  0  0  0
    1.1339   -5.0515   26.3541 C   0  0  0  0  0  0  0  0  0  0  0  0
    4.8080   -8.0362   16.7101 C   0  0  0  0  0  0  0  0  0  0  0  0
   -1.2173   -3.9294   26.9717 O   0  0  0  0  0  0  0  0  0  0  0  0
   -1.0025   -5.0942   27.4586 C   0  0  0  0  0  0  0  0  0  0  0  0
    2.2474   -8.9123   16.6273 C   0  0  0  0  0  0  0  0  0  0  0  0
    4.4957   -9.2636   17.3041 C   0  0  0  0  0  0  0  0  0  0  0  0
   -1.8070   -5.6086   28.1920 O   0  0  0  0  0  0  0  0  0  0  0  0
   10.4296   -5.1799   28.3140 C   0  0  0  0  0  0  0  0  0  0  0  0
    6.6017   -5.9004   26.9187 C   0  0  0  0  0  0  0  0  0  0  0  0
    2.4761   -6.9940   26.4111 N   0  0  0  0  0  0  0  0  0  0  0  0
    9.1353   -5.4053   27.8239 C   0  0  0  0  0  0  0  0  0  0  0  0
    0.9922   -9.3232   16.5995 O   0  0  0  0  0  0  0  0  0  0  0  0
    1.5232   -7.6869   27.1182 C   0  0  0  0  0  0  0  0  0  0  0  0
    8.6878   -6.6715   27.7262 N   0  0  0  0  0  0  0  0  0  0  0  0
    6.9911   -8.2423   27.1808 C   0  0  0  0  0  0  0  0  0  0  0  0
    3.8436   -7.2758   16.0578 C   0  0  0  0  0  0  0  0  0  0  0  0
    3.1882   -9.7190   17.2566 C   0  0  0  0  0  0  0  0  0  0  0  0
    5.3488   -6.1737   26.5092 C   0  0  0  0  0  0  0  0  0  0  0  0
    7.4567   -6.9464   27.2858 C   0  0  0  0  0  0  0  0  0  0  0  0
    0.1921   -5.7592   27.1123 C   0  0  0  0  0  0  0  0  0  0  0  0
    3.5517   -7.7407   25.9711 C   0  0  0  0  0  0  0  0  0  0  0  0
  1  4  4  0
  1 22  4  0
  2 20  4  0
  2 27  4  0
  3 12  4  0
  3 23  4  0
  4 25  4  0
  4 28  1  0
  5  8  4  0
  5 17  4  0
  6  7  4  0
  6 16  4  0
  7 18  4  0
  8 27  4  0
  9 13  4  0
  9 23  4  0
 10 11  1  0
 11 14  2  0
 11 27  1  0
 12 19  1  0
 12 24  4  0
 13 24  4  0
 15 18  1  0
 16 25  4  0
 16 26  4  0
 17 20  4  0
 17 28  1  0
 18 21  4  0
 21 26  4  0
 22 26  4  0
M  END
$$$$

 Created by Python create_sdf_string function

 28 30  0  0  0  0  0  0  0  0999 V2000
    5.7174   -8.4529   26.7190 C   0  0  0  0  0  0  0  0  0  0  0  0
    0.3974   -7.0711   27.5149 C   0  0  0  0  0  0  0  0  0  0  0  0
    2.5338   -7.6891   16.0102 C   0  0  0  0  0  0  0  0  0  0  0  0
    4.8690   -7.4380   26.4151 C   0  0  0  0  0  0  0  0  0  0  0  0
    2.3021   -5.6726   26.0378 C   0  0  0  0  0  0  0  0  0  0  0  0
    7.0880   -4.6163   27.0010 C   0  0  0  0  0  0  0  0  0  0  0  0
    8.3117   -4.3698   27.4436 C   0  0  0  0  0  0  0  0  0  0  0  0
    1.1339   -5.0515   26.3541 C   0  0  0  0  0  0  0  0  0  0  0  0
    4.8080   -8.0362   16.7101 C   0  0  0  0  0  0  0  0  0  0  0  0
   -1.2173   -3.9294   26.9717 O   0  0  0  0  0  0  0  0  0  0  0  0
   -1.0025   -5.0942   27.4586 C   0  0  0  0  0  0  0  0  0  0  0  0
    2.2474   -8.9123   16.6273 C   0  0  0  0  0  0  0  0  0  0  0  0
    4.4957   -9.2636   17.3041 C   0  0  0  0  0  0  0  0  0  0  0  0
   -1.8070   -5.6086   28.1920 O   0  0  0  0  0  0  0  0  0  0  0  0
   10.4296   -5.1799   28.3140 C   0  0  0  0  0  0  0  0  0  0  0  0
    6.6017   -5.9004   26.9187 C   0  0  0  0  0  0  0  0  0  0  0  0
    2.4761   -6.9940   26.4111 N   0  0  0  0  0  0  0  0  0  0  0  0
    9.1353   -5.4053   27.8239 C   0  0  0  0  0  0  0  0  0  0  0  0
    0.9922   -9.3232   16.5995 O   0  0  0  0  0  0  0  0  0  0  0  0
    1.5232   -7.6869   27.1182 C   0  0  0  0  0  0  0  0  0  0  0  0
    8.6878   -6.6715   27.7262 N   0  0  0  0  0  0  0  0  0  0  0  0
    6.9911   -8.2423   27.1808 C   0  0  0  0  0  0  0  0  0  0  0  0
    3.8436   -7.2758   16.0578 C   0  0  0  0  0  0  0  0  0  0  0  0
    3.1882   -9.7190   17.2566 C   0  0  0  0  0  0  0  0  0  0  0  0
    5.3488   -6.1737   26.5092 C   0  0  0  0  0  0  0  0  0  0  0  0
    7.4567   -6.9464   27.2858 C   0  0  0  0  0  0  0  0  0  0  0  0
    0.1921   -5.7592   27.1123 C   0  0  0  0  0  0  0  0  0  0  0  0
    3.5517   -7.7407   25.9711 C   0  0  0  0  0  0  0  0  0  0  0  0
  1  4  4  0
  1 22  4  0
  2 20  4  0
  2 27  4  0
  3 12  4  0
  3 23  4  0
  4 25  4  0
  4 28  1  0
  5  8  4  0
  5 17  4  0
  6  7  4  0
  6 16  4  0
  7 18  4  0
  8 27  4  0
  9 13  4  0
  9 23  4  0
 10 11  1  0
 11 14  2  0
 11 27  1  0
 12 19  1  0
 12 24  4  0
 13 24  4  0
 15 18  1  0
 16 25  4  0
 16 26  4  0
 17 20  4  0
 17 28  1  0
 18 21  4  0
 21 26  4  0
 22 26  4  0
M  END
$$$$

 Created by Python create_sdf_string function

 28 30  0  0  0  0  0  0  0  0999 V2000
    5.7174   -8.4529   26.7190 C   0  0  0  0  0  0  0  0  0  0  0  0
    0.3974   -7.0711   27.5149 C   0  0  0  0  0  0  0  0  0  0  0  0
    2.5338   -7.6891   16.0102 C   0  0  0  0  0  0  0  0  0  0  0  0
    4.8690   -7.4380   26.4151 C   0  0  0  0  0  0  0  0  0  0  0  0
    2.3021   -5.6726   26.0378 C   0  0  0  0  0  0  0  0  0  0  0  0
    7.0880   -4.6163   27.0010 C   0  0  0  0  0  0  0  0  0  0  0  0
    8.3117   -4.3698   27.4436 C   0  0  0  0  0  0  0  0  0  0  0  0
    1.1339   -5.0515   26.3541 C   0  0  0  0  0  0  0  0  0  0  0  0
    4.8080   -8.0362   16.7101 C   0  0  0  0  0  0  0  0  0  0  0  0
   -1.2173   -3.9294   26.9717 O   0  0  0  0  0  0  0  0  0  0  0  0
   -1.0025   -5.0942   27.4586 C   0  0  0  0  0  0  0  0  0  0  0  0
    2.2474   -8.9123   16.6273 C   0  0  0  0  0  0  0  0  0  0  0  0
    4.4957   -9.2636   17.3041 C   0  0  0  0  0  0  0  0  0  0  0  0
   -1.8070   -5.6086   28.1920 O   0  0  0  0  0  0  0  0  0  0  0  0
   10.4296   -5.1799   28.3140 C   0  0  0  0  0  0  0  0  0  0  0  0
    6.6017   -5.9004   26.9187 C   0  0  0  0  0  0  0  0  0  0  0  0
    2.4761   -6.9940   26.4111 N   0  0  0  0  0  0  0  0  0  0  0  0
    9.1353   -5.4053   27.8239 C   0  0  0  0  0  0  0  0  0  0  0  0
    0.9922   -9.3232   16.5995 O   0  0  0  0  0  0  0  0  0  0  0  0
    1.5232   -7.6869   27.1182 C   0  0  0  0  0  0  0  0  0  0  0  0
    8.6878   -6.6715   27.7262 N   0  0  0  0  0  0  0  0  0  0  0  0
    6.9911   -8.2423   27.1808 C   0  0  0  0  0  0  0  0  0  0  0  0
    3.8436   -7.2758   16.0578 C   0  0  0  0  0  0  0  0  0  0  0  0
    3.1882   -9.7190   17.2566 C   0  0  0  0  0  0  0  0  0  0  0  0
    5.3488   -6.1737   26.5092 C   0  0  0  0  0  0  0  0  0  0  0  0
    7.4567   -6.9464   27.2858 C   0  0  0  0  0  0  0  0  0  0  0  0
    0.1921   -5.7592   27.1123 C   0  0  0  0  0  0  0  0  0  0  0  0
    3.5517   -7.7407   25.9711 C   0  0  0  0  0  0  0  0  0  0  0  0
  1  4  4  0
  1 22  4  0
  2 20  4  0
  2 27  4  0
  3 12  4  0
  3 23  4  0
  4 25  4  0
  4 28  1  0
  5  8  4  0
  5 17  4  0
  6  7  4  0
  6 16  4  0
  7 18  4  0
  8 27  4  0
  9 13  4  0
  9 23  4  0
 10 11  1  0
 11 14  2  0
 11 27  1  0
 12 19  1  0
 12 24  4  0
 13 24  4  0
 15 18  1  0
 16 25  4  0
 16 26  4  0
 17 20  4  0
 17 28  1  0
 18 21  4  0
 21 26  4  0
 22 26  4  0
M  END
$$$$

 Created by Python create_sdf_string function

 28 30  0  0  0  0  0  0  0  0999 V2000
    5.7174   -8.4529   26.7190 C   0  0  0  0  0  0  0  0  0  0  0  0
    0.3974   -7.0711   27.5149 C   0  0  0  0  0  0  0  0  0  0  0  0
    2.5338   -7.6891   16.0102 C   0  0  0  0  0  0  0  0  0  0  0  0
    4.8690   -7.4380   26.4151 C   0  0  0  0  0  0  0  0  0  0  0  0
    2.3021   -5.6726   26.0378 C   0  0  0  0  0  0  0  0  0  0  0  0
    7.0880   -4.6163   27.0010 C   0  0  0  0  0  0  0  0  0  0  0  0
    8.3117   -4.3698   27.4436 C   0  0  0  0  0  0  0  0  0  0  0  0
    1.1339   -5.0515   26.3541 C   0  0  0  0  0  0  0  0  0  0  0  0
    4.8080   -8.0362   16.7101 C   0  0  0  0  0  0  0  0  0  0  0  0
   -1.2173   -3.9294   26.9717 O   0  0  0  0  0  0  0  0  0  0  0  0
   -1.0025   -5.0942   27.4586 C   0  0  0  0  0  0  0  0  0  0  0  0
    2.2474   -8.9123   16.6273 C   0  0  0  0  0  0  0  0  0  0  0  0
    4.4957   -9.2636   17.3041 C   0  0  0  0  0  0  0  0  0  0  0  0
   -1.8070   -5.6086   28.1920 O   0  0  0  0  0  0  0  0  0  0  0  0
   10.4296   -5.1799   28.3140 C   0  0  0  0  0  0  0  0  0  0  0  0
    6.6017   -5.9004   26.9187 C   0  0  0  0  0  0  0  0  0  0  0  0
    2.4761   -6.9940   26.4111 N   0  0  0  0  0  0  0  0  0  0  0  0
    9.1353   -5.4053   27.8239 C   0  0  0  0  0  0  0  0  0  0  0  0
    0.9922   -9.3232   16.5995 O   0  0  0  0  0  0  0  0  0  0  0  0
    1.5232   -7.6869   27.1182 C   0  0  0  0  0  0  0  0  0  0  0  0
    8.6878   -6.6715   27.7262 N   0  0  0  0  0  0  0  0  0  0  0  0
    6.9911   -8.2423   27.1808 C   0  0  0  0  0  0  0  0  0  0  0  0
    3.8436   -7.2758   16.0578 C   0  0  0  0  0  0  0  0  0  0  0  0
    3.1882   -9.7190   17.2566 C   0  0  0  0  0  0  0  0  0  0  0  0
    5.3488   -6.1737   26.5092 C   0  0  0  0  0  0  0  0  0  0  0  0
    7.4567   -6.9464   27.2858 C   0  0  0  0  0  0  0  0  0  0  0  0
    0.1921   -5.7592   27.1123 C   0  0  0  0  0  0  0  0  0  0  0  0
    3.5517   -7.7407   25.9711 C   0  0  0  0  0  0  0  0  0  0  0  0
  1  4  4  0
  1 22  4  0
  2 20  4  0
  2 27  4  0
  3 12  4  0
  3 23  4  0
  4 25  4  0
  4 28  1  0
  5  8  4  0
  5 17  4  0
  6  7  4  0
  6 16  4  0
  7 18  4  0
  8 27  4  0
  9 13  4  0
  9 23  4  0
 10 11  1  0
 11 14  2  0
 11 27  1  0
 12 19  1  0
 12 24  4  0
 13 24  4  0
 15 18  1  0
 16 25  4  0
 16 26  4  0
 17 20  4  0
 17 28  1  0
 18 21  4  0
 21 26  4  0
 22 26  4  0
M  END
$$$$

 Created by Python create_sdf_string function

 28 30  0  0  0  0  0  0  0  0999 V2000
    5.7174   -8.4529   26.7190 C   0  0  0  0  0  0  0  0  0  0  0  0
    0.3974   -7.0711   27.5149 C   0  0  0  0  0  0  0  0  0  0  0  0
    2.5338   -7.6891   16.0102 C   0  0  0  0  0  0  0  0  0  0  0  0
    4.8690   -7.4380   26.4151 C   0  0  0  0  0  0  0  0  0  0  0  0
    2.3021   -5.6726   26.0378 C   0  0  0  0  0  0  0  0  0  0  0  0
    7.0880   -4.6163   27.0010 C   0  0  0  0  0  0  0  0  0  0  0  0
    8.3117   -4.3698   27.4436 C   0  0  0  0  0  0  0  0  0  0  0  0
    1.1339   -5.0515   26.3541 C   0  0  0  0  0  0  0  0  0  0  0  0
    4.8080   -8.0362   16.7101 C   0  0  0  0  0  0  0  0  0  0  0  0
   -1.2173   -3.9294   26.9717 O   0  0  0  0  0  0  0  0  0  0  0  0
   -1.0025   -5.0942   27.4586 C   0  0  0  0  0  0  0  0  0  0  0  0
    2.2474   -8.9123   16.6273 C   0  0  0  0  0  0  0  0  0  0  0  0
    4.4957   -9.2636   17.3041 C   0  0  0  0  0  0  0  0  0  0  0  0
   -1.8070   -5.6086   28.1920 O   0  0  0  0  0  0  0  0  0  0  0  0
   10.4296   -5.1799   28.3140 C   0  0  0  0  0  0  0  0  0  0  0  0
    6.6017   -5.9004   26.9187 C   0  0  0  0  0  0  0  0  0  0  0  0
    2.4761   -6.9940   26.4111 N   0  0  0  0  0  0  0  0  0  0  0  0
    9.1353   -5.4053   27.8239 C   0  0  0  0  0  0  0  0  0  0  0  0
    0.9922   -9.3232   16.5995 O   0  0  0  0  0  0  0  0  0  0  0  0
    1.5232   -7.6869   27.1182 C   0  0  0  0  0  0  0  0  0  0  0  0
    8.6878   -6.6715   27.7262 N   0  0  0  0  0  0  0  0  0  0  0  0
    6.9911   -8.2423   27.1808 C   0  0  0  0  0  0  0  0  0  0  0  0
    3.8436   -7.2758   16.0578 C   0  0  0  0  0  0  0  0  0  0  0  0
    3.1882   -9.7190   17.2566 C   0  0  0  0  0  0  0  0  0  0  0  0
    5.3488   -6.1737   26.5092 C   0  0  0  0  0  0  0  0  0  0  0  0
    7.4567   -6.9464   27.2858 C   0  0  0  0  0  0  0  0  0  0  0  0
    0.1921   -5.7592   27.1123 C   0  0  0  0  0  0  0  0  0  0  0  0
    3.5517   -7.7407   25.9711 C   0  0  0  0  0  0  0  0  0  0  0  0
  1  4  4  0
  1 22  4  0
  2 20  4  0
  2 27  4  0
  3 12  4  0
  3 23  4  0
  4 25  4  0
  4 28  1  0
  5  8  4  0
  5 17  4  0
  6  7  4  0
  6 16  4  0
  7 18  4  0
  8 27  4  0
  9 13  4  0
  9 23  4  0
 10 11  1  0
 11 14  2  0
 11 27  1  0
 12 19  1  0
 12 24  4  0
 13 24  4  0
 15 18  1  0
 16 25  4  0
 16 26  4  0
 17 20  4  0
 17 28  1  0
 18 21  4  0
 21 26  4  0
 22 26  4  0
M  END
$$$$

 Created by Python create_sdf_string function

 28 30  0  0  0  0  0  0  0  0999 V2000
    5.7174   -8.4529   26.7190 C   0  0  0  0  0  0  0  0  0  0  0  0
    0.3974   -7.0711   27.5149 C   0  0  0  0  0  0  0  0  0  0  0  0
    2.5338   -7.6891   16.0102 C   0  0  0  0  0  0  0  0  0  0  0  0
    4.8690   -7.4380   26.4151 C   0  0  0  0  0  0  0  0  0  0  0  0
    2.3021   -5.6726   26.0378 C   0  0  0  0  0  0  0  0  0  0  0  0
    7.0880   -4.6163   27.0010 C   0  0  0  0  0  0  0  0  0  0  0  0
    8.3117   -4.3698   27.4436 C   0  0  0  0  0  0  0  0  0  0  0  0
    1.1339   -5.0515   26.3541 C   0  0  0  0  0  0  0  0  0  0  0  0
    4.8080   -8.0362   16.7101 C   0  0  0  0  0  0  0  0  0  0  0  0
   -1.2173   -3.9294   26.9717 O   0  0  0  0  0  0  0  0  0  0  0  0
   -1.0025   -5.0942   27.4586 C   0  0  0  0  0  0  0  0  0  0  0  0
    2.2474   -8.9123   16.6273 C   0  0  0  0  0  0  0  0  0  0  0  0
    4.4957   -9.2636   17.3041 C   0  0  0  0  0  0  0  0  0  0  0  0
   -1.8070   -5.6086   28.1920 O   0  0  0  0  0  0  0  0  0  0  0  0
   10.4296   -5.1799   28.3140 C   0  0  0  0  0  0  0  0  0  0  0  0
    6.6017   -5.9004   26.9187 C   0  0  0  0  0  0  0  0  0  0  0  0
    2.4761   -6.9940   26.4111 N   0  0  0  0  0  0  0  0  0  0  0  0
    9.1353   -5.4053   27.8239 C   0  0  0  0  0  0  0  0  0  0  0  0
    0.9922   -9.3232   16.5995 O   0  0  0  0  0  0  0  0  0  0  0  0
    1.5232   -7.6869   27.1182 C   0  0  0  0  0  0  0  0  0  0  0  0
    8.6878   -6.6715   27.7262 N   0  0  0  0  0  0  0  0  0  0  0  0
    6.9911   -8.2423   27.1808 C   0  0  0  0  0  0  0  0  0  0  0  0
    3.8436   -7.2758   16.0578 C   0  0  0  0  0  0  0  0  0  0  0  0
    3.1882   -9.7190   17.2566 C   0  0  0  0  0  0  0  0  0  0  0  0
    5.3488   -6.1737   26.5092 C   0  0  0  0  0  0  0  0  0  0  0  0
    7.4567   -6.9464   27.2858 C   0  0  0  0  0  0  0  0  0  0  0  0
    0.1921   -5.7592   27.1123 C   0  0  0  0  0  0  0  0  0  0  0  0
    3.5517   -7.7407   25.9711 C   0  0  0  0  0  0  0  0  0  0  0  0
  1  4  4  0
  1 22  4  0
  2 20  4  0
  2 27  4  0
  3 12  4  0
  3 23  4  0
  4 25  4  0
  4 28  1  0
  5  8  4  0
  5 17  4  0
  6  7  4  0
  6 16  4  0
  7 18  4  0
  8 27  4  0
  9 13  4  0
  9 23  4  0
 10 11  1  0
 11 14  2  0
 11 27  1  0
 12 19  1  0
 12 24  4  0
 13 24  4  0
 15 18  1  0
 16 25  4  0
 16 26  4  0
 17 20  4  0
 17 28  1  0
 18 21  4  0
 21 26  4  0
 22 26  4  0
M  END
$$$$

 Created by Python create_sdf_string function

 28 30  0  0  0  0  0  0  0  0999 V2000
    5.7174   -8.4529   26.7190 C   0  0  0  0  0  0  0  0  0  0  0  0
    0.3974   -7.0711   27.5149 C   0  0  0  0  0  0  0  0  0  0  0  0
    2.5338   -7.6891   16.0102 C   0  0  0  0  0  0  0  0  0  0  0  0
    4.8690   -7.4380   26.4151 C   0  0  0  0  0  0  0  0  0  0  0  0
    2.3021   -5.6726   26.0378 C   0  0  0  0  0  0  0  0  0  0  0  0
    7.0880   -4.6163   27.0010 C   0  0  0  0  0  0  0  0  0  0  0  0
    8.3117   -4.3698   27.4436 C   0  0  0  0  0  0  0  0  0  0  0  0
    1.1339   -5.0515   26.3541 C   0  0  0  0  0  0  0  0  0  0  0  0
    4.8080   -8.0362   16.7101 C   0  0  0  0  0  0  0  0  0  0  0  0
   -1.2173   -3.9294   26.9717 O   0  0  0  0  0  0  0  0  0  0  0  0
   -1.0025   -5.0942   27.4586 C   0  0  0  0  0  0  0  0  0  0  0  0
    2.2474   -8.9123   16.6273 C   0  0  0  0  0  0  0  0  0  0  0  0
    4.4957   -9.2636   17.3041 C   0  0  0  0  0  0  0  0  0  0  0  0
   -1.8070   -5.6086   28.1920 O   0  0  0  0  0  0  0  0  0  0  0  0
   10.4296   -5.1799   28.3140 C   0  0  0  0  0  0  0  0  0  0  0  0
    6.6017   -5.9004   26.9187 C   0  0  0  0  0  0  0  0  0  0  0  0
    2.4761   -6.9940   26.4111 N   0  0  0  0  0  0  0  0  0  0  0  0
    9.1353   -5.4053   27.8239 C   0  0  0  0  0  0  0  0  0  0  0  0
    0.9922   -9.3232   16.5995 O   0  0  0  0  0  0  0  0  0  0  0  0
    1.5232   -7.6869   27.1182 C   0  0  0  0  0  0  0  0  0  0  0  0
    8.6878   -6.6715   27.7262 N   0  0  0  0  0  0  0  0  0  0  0  0
    6.9911   -8.2423   27.1808 C   0  0  0  0  0  0  0  0  0  0  0  0
    3.8436   -7.2758   16.0578 C   0  0  0  0  0  0  0  0  0  0  0  0
    3.1882   -9.7190   17.2566 C   0  0  0  0  0  0  0  0  0  0  0  0
    5.3488   -6.1737   26.5092 C   0  0  0  0  0  0  0  0  0  0  0  0
    7.4567   -6.9464   27.2858 C   0  0  0  0  0  0  0  0  0  0  0  0
    0.1921   -5.7592   27.1123 C   0  0  0  0  0  0  0  0  0  0  0  0
    3.5517   -7.7407   25.9711 C   0  0  0  0  0  0  0  0  0  0  0  0
  1  4  4  0
  1 22  4  0
  2 20  4  0
  2 27  4  0
  3 12  4  0
  3 23  4  0
  4 25  4  0
  4 28  1  0
  5  8  4  0
  5 17  4  0
  6  7  4  0
  6 16  4  0
  7 18  4  0
  8 27  4  0
  9 13  4  0
  9 23  4  0
 10 11  1  0
 11 14  2  0
 11 27  1  0
 12 19  1  0
 12 24  4  0
 13 24  4  0
 15 18  1  0
 16 25  4  0
 16 26  4  0
 17 20  4  0
 17 28  1  0
 18 21  4  0
 21 26  4  0
 22 26  4  0
M  END
$$$$

 Created by Python create_sdf_string function

 28 30  0  0  0  0  0  0  0  0999 V2000
    5.7174   -8.4529   26.7190 C   0  0  0  0  0  0  0  0  0  0  0  0
    0.3974   -7.0711   27.5149 C   0  0  0  0  0  0  0  0  0  0  0  0
    2.5338   -7.6891   16.0102 C   0  0  0  0  0  0  0  0  0  0  0  0
    4.8690   -7.4380   26.4151 C   0  0  0  0  0  0  0  0  0  0  0  0
    2.3021   -5.6726   26.0378 C   0  0  0  0  0  0  0  0  0  0  0  0
    7.0880   -4.6163   27.0010 C   0  0  0  0  0  0  0  0  0  0  0  0
    8.3117   -4.3698   27.4436 C   0  0  0  0  0  0  0  0  0  0  0  0
    1.1339   -5.0515   26.3541 C   0  0  0  0  0  0  0  0  0  0  0  0
    4.8080   -8.0362   16.7101 C   0  0  0  0  0  0  0  0  0  0  0  0
   -1.2173   -3.9294   26.9717 O   0  0  0  0  0  0  0  0  0  0  0  0
   -1.0025   -5.0942   27.4586 C   0  0  0  0  0  0  0  0  0  0  0  0
    2.2474   -8.9123   16.6273 C   0  0  0  0  0  0  0  0  0  0  0  0
    4.4957   -9.2636   17.3041 C   0  0  0  0  0  0  0  0  0  0  0  0
   -1.8070   -5.6086   28.1920 O   0  0  0  0  0  0  0  0  0  0  0  0
   10.4296   -5.1799   28.3140 C   0  0  0  0  0  0  0  0  0  0  0  0
    6.6017   -5.9004   26.9187 C   0  0  0  0  0  0  0  0  0  0  0  0
    2.4761   -6.9940   26.4111 N   0  0  0  0  0  0  0  0  0  0  0  0
    9.1353   -5.4053   27.8239 C   0  0  0  0  0  0  0  0  0  0  0  0
    0.9922   -9.3232   16.5995 O   0  0  0  0  0  0  0  0  0  0  0  0
    1.5232   -7.6869   27.1182 C   0  0  0  0  0  0  0  0  0  0  0  0
    8.6878   -6.6715   27.7262 N   0  0  0  0  0  0  0  0  0  0  0  0
    6.9911   -8.2423   27.1808 C   0  0  0  0  0  0  0  0  0  0  0  0
    3.8436   -7.2758   16.0578 C   0  0  0  0  0  0  0  0  0  0  0  0
    3.1882   -9.7190   17.2566 C   0  0  0  0  0  0  0  0  0  0  0  0
    5.3488   -6.1737   26.5092 C   0  0  0  0  0  0  0  0  0  0  0  0
    7.4567   -6.9464   27.2858 C   0  0  0  0  0  0  0  0  0  0  0  0
    0.1921   -5.7592   27.1123 C   0  0  0  0  0  0  0  0  0  0  0  0
    3.5517   -7.7407   25.9711 C   0  0  0  0  0  0  0  0  0  0  0  0
  1  4  4  0
  1 22  4  0
  2 20  4  0
  2 27  4  0
  3 12  4  0
  3 23  4  0
  4 25  4  0
  4 28  1  0
  5  8  4  0
  5 17  4  0
  6  7  4  0
  6 16  4  0
  7 18  4  0
  8 27  4  0
  9 13  4  0
  9 23  4  0
 10 11  1  0
 11 14  2  0
 11 27  1  0
 12 19  1  0
 12 24  4  0
 13 24  4  0
 15 18  1  0
 16 25  4  0
 16 26  4  0
 17 20  4  0
 17 28  1  0
 18 21  4  0
 21 26  4  0
 22 26  4  0
M  END
$$$$

 Created by Python create_sdf_string function

 28 30  0  0  0  0  0  0  0  0999 V2000
    5.7174   -8.4529   26.7190 C   0  0  0  0  0  0  0  0  0  0  0  0
    0.3974   -7.0711   27.5149 C   0  0  0  0  0  0  0  0  0  0  0  0
    2.5338   -7.6891   16.0102 C   0  0  0  0  0  0  0  0  0  0  0  0
    4.8690   -7.4380   26.4151 C   0  0  0  0  0  0  0  0  0  0  0  0
    2.3021   -5.6726   26.0378 C   0  0  0  0  0  0  0  0  0  0  0  0
    7.0880   -4.6163   27.0010 C   0  0  0  0  0  0  0  0  0  0  0  0
    8.3117   -4.3698   27.4436 C   0  0  0  0  0  0  0  0  0  0  0  0
    1.1339   -5.0515   26.3541 C   0  0  0  0  0  0  0  0  0  0  0  0
    4.8080   -8.0362   16.7101 C   0  0  0  0  0  0  0  0  0  0  0  0
   -1.2173   -3.9294   26.9717 O   0  0  0  0  0  0  0  0  0  0  0  0
   -1.0025   -5.0942   27.4586 C   0  0  0  0  0  0  0  0  0  0  0  0
    2.2474   -8.9123   16.6273 C   0  0  0  0  0  0  0  0  0  0  0  0
    4.4957   -9.2636   17.3041 C   0  0  0  0  0  0  0  0  0  0  0  0
   -1.8070   -5.6086   28.1920 O   0  0  0  0  0  0  0  0  0  0  0  0
   10.4296   -5.1799   28.3140 C   0  0  0  0  0  0  0  0  0  0  0  0
    6.6017   -5.9004   26.9187 C   0  0  0  0  0  0  0  0  0  0  0  0
    2.4761   -6.9940   26.4111 N   0  0  0  0  0  0  0  0  0  0  0  0
    9.1353   -5.4053   27.8239 C   0  0  0  0  0  0  0  0  0  0  0  0
    0.9922   -9.3232   16.5995 O   0  0  0  0  0  0  0  0  0  0  0  0
    1.5232   -7.6869   27.1182 C   0  0  0  0  0  0  0  0  0  0  0  0
    8.6878   -6.6715   27.7262 N   0  0  0  0  0  0  0  0  0  0  0  0
    6.9911   -8.2423   27.1808 C   0  0  0  0  0  0  0  0  0  0  0  0
    3.8436   -7.2758   16.0578 C   0  0  0  0  0  0  0  0  0  0  0  0
    3.1882   -9.7190   17.2566 C   0  0  0  0  0  0  0  0  0  0  0  0
    5.3488   -6.1737   26.5092 C   0  0  0  0  0  0  0  0  0  0  0  0
    7.4567   -6.9464   27.2858 C   0  0  0  0  0  0  0  0  0  0  0  0
    0.1921   -5.7592   27.1123 C   0  0  0  0  0  0  0  0  0  0  0  0
    3.5517   -7.7407   25.9711 C   0  0  0  0  0  0  0  0  0  0  0  0
  1  4  4  0
  1 22  4  0
  2 20  4  0
  2 27  4  0
  3 12  4  0
  3 23  4  0
  4 25  4  0
  4 28  1  0
  5  8  4  0
  5 17  4  0
  6  7  4  0
  6 16  4  0
  7 18  4  0
  8 27  4  0
  9 13  4  0
  9 23  4  0
 10 11  1  0
 11 14  2  0
 11 27  1  0
 12 19  1  0
 12 24  4  0
 13 24  4  0
 15 18  1  0
 16 25  4  0
 16 26  4  0
 17 20  4  0
 17 28  1  0
 18 21  4  0
 21 26  4  0
 22 26  4  0
M  END
$$$$

 Created by Python create_sdf_string function

 28 30  0  0  0  0  0  0  0  0999 V2000
    5.7174   -8.4529   26.7190 C   0  0  0  0  0  0  0  0  0  0  0  0
    0.3974   -7.0711   27.5149 C   0  0  0  0  0  0  0  0  0  0  0  0
    2.5338   -7.6891   16.0102 C   0  0  0  0  0  0  0  0  0  0  0  0
    4.8690   -7.4380   26.4151 C   0  0  0  0  0  0  0  0  0  0  0  0
    2.3021   -5.6726   26.0378 C   0  0  0  0  0  0  0  0  0  0  0  0
    7.0880   -4.6163   27.0010 C   0  0  0  0  0  0  0  0  0  0  0  0
    8.3117   -4.3698   27.4436 C   0  0  0  0  0  0  0  0  0  0  0  0
    1.1339   -5.0515   26.3541 C   0  0  0  0  0  0  0  0  0  0  0  0
    4.8080   -8.0362   16.7101 C   0  0  0  0  0  0  0  0  0  0  0  0
   -1.2173   -3.9294   26.9717 O   0  0  0  0  0  0  0  0  0  0  0  0
   -1.0025   -5.0942   27.4586 C   0  0  0  0  0  0  0  0  0  0  0  0
    2.2474   -8.9123   16.6273 C   0  0  0  0  0  0  0  0  0  0  0  0
    4.4957   -9.2636   17.3041 C   0  0  0  0  0  0  0  0  0  0  0  0
   -1.8070   -5.6086   28.1920 O   0  0  0  0  0  0  0  0  0  0  0  0
   10.4296   -5.1799   28.3140 C   0  0  0  0  0  0  0  0  0  0  0  0
    6.6017   -5.9004   26.9187 C   0  0  0  0  0  0  0  0  0  0  0  0
    2.4761   -6.9940   26.4111 N   0  0  0  0  0  0  0  0  0  0  0  0
    9.1353   -5.4053   27.8239 C   0  0  0  0  0  0  0  0  0  0  0  0
    0.9922   -9.3232   16.5995 O   0  0  0  0  0  0  0  0  0  0  0  0
    1.5232   -7.6869   27.1182 C   0  0  0  0  0  0  0  0  0  0  0  0
    8.6878   -6.6715   27.7262 N   0  0  0  0  0  0  0  0  0  0  0  0
    6.9911   -8.2423   27.1808 C   0  0  0  0  0  0  0  0  0  0  0  0
    3.8436   -7.2758   16.0578 C   0  0  0  0  0  0  0  0  0  0  0  0
    3.1882   -9.7190   17.2566 C   0  0  0  0  0  0  0  0  0  0  0  0
    5.3488   -6.1737   26.5092 C   0  0  0  0  0  0  0  0  0  0  0  0
    7.4567   -6.9464   27.2858 C   0  0  0  0  0  0  0  0  0  0  0  0
    0.1921   -5.7592   27.1123 C   0  0  0  0  0  0  0  0  0  0  0  0
    3.5517   -7.7407   25.9711 C   0  0  0  0  0  0  0  0  0  0  0  0
  1  4  4  0
  1 22  4  0
  2 20  4  0
  2 27  4  0
  3 12  4  0
  3 23  4  0
  4 25  4  0
  4 28  1  0
  5  8  4  0
  5 17  4  0
  6  7  4  0
  6 16  4  0
  7 18  4  0
  8 27  4  0
  9 13  4  0
  9 23  4  0
 10 11  1  0
 11 14  2  0
 11 27  1  0
 12 19  1  0
 12 24  4  0
 13 24  4  0
 15 18  1  0
 16 25  4  0
 16 26  4  0
 17 20  4  0
 17 28  1  0
 18 21  4  0
 21 26  4  0
 22 26  4  0
M  END
$$$$

 Created by Python create_sdf_string function

 28 30  0  0  0  0  0  0  0  0999 V2000
    5.7174   -8.4529   26.7190 C   0  0  0  0  0  0  0  0  0  0  0  0
    0.3974   -7.0711   27.5149 C   0  0  0  0  0  0  0  0  0  0  0  0
    2.5338   -7.6891   16.0102 C   0  0  0  0  0  0  0  0  0  0  0  0
    4.8690   -7.4380   26.4151 C   0  0  0  0  0  0  0  0  0  0  0  0
    2.3021   -5.6726   26.0378 C   0  0  0  0  0  0  0  0  0  0  0  0
    7.0880   -4.6163   27.0010 C   0  0  0  0  0  0  0  0  0  0  0  0
    8.3117   -4.3698   27.4436 C   0  0  0  0  0  0  0  0  0  0  0  0
    1.1339   -5.0515   26.3541 C   0  0  0  0  0  0  0  0  0  0  0  0
    4.8080   -8.0362   16.7101 C   0  0  0  0  0  0  0  0  0  0  0  0
   -1.2173   -3.9294   26.9717 O   0  0  0  0  0  0  0  0  0  0  0  0
   -1.0025   -5.0942   27.4586 C   0  0  0  0  0  0  0  0  0  0  0  0
    2.2474   -8.9123   16.6273 C   0  0  0  0  0  0  0  0  0  0  0  0
    4.4957   -9.2636   17.3041 C   0  0  0  0  0  0  0  0  0  0  0  0
   -1.8070   -5.6086   28.1920 O   0  0  0  0  0  0  0  0  0  0  0  0
   10.4296   -5.1799   28.3140 C   0  0  0  0  0  0  0  0  0  0  0  0
    6.6017   -5.9004   26.9187 C   0  0  0  0  0  0  0  0  0  0  0  0
    2.4761   -6.9940   26.4111 N   0  0  0  0  0  0  0  0  0  0  0  0
    9.1353   -5.4053   27.8239 C   0  0  0  0  0  0  0  0  0  0  0  0
    0.9922   -9.3232   16.5995 O   0  0  0  0  0  0  0  0  0  0  0  0
    1.5232   -7.6869   27.1182 C   0  0  0  0  0  0  0  0  0  0  0  0
    8.6878   -6.6715   27.7262 N   0  0  0  0  0  0  0  0  0  0  0  0
    6.9911   -8.2423   27.1808 C   0  0  0  0  0  0  0  0  0  0  0  0
    3.8436   -7.2758   16.0578 C   0  0  0  0  0  0  0  0  0  0  0  0
    3.1882   -9.7190   17.2566 C   0  0  0  0  0  0  0  0  0  0  0  0
    5.3488   -6.1737   26.5092 C   0  0  0  0  0  0  0  0  0  0  0  0
    7.4567   -6.9464   27.2858 C   0  0  0  0  0  0  0  0  0  0  0  0
    0.1921   -5.7592   27.1123 C   0  0  0  0  0  0  0  0  0  0  0  0
    3.5517   -7.7407   25.9711 C   0  0  0  0  0  0  0  0  0  0  0  0
  1  4  4  0
  1 22  4  0
  2 20  4  0
  2 27  4  0
  3 12  4  0
  3 23  4  0
  4 25  4  0
  4 28  1  0
  5  8  4  0
  5 17  4  0
  6  7  4  0
  6 16  4  0
  7 18  4  0
  8 27  4  0
  9 13  4  0
  9 23  4  0
 10 11  1  0
 11 14  2  0
 11 27  1  0
 12 19  1  0
 12 24  4  0
 13 24  4  0
 15 18  1  0
 16 25  4  0
 16 26  4  0
 17 20  4  0
 17 28  1  0
 18 21  4  0
 21 26  4  0
 22 26  4  0
M  END
$$$$

 Created by Python create_sdf_string function

 28 30  0  0  0  0  0  0  0  0999 V2000
    5.7174   -8.4529   26.7190 C   0  0  0  0  0  0  0  0  0  0  0  0
    0.3974   -7.0711   27.5149 C   0  0  0  0  0  0  0  0  0  0  0  0
    2.5338   -7.6891   16.0102 C   0  0  0  0  0  0  0  0  0  0  0  0
    4.8690   -7.4380   26.4151 C   0  0  0  0  0  0  0  0  0  0  0  0
    2.3021   -5.6726   26.0378 C   0  0  0  0  0  0  0  0  0  0  0  0
    7.0880   -4.6163   27.0010 C   0  0  0  0  0  0  0  0  0  0  0  0
    8.3117   -4.3698   27.4436 C   0  0  0  0  0  0  0  0  0  0  0  0
    1.1339   -5.0515   26.3541 C   0  0  0  0  0  0  0  0  0  0  0  0
    4.8080   -8.0362   16.7101 C   0  0  0  0  0  0  0  0  0  0  0  0
   -1.2173   -3.9294   26.9717 O   0  0  0  0  0  0  0  0  0  0  0  0
   -1.0025   -5.0942   27.4586 C   0  0  0  0  0  0  0  0  0  0  0  0
    2.2474   -8.9123   16.6273 C   0  0  0  0  0  0  0  0  0  0  0  0
    4.4957   -9.2636   17.3041 C   0  0  0  0  0  0  0  0  0  0  0  0
   -1.8070   -5.6086   28.1920 O   0  0  0  0  0  0  0  0  0  0  0  0
   10.4296   -5.1799   28.3140 C   0  0  0  0  0  0  0  0  0  0  0  0
    6.6017   -5.9004   26.9187 C   0  0  0  0  0  0  0  0  0  0  0  0
    2.4761   -6.9940   26.4111 N   0  0  0  0  0  0  0  0  0  0  0  0
    9.1353   -5.4053   27.8239 C   0  0  0  0  0  0  0  0  0  0  0  0
    0.9922   -9.3232   16.5995 O   0  0  0  0  0  0  0  0  0  0  0  0
    1.5232   -7.6869   27.1182 C   0  0  0  0  0  0  0  0  0  0  0  0
    8.6878   -6.6715   27.7262 N   0  0  0  0  0  0  0  0  0  0  0  0
    6.9911   -8.2423   27.1808 C   0  0  0  0  0  0  0  0  0  0  0  0
    3.8436   -7.2758   16.0578 C   0  0  0  0  0  0  0  0  0  0  0  0
    3.1882   -9.7190   17.2566 C   0  0  0  0  0  0  0  0  0  0  0  0
    5.3488   -6.1737   26.5092 C   0  0  0  0  0  0  0  0  0  0  0  0
    7.4567   -6.9464   27.2858 C   0  0  0  0  0  0  0  0  0  0  0  0
    0.1921   -5.7592   27.1123 C   0  0  0  0  0  0  0  0  0  0  0  0
    3.5517   -7.7407   25.9711 C   0  0  0  0  0  0  0  0  0  0  0  0
  1  4  4  0
  1 22  4  0
  2 20  4  0
  2 27  4  0
  3 12  4  0
  3 23  4  0
  4 25  4  0
  4 28  1  0
  5  8  4  0
  5 17  4  0
  6  7  4  0
  6 16  4  0
  7 18  4  0
  8 27  4  0
  9 13  4  0
  9 23  4  0
 10 11  1  0
 11 14  2  0
 11 27  1  0
 12 19  1  0
 12 24  4  0
 13 24  4  0
 15 18  1  0
 16 25  4  0
 16 26  4  0
 17 20  4  0
 17 28  1  0
 18 21  4  0
 21 26  4  0
 22 26  4  0
M  END
$$$$

 Created by Python create_sdf_string function

 28 30  0  0  0  0  0  0  0  0999 V2000
    5.7174   -8.4529   26.7190 C   0  0  0  0  0  0  0  0  0  0  0  0
    0.3974   -7.0711   27.5149 C   0  0  0  0  0  0  0  0  0  0  0  0
    2.5338   -7.6891   16.0102 C   0  0  0  0  0  0  0  0  0  0  0  0
    4.8690   -7.4380   26.4151 C   0  0  0  0  0  0  0  0  0  0  0  0
    2.3021   -5.6726   26.0378 C   0  0  0  0  0  0  0  0  0  0  0  0
    7.0880   -4.6163   27.0010 C   0  0  0  0  0  0  0  0  0  0  0  0
    8.3117   -4.3698   27.4436 C   0  0  0  0  0  0  0  0  0  0  0  0
    1.1339   -5.0515   26.3541 C   0  0  0  0  0  0  0  0  0  0  0  0
    4.8080   -8.0362   16.7101 C   0  0  0  0  0  0  0  0  0  0  0  0
   -1.2173   -3.9294   26.9717 O   0  0  0  0  0  0  0  0  0  0  0  0
   -1.0025   -5.0942   27.4586 C   0  0  0  0  0  0  0  0  0  0  0  0
    2.2474   -8.9123   16.6273 C   0  0  0  0  0  0  0  0  0  0  0  0
    4.4957   -9.2636   17.3041 C   0  0  0  0  0  0  0  0  0  0  0  0
   -1.8070   -5.6086   28.1920 O   0  0  0  0  0  0  0  0  0  0  0  0
   10.4296   -5.1799   28.3140 C   0  0  0  0  0  0  0  0  0  0  0  0
    6.6017   -5.9004   26.9187 C   0  0  0  0  0  0  0  0  0  0  0  0
    2.4761   -6.9940   26.4111 N   0  0  0  0  0  0  0  0  0  0  0  0
    9.1353   -5.4053   27.8239 C   0  0  0  0  0  0  0  0  0  0  0  0
    0.9922   -9.3232   16.5995 O   0  0  0  0  0  0  0  0  0  0  0  0
    1.5232   -7.6869   27.1182 C   0  0  0  0  0  0  0  0  0  0  0  0
    8.6878   -6.6715   27.7262 N   0  0  0  0  0  0  0  0  0  0  0  0
    6.9911   -8.2423   27.1808 C   0  0  0  0  0  0  0  0  0  0  0  0
    3.8436   -7.2758   16.0578 C   0  0  0  0  0  0  0  0  0  0  0  0
    3.1882   -9.7190   17.2566 C   0  0  0  0  0  0  0  0  0  0  0  0
    5.3488   -6.1737   26.5092 C   0  0  0  0  0  0  0  0  0  0  0  0
    7.4567   -6.9464   27.2858 C   0  0  0  0  0  0  0  0  0  0  0  0
    0.1921   -5.7592   27.1123 C   0  0  0  0  0  0  0  0  0  0  0  0
    3.5517   -7.7407   25.9711 C   0  0  0  0  0  0  0  0  0  0  0  0
  1  4  4  0
  1 22  4  0
  2 20  4  0
  2 27  4  0
  3 12  4  0
  3 23  4  0
  4 25  4  0
  4 28  1  0
  5  8  4  0
  5 17  4  0
  6  7  4  0
  6 16  4  0
  7 18  4  0
  8 27  4  0
  9 13  4  0
  9 23  4  0
 10 11  1  0
 11 14  2  0
 11 27  1  0
 12 19  1  0
 12 24  4  0
 13 24  4  0
 15 18  1  0
 16 25  4  0
 16 26  4  0
 17 20  4  0
 17 28  1  0
 18 21  4  0
 21 26  4  0
 22 26  4  0
M  END
$$$$

 Created by Python create_sdf_string function

 28 30  0  0  0  0  0  0  0  0999 V2000
    5.7174   -8.4529   26.7190 C   0  0  0  0  0  0  0  0  0  0  0  0
    0.3974   -7.0711   27.5149 C   0  0  0  0  0  0  0  0  0  0  0  0
    2.5338   -7.6891   16.0102 C   0  0  0  0  0  0  0  0  0  0  0  0
    4.8690   -7.4380   26.4151 C   0  0  0  0  0  0  0  0  0  0  0  0
    2.3021   -5.6726   26.0378 C   0  0  0  0  0  0  0  0  0  0  0  0
    7.0880   -4.6163   27.0010 C   0  0  0  0  0  0  0  0  0  0  0  0
    8.3117   -4.3698   27.4436 C   0  0  0  0  0  0  0  0  0  0  0  0
    1.1339   -5.0515   26.3541 C   0  0  0  0  0  0  0  0  0  0  0  0
    4.8080   -8.0362   16.7101 C   0  0  0  0  0  0  0  0  0  0  0  0
   -1.2173   -3.9294   26.9717 O   0  0  0  0  0  0  0  0  0  0  0  0
   -1.0025   -5.0942   27.4586 C   0  0  0  0  0  0  0  0  0  0  0  0
    2.2474   -8.9123   16.6273 C   0  0  0  0  0  0  0  0  0  0  0  0
    4.4957   -9.2636   17.3041 C   0  0  0  0  0  0  0  0  0  0  0  0
   -1.8070   -5.6086   28.1920 O   0  0  0  0  0  0  0  0  0  0  0  0
   10.4296   -5.1799   28.3140 C   0  0  0  0  0  0  0  0  0  0  0  0
    6.6017   -5.9004   26.9187 C   0  0  0  0  0  0  0  0  0  0  0  0
    2.4761   -6.9940   26.4111 N   0  0  0  0  0  0  0  0  0  0  0  0
    9.1353   -5.4053   27.8239 C   0  0  0  0  0  0  0  0  0  0  0  0
    0.9922   -9.3232   16.5995 O   0  0  0  0  0  0  0  0  0  0  0  0
    1.5232   -7.6869   27.1182 C   0  0  0  0  0  0  0  0  0  0  0  0
    8.6878   -6.6715   27.7262 N   0  0  0  0  0  0  0  0  0  0  0  0
    6.9911   -8.2423   27.1808 C   0  0  0  0  0  0  0  0  0  0  0  0
    3.8436   -7.2758   16.0578 C   0  0  0  0  0  0  0  0  0  0  0  0
    3.1882   -9.7190   17.2566 C   0  0  0  0  0  0  0  0  0  0  0  0
    5.3488   -6.1737   26.5092 C   0  0  0  0  0  0  0  0  0  0  0  0
    7.4567   -6.9464   27.2858 C   0  0  0  0  0  0  0  0  0  0  0  0
    0.1921   -5.7592   27.1123 C   0  0  0  0  0  0  0  0  0  0  0  0
    3.5517   -7.7407   25.9711 C   0  0  0  0  0  0  0  0  0  0  0  0
  1  4  4  0
  1 22  4  0
  2 20  4  0
  2 27  4  0
  3 12  4  0
  3 23  4  0
  4 25  4  0
  4 28  1  0
  5  8  4  0
  5 17  4  0
  6  7  4  0
  6 16  4  0
  7 18  4  0
  8 27  4  0
  9 13  4  0
  9 23  4  0
 10 11  1  0
 11 14  2  0
 11 27  1  0
 12 19  1  0
 12 24  4  0
 13 24  4  0
 15 18  1  0
 16 25  4  0
 16 26  4  0
 17 20  4  0
 17 28  1  0
 18 21  4  0
 21 26  4  0
 22 26  4  0
M  END
$$$$

 Created by Python create_sdf_string function

 28 30  0  0  0  0  0  0  0  0999 V2000
    5.7174   -8.4529   26.7190 C   0  0  0  0  0  0  0  0  0  0  0  0
    0.3974   -7.0711   27.5149 C   0  0  0  0  0  0  0  0  0  0  0  0
    2.5338   -7.6891   16.0102 C   0  0  0  0  0  0  0  0  0  0  0  0
    4.8690   -7.4380   26.4151 C   0  0  0  0  0  0  0  0  0  0  0  0
    2.3021   -5.6726   26.0378 C   0  0  0  0  0  0  0  0  0  0  0  0
    7.0880   -4.6163   27.0010 C   0  0  0  0  0  0  0  0  0  0  0  0
    8.3117   -4.3698   27.4436 C   0  0  0  0  0  0  0  0  0  0  0  0
    1.1339   -5.0515   26.3541 C   0  0  0  0  0  0  0  0  0  0  0  0
    4.8080   -8.0362   16.7101 C   0  0  0  0  0  0  0  0  0  0  0  0
   -1.2173   -3.9294   26.9717 O   0  0  0  0  0  0  0  0  0  0  0  0
   -1.0025   -5.0942   27.4586 C   0  0  0  0  0  0  0  0  0  0  0  0
    2.2474   -8.9123   16.6273 C   0  0  0  0  0  0  0  0  0  0  0  0
    4.4957   -9.2636   17.3041 C   0  0  0  0  0  0  0  0  0  0  0  0
   -1.8070   -5.6086   28.1920 O   0  0  0  0  0  0  0  0  0  0  0  0
   10.4296   -5.1799   28.3140 C   0  0  0  0  0  0  0  0  0  0  0  0
    6.6017   -5.9004   26.9187 C   0  0  0  0  0  0  0  0  0  0  0  0
    2.4761   -6.9940   26.4111 N   0  0  0  0  0  0  0  0  0  0  0  0
    9.1353   -5.4053   27.8239 C   0  0  0  0  0  0  0  0  0  0  0  0
    0.9922   -9.3232   16.5995 O   0  0  0  0  0  0  0  0  0  0  0  0
    1.5232   -7.6869   27.1182 C   0  0  0  0  0  0  0  0  0  0  0  0
    8.6878   -6.6715   27.7262 N   0  0  0  0  0  0  0  0  0  0  0  0
    6.9911   -8.2423   27.1808 C   0  0  0  0  0  0  0  0  0  0  0  0
    3.8436   -7.2758   16.0578 C   0  0  0  0  0  0  0  0  0  0  0  0
    3.1882   -9.7190   17.2566 C   0  0  0  0  0  0  0  0  0  0  0  0
    5.3488   -6.1737   26.5092 C   0  0  0  0  0  0  0  0  0  0  0  0
    7.4567   -6.9464   27.2858 C   0  0  0  0  0  0  0  0  0  0  0  0
    0.1921   -5.7592   27.1123 C   0  0  0  0  0  0  0  0  0  0  0  0
    3.5517   -7.7407   25.9711 C   0  0  0  0  0  0  0  0  0  0  0  0
  1  4  4  0
  1 22  4  0
  2 20  4  0
  2 27  4  0
  3 12  4  0
  3 23  4  0
  4 25  4  0
  4 28  1  0
  5  8  4  0
  5 17  4  0
  6  7  4  0
  6 16  4  0
  7 18  4  0
  8 27  4  0
  9 13  4  0
  9 23  4  0
 10 11  1  0
 11 14  2  0
 11 27  1  0
 12 19  1  0
 12 24  4  0
 13 24  4  0
 15 18  1  0
 16 25  4  0
 16 26  4  0
 17 20  4  0
 17 28  1  0
 18 21  4  0
 21 26  4  0
 22 26  4  0
M  END
$$$$

 Created by Python create_sdf_string function

 28 30  0  0  0  0  0  0  0  0999 V2000
    5.7174   -8.4529   26.7190 C   0  0  0  0  0  0  0  0  0  0  0  0
    0.3974   -7.0711   27.5149 C   0  0  0  0  0  0  0  0  0  0  0  0
    2.5338   -7.6891   16.0102 C   0  0  0  0  0  0  0  0  0  0  0  0
    4.8690   -7.4380   26.4151 C   0  0  0  0  0  0  0  0  0  0  0  0
    2.3021   -5.6726   26.0378 C   0  0  0  0  0  0  0  0  0  0  0  0
    7.0880   -4.6163   27.0010 C   0  0  0  0  0  0  0  0  0  0  0  0
    8.3117   -4.3698   27.4436 C   0  0  0  0  0  0  0  0  0  0  0  0
    1.1339   -5.0515   26.3541 C   0  0  0  0  0  0  0  0  0  0  0  0
    4.8080   -8.0362   16.7101 C   0  0  0  0  0  0  0  0  0  0  0  0
   -1.2173   -3.9294   26.9717 O   0  0  0  0  0  0  0  0  0  0  0  0
   -1.0025   -5.0942   27.4586 C   0  0  0  0  0  0  0  0  0  0  0  0
    2.2474   -8.9123   16.6273 C   0  0  0  0  0  0  0  0  0  0  0  0
    4.4957   -9.2636   17.3041 C   0  0  0  0  0  0  0  0  0  0  0  0
   -1.8070   -5.6086   28.1920 O   0  0  0  0  0  0  0  0  0  0  0  0
   10.4296   -5.1799   28.3140 C   0  0  0  0  0  0  0  0  0  0  0  0
    6.6017   -5.9004   26.9187 C   0  0  0  0  0  0  0  0  0  0  0  0
    2.4761   -6.9940   26.4111 N   0  0  0  0  0  0  0  0  0  0  0  0
    9.1353   -5.4053   27.8239 C   0  0  0  0  0  0  0  0  0  0  0  0
    0.9922   -9.3232   16.5995 O   0  0  0  0  0  0  0  0  0  0  0  0
    1.5232   -7.6869   27.1182 C   0  0  0  0  0  0  0  0  0  0  0  0
    8.6878   -6.6715   27.7262 N   0  0  0  0  0  0  0  0  0  0  0  0
    6.9911   -8.2423   27.1808 C   0  0  0  0  0  0  0  0  0  0  0  0
    3.8436   -7.2758   16.0578 C   0  0  0  0  0  0  0  0  0  0  0  0
    3.1882   -9.7190   17.2566 C   0  0  0  0  0  0  0  0  0  0  0  0
    5.3488   -6.1737   26.5092 C   0  0  0  0  0  0  0  0  0  0  0  0
    7.4567   -6.9464   27.2858 C   0  0  0  0  0  0  0  0  0  0  0  0
    0.1921   -5.7592   27.1123 C   0  0  0  0  0  0  0  0  0  0  0  0
    3.5517   -7.7407   25.9711 C   0  0  0  0  0  0  0  0  0  0  0  0
  1  4  4  0
  1 22  4  0
  2 20  4  0
  2 27  4  0
  3 12  4  0
  3 23  4  0
  4 25  4  0
  4 28  1  0
  5  8  4  0
  5 17  4  0
  6  7  4  0
  6 16  4  0
  7 18  4  0
  8 27  4  0
  9 13  4  0
  9 23  4  0
 10 11  1  0
 11 14  2  0
 11 27  1  0
 12 19  1  0
 12 24  4  0
 13 24  4  0
 15 18  1  0
 16 25  4  0
 16 26  4  0
 17 20  4  0
 17 28  1  0
 18 21  4  0
 21 26  4  0
 22 26  4  0
M  END
$$$$

 Created by Python create_sdf_string function

 28 30  0  0  0  0  0  0  0  0999 V2000
    5.7174   -8.4529   26.7190 C   0  0  0  0  0  0  0  0  0  0  0  0
    0.3974   -7.0711   27.5149 C   0  0  0  0  0  0  0  0  0  0  0  0
    2.5338   -7.6891   16.0102 C   0  0  0  0  0  0  0  0  0  0  0  0
    4.8690   -7.4380   26.4151 C   0  0  0  0  0  0  0  0  0  0  0  0
    2.3021   -5.6726   26.0378 C   0  0  0  0  0  0  0  0  0  0  0  0
    7.0880   -4.6163   27.0010 C   0  0  0  0  0  0  0  0  0  0  0  0
    8.3117   -4.3698   27.4436 C   0  0  0  0  0  0  0  0  0  0  0  0
    1.1339   -5.0515   26.3541 C   0  0  0  0  0  0  0  0  0  0  0  0
    4.8080   -8.0362   16.7101 C   0  0  0  0  0  0  0  0  0  0  0  0
   -1.2173   -3.9294   26.9717 O   0  0  0  0  0  0  0  0  0  0  0  0
   -1.0025   -5.0942   27.4586 C   0  0  0  0  0  0  0  0  0  0  0  0
    2.2474   -8.9123   16.6273 C   0  0  0  0  0  0  0  0  0  0  0  0
    4.4957   -9.2636   17.3041 C   0  0  0  0  0  0  0  0  0  0  0  0
   -1.8070   -5.6086   28.1920 O   0  0  0  0  0  0  0  0  0  0  0  0
   10.4296   -5.1799   28.3140 C   0  0  0  0  0  0  0  0  0  0  0  0
    6.6017   -5.9004   26.9187 C   0  0  0  0  0  0  0  0  0  0  0  0
    2.4761   -6.9940   26.4111 N   0  0  0  0  0  0  0  0  0  0  0  0
    9.1353   -5.4053   27.8239 C   0  0  0  0  0  0  0  0  0  0  0  0
    0.9922   -9.3232   16.5995 O   0  0  0  0  0  0  0  0  0  0  0  0
    1.5232   -7.6869   27.1182 C   0  0  0  0  0  0  0  0  0  0  0  0
    8.6878   -6.6715   27.7262 N   0  0  0  0  0  0  0  0  0  0  0  0
    6.9911   -8.2423   27.1808 C   0  0  0  0  0  0  0  0  0  0  0  0
    3.8436   -7.2758   16.0578 C   0  0  0  0  0  0  0  0  0  0  0  0
    3.1882   -9.7190   17.2566 C   0  0  0  0  0  0  0  0  0  0  0  0
    5.3488   -6.1737   26.5092 C   0  0  0  0  0  0  0  0  0  0  0  0
    7.4567   -6.9464   27.2858 C   0  0  0  0  0  0  0  0  0  0  0  0
    0.1921   -5.7592   27.1123 C   0  0  0  0  0  0  0  0  0  0  0  0
    3.5517   -7.7407   25.9711 C   0  0  0  0  0  0  0  0  0  0  0  0
  1  4  4  0
  1 22  4  0
  2 20  4  0
  2 27  4  0
  3 12  4  0
  3 23  4  0
  4 25  4  0
  4 28  1  0
  5  8  4  0
  5 17  4  0
  6  7  4  0
  6 16  4  0
  7 18  4  0
  8 27  4  0
  9 13  4  0
  9 23  4  0
 10 11  1  0
 11 14  2  0
 11 27  1  0
 12 19  1  0
 12 24  4  0
 13 24  4  0
 15 18  1  0
 16 25  4  0
 16 26  4  0
 17 20  4  0
 17 28  1  0
 18 21  4  0
 21 26  4  0
 22 26  4  0
M  END
$$$$

 Created by Python create_sdf_string function

 28 30  0  0  0  0  0  0  0  0999 V2000
    5.7174   -8.4529   26.7190 C   0  0  0  0  0  0  0  0  0  0  0  0
    0.3974   -7.0711   27.5149 C   0  0  0  0  0  0  0  0  0  0  0  0
    2.5338   -7.6891   16.0102 C   0  0  0  0  0  0  0  0  0  0  0  0
    4.8690   -7.4380   26.4151 C   0  0  0  0  0  0  0  0  0  0  0  0
    2.3021   -5.6726   26.0378 C   0  0  0  0  0  0  0  0  0  0  0  0
    7.0880   -4.6163   27.0010 C   0  0  0  0  0  0  0  0  0  0  0  0
    8.3117   -4.3698   27.4436 C   0  0  0  0  0  0  0  0  0  0  0  0
    1.1339   -5.0515   26.3541 C   0  0  0  0  0  0  0  0  0  0  0  0
    4.8080   -8.0362   16.7101 C   0  0  0  0  0  0  0  0  0  0  0  0
   -1.2173   -3.9294   26.9717 O   0  0  0  0  0  0  0  0  0  0  0  0
   -1.0025   -5.0942   27.4586 C   0  0  0  0  0  0  0  0  0  0  0  0
    2.2474   -8.9123   16.6273 C   0  0  0  0  0  0  0  0  0  0  0  0
    4.4957   -9.2636   17.3041 C   0  0  0  0  0  0  0  0  0  0  0  0
   -1.8070   -5.6086   28.1920 O   0  0  0  0  0  0  0  0  0  0  0  0
   10.4296   -5.1799   28.3140 C   0  0  0  0  0  0  0  0  0  0  0  0
    6.6017   -5.9004   26.9187 C   0  0  0  0  0  0  0  0  0  0  0  0
    2.4761   -6.9940   26.4111 N   0  0  0  0  0  0  0  0  0  0  0  0
    9.1353   -5.4053   27.8239 C   0  0  0  0  0  0  0  0  0  0  0  0
    0.9922   -9.3232   16.5995 O   0  0  0  0  0  0  0  0  0  0  0  0
    1.5232   -7.6869   27.1182 C   0  0  0  0  0  0  0  0  0  0  0  0
    8.6878   -6.6715   27.7262 N   0  0  0  0  0  0  0  0  0  0  0  0
    6.9911   -8.2423   27.1808 C   0  0  0  0  0  0  0  0  0  0  0  0
    3.8436   -7.2758   16.0578 C   0  0  0  0  0  0  0  0  0  0  0  0
    3.1882   -9.7190   17.2566 C   0  0  0  0  0  0  0  0  0  0  0  0
    5.3488   -6.1737   26.5092 C   0  0  0  0  0  0  0  0  0  0  0  0
    7.4567   -6.9464   27.2858 C   0  0  0  0  0  0  0  0  0  0  0  0
    0.1921   -5.7592   27.1123 C   0  0  0  0  0  0  0  0  0  0  0  0
    3.5517   -7.7407   25.9711 C   0  0  0  0  0  0  0  0  0  0  0  0
  1  4  4  0
  1 22  4  0
  2 20  4  0
  2 27  4  0
  3 12  4  0
  3 23  4  0
  4 25  4  0
  4 28  1  0
  5  8  4  0
  5 17  4  0
  6  7  4  0
  6 16  4  0
  7 18  4  0
  8 27  4  0
  9 13  4  0
  9 23  4  0
 10 11  1  0
 11 14  2  0
 11 27  1  0
 12 19  1  0
 12 24  4  0
 13 24  4  0
 15 18  1  0
 16 25  4  0
 16 26  4  0
 17 20  4  0
 17 28  1  0
 18 21  4  0
 21 26  4  0
 22 26  4  0
M  END
$$$$

 Created by Python create_sdf_string function

 28 30  0  0  0  0  0  0  0  0999 V2000
    5.7174   -8.4529   26.7190 C   0  0  0  0  0  0  0  0  0  0  0  0
    0.3974   -7.0711   27.5149 C   0  0  0  0  0  0  0  0  0  0  0  0
    2.5338   -7.6891   16.0102 C   0  0  0  0  0  0  0  0  0  0  0  0
    4.8690   -7.4380   26.4151 C   0  0  0  0  0  0  0  0  0  0  0  0
    2.3021   -5.6726   26.0378 C   0  0  0  0  0  0  0  0  0  0  0  0
    7.0880   -4.6163   27.0010 C   0  0  0  0  0  0  0  0  0  0  0  0
    8.3117   -4.3698   27.4436 C   0  0  0  0  0  0  0  0  0  0  0  0
    1.1339   -5.0515   26.3541 C   0  0  0  0  0  0  0  0  0  0  0  0
    4.8080   -8.0362   16.7101 C   0  0  0  0  0  0  0  0  0  0  0  0
   -1.2173   -3.9294   26.9717 O   0  0  0  0  0  0  0  0  0  0  0  0
   -1.0025   -5.0942   27.4586 C   0  0  0  0  0  0  0  0  0  0  0  0
    2.2474   -8.9123   16.6273 C   0  0  0  0  0  0  0  0  0  0  0  0
    4.4957   -9.2636   17.3041 C   0  0  0  0  0  0  0  0  0  0  0  0
   -1.8070   -5.6086   28.1920 O   0  0  0  0  0  0  0  0  0  0  0  0
   10.4296   -5.1799   28.3140 C   0  0  0  0  0  0  0  0  0  0  0  0
    6.6017   -5.9004   26.9187 C   0  0  0  0  0  0  0  0  0  0  0  0
    2.4761   -6.9940   26.4111 N   0  0  0  0  0  0  0  0  0  0  0  0
    9.1353   -5.4053   27.8239 C   0  0  0  0  0  0  0  0  0  0  0  0
    0.9922   -9.3232   16.5995 O   0  0  0  0  0  0  0  0  0  0  0  0
    1.5232   -7.6869   27.1182 C   0  0  0  0  0  0  0  0  0  0  0  0
    8.6878   -6.6715   27.7262 N   0  0  0  0  0  0  0  0  0  0  0  0
    6.9911   -8.2423   27.1808 C   0  0  0  0  0  0  0  0  0  0  0  0
    3.8436   -7.2758   16.0578 C   0  0  0  0  0  0  0  0  0  0  0  0
    3.1882   -9.7190   17.2566 C   0  0  0  0  0  0  0  0  0  0  0  0
    5.3488   -6.1737   26.5092 C   0  0  0  0  0  0  0  0  0  0  0  0
    7.4567   -6.9464   27.2858 C   0  0  0  0  0  0  0  0  0  0  0  0
    0.1921   -5.7592   27.1123 C   0  0  0  0  0  0  0  0  0  0  0  0
    3.5517   -7.7407   25.9711 C   0  0  0  0  0  0  0  0  0  0  0  0
  1  4  4  0
  1 22  4  0
  2 20  4  0
  2 27  4  0
  3 12  4  0
  3 23  4  0
  4 25  4  0
  4 28  1  0
  5  8  4  0
  5 17  4  0
  6  7  4  0
  6 16  4  0
  7 18  4  0
  8 27  4  0
  9 13  4  0
  9 23  4  0
 10 11  1  0
 11 14  2  0
 11 27  1  0
 12 19  1  0
 12 24  4  0
 13 24  4  0
 15 18  1  0
 16 25  4  0
 16 26  4  0
 17 20  4  0
 17 28  1  0
 18 21  4  0
 21 26  4  0
 22 26  4  0
M  END
$$$$

 Created by Python create_sdf_string function

 28 30  0  0  0  0  0  0  0  0999 V2000
    5.7174   -8.4529   26.7190 C   0  0  0  0  0  0  0  0  0  0  0  0
    0.3974   -7.0711   27.5149 C   0  0  0  0  0  0  0  0  0  0  0  0
    2.5338   -7.6891   16.0102 C   0  0  0  0  0  0  0  0  0  0  0  0
    4.8690   -7.4380   26.4151 C   0  0  0  0  0  0  0  0  0  0  0  0
    2.3021   -5.6726   26.0378 C   0  0  0  0  0  0  0  0  0  0  0  0
    7.0880   -4.6163   27.0010 C   0  0  0  0  0  0  0  0  0  0  0  0
    8.3117   -4.3698   27.4436 C   0  0  0  0  0  0  0  0  0  0  0  0
    1.1339   -5.0515   26.3541 C   0  0  0  0  0  0  0  0  0  0  0  0
    4.8080   -8.0362   16.7101 C   0  0  0  0  0  0  0  0  0  0  0  0
   -1.2173   -3.9294   26.9717 O   0  0  0  0  0  0  0  0  0  0  0  0
   -1.0025   -5.0942   27.4586 C   0  0  0  0  0  0  0  0  0  0  0  0
    2.2474   -8.9123   16.6273 C   0  0  0  0  0  0  0  0  0  0  0  0
    4.4957   -9.2636   17.3041 C   0  0  0  0  0  0  0  0  0  0  0  0
   -1.8070   -5.6086   28.1920 O   0  0  0  0  0  0  0  0  0  0  0  0
   10.4296   -5.1799   28.3140 C   0  0  0  0  0  0  0  0  0  0  0  0
    6.6017   -5.9004   26.9187 C   0  0  0  0  0  0  0  0  0  0  0  0
    2.4761   -6.9940   26.4111 N   0  0  0  0  0  0  0  0  0  0  0  0
    9.1353   -5.4053   27.8239 C   0  0  0  0  0  0  0  0  0  0  0  0
    0.9922   -9.3232   16.5995 O   0  0  0  0  0  0  0  0  0  0  0  0
    1.5232   -7.6869   27.1182 C   0  0  0  0  0  0  0  0  0  0  0  0
    8.6878   -6.6715   27.7262 N   0  0  0  0  0  0  0  0  0  0  0  0
    6.9911   -8.2423   27.1808 C   0  0  0  0  0  0  0  0  0  0  0  0
    3.8436   -7.2758   16.0578 C   0  0  0  0  0  0  0  0  0  0  0  0
    3.1882   -9.7190   17.2566 C   0  0  0  0  0  0  0  0  0  0  0  0
    5.3488   -6.1737   26.5092 C   0  0  0  0  0  0  0  0  0  0  0  0
    7.4567   -6.9464   27.2858 C   0  0  0  0  0  0  0  0  0  0  0  0
    0.1921   -5.7592   27.1123 C   0  0  0  0  0  0  0  0  0  0  0  0
    3.5517   -7.7407   25.9711 C   0  0  0  0  0  0  0  0  0  0  0  0
  1  4  4  0
  1 22  4  0
  2 20  4  0
  2 27  4  0
  3 12  4  0
  3 23  4  0
  4 25  4  0
  4 28  1  0
  5  8  4  0
  5 17  4  0
  6  7  4  0
  6 16  4  0
  7 18  4  0
  8 27  4  0
  9 13  4  0
  9 23  4  0
 10 11  1  0
 11 14  2  0
 11 27  1  0
 12 19  1  0
 12 24  4  0
 13 24  4  0
 15 18  1  0
 16 25  4  0
 16 26  4  0
 17 20  4  0
 17 28  1  0
 18 21  4  0
 21 26  4  0
 22 26  4  0
M  END
$$$$

 Created by Python create_sdf_string function

 28 30  0  0  0  0  0  0  0  0999 V2000
    5.7174   -8.4529   26.7190 C   0  0  0  0  0  0  0  0  0  0  0  0
    0.3974   -7.0711   27.5149 C   0  0  0  0  0  0  0  0  0  0  0  0
    2.5338   -7.6891   16.0102 C   0  0  0  0  0  0  0  0  0  0  0  0
    4.8690   -7.4380   26.4151 C   0  0  0  0  0  0  0  0  0  0  0  0
    2.3021   -5.6726   26.0378 C   0  0  0  0  0  0  0  0  0  0  0  0
    7.0880   -4.6163   27.0010 C   0  0  0  0  0  0  0  0  0  0  0  0
    8.3117   -4.3698   27.4436 C   0  0  0  0  0  0  0  0  0  0  0  0
    1.1339   -5.0515   26.3541 C   0  0  0  0  0  0  0  0  0  0  0  0
    4.8080   -8.0362   16.7101 C   0  0  0  0  0  0  0  0  0  0  0  0
   -1.2173   -3.9294   26.9717 O   0  0  0  0  0  0  0  0  0  0  0  0
   -1.0025   -5.0942   27.4586 C   0  0  0  0  0  0  0  0  0  0  0  0
    2.2474   -8.9123   16.6273 C   0  0  0  0  0  0  0  0  0  0  0  0
    4.4957   -9.2636   17.3041 C   0  0  0  0  0  0  0  0  0  0  0  0
   -1.8070   -5.6086   28.1920 O   0  0  0  0  0  0  0  0  0  0  0  0
   10.4296   -5.1799   28.3140 C   0  0  0  0  0  0  0  0  0  0  0  0
    6.6017   -5.9004   26.9187 C   0  0  0  0  0  0  0  0  0  0  0  0
    2.4761   -6.9940   26.4111 N   0  0  0  0  0  0  0  0  0  0  0  0
    9.1353   -5.4053   27.8239 C   0  0  0  0  0  0  0  0  0  0  0  0
    0.9922   -9.3232   16.5995 O   0  0  0  0  0  0  0  0  0  0  0  0
    1.5232   -7.6869   27.1182 C   0  0  0  0  0  0  0  0  0  0  0  0
    8.6878   -6.6715   27.7262 N   0  0  0  0  0  0  0  0  0  0  0  0
    6.9911   -8.2423   27.1808 C   0  0  0  0  0  0  0  0  0  0  0  0
    3.8436   -7.2758   16.0578 C   0  0  0  0  0  0  0  0  0  0  0  0
    3.1882   -9.7190   17.2566 C   0  0  0  0  0  0  0  0  0  0  0  0
    5.3488   -6.1737   26.5092 C   0  0  0  0  0  0  0  0  0  0  0  0
    7.4567   -6.9464   27.2858 C   0  0  0  0  0  0  0  0  0  0  0  0
    0.1921   -5.7592   27.1123 C   0  0  0  0  0  0  0  0  0  0  0  0
    3.5517   -7.7407   25.9711 C   0  0  0  0  0  0  0  0  0  0  0  0
  1  4  4  0
  1 22  4  0
  2 20  4  0
  2 27  4  0
  3 12  4  0
  3 23  4  0
  4 25  4  0
  4 28  1  0
  5  8  4  0
  5 17  4  0
  6  7  4  0
  6 16  4  0
  7 18  4  0
  8 27  4  0
  9 13  4  0
  9 23  4  0
 10 11  1  0
 11 14  2  0
 11 27  1  0
 12 19  1  0
 12 24  4  0
 13 24  4  0
 15 18  1  0
 16 25  4  0
 16 26  4  0
 17 20  4  0
 17 28  1  0
 18 21  4  0
 21 26  4  0
 22 26  4  0
M  END
$$$$

 Created by Python create_sdf_string function

 28 30  0  0  0  0  0  0  0  0999 V2000
    5.7174   -8.4529   26.7190 C   0  0  0  0  0  0  0  0  0  0  0  0
    0.3974   -7.0711   27.5149 C   0  0  0  0  0  0  0  0  0  0  0  0
    2.5338   -7.6891   16.0102 C   0  0  0  0  0  0  0  0  0  0  0  0
    4.8690   -7.4380   26.4151 C   0  0  0  0  0  0  0  0  0  0  0  0
    2.3021   -5.6726   26.0378 C   0  0  0  0  0  0  0  0  0  0  0  0
    7.0880   -4.6163   27.0010 C   0  0  0  0  0  0  0  0  0  0  0  0
    8.3117   -4.3698   27.4436 C   0  0  0  0  0  0  0  0  0  0  0  0
    1.1339   -5.0515   26.3541 C   0  0  0  0  0  0  0  0  0  0  0  0
    4.8080   -8.0362   16.7101 C   0  0  0  0  0  0  0  0  0  0  0  0
   -1.2173   -3.9294   26.9717 O   0  0  0  0  0  0  0  0  0  0  0  0
   -1.0025   -5.0942   27.4586 C   0  0  0  0  0  0  0  0  0  0  0  0
    2.2474   -8.9123   16.6273 C   0  0  0  0  0  0  0  0  0  0  0  0
    4.4957   -9.2636   17.3041 C   0  0  0  0  0  0  0  0  0  0  0  0
   -1.8070   -5.6086   28.1920 O   0  0  0  0  0  0  0  0  0  0  0  0
   10.4296   -5.1799   28.3140 C   0  0  0  0  0  0  0  0  0  0  0  0
    6.6017   -5.9004   26.9187 C   0  0  0  0  0  0  0  0  0  0  0  0
    2.4761   -6.9940   26.4111 N   0  0  0  0  0  0  0  0  0  0  0  0
    9.1353   -5.4053   27.8239 C   0  0  0  0  0  0  0  0  0  0  0  0
    0.9922   -9.3232   16.5995 O   0  0  0  0  0  0  0  0  0  0  0  0
    1.5232   -7.6869   27.1182 C   0  0  0  0  0  0  0  0  0  0  0  0
    8.6878   -6.6715   27.7262 N   0  0  0  0  0  0  0  0  0  0  0  0
    6.9911   -8.2423   27.1808 C   0  0  0  0  0  0  0  0  0  0  0  0
    3.8436   -7.2758   16.0578 C   0  0  0  0  0  0  0  0  0  0  0  0
    3.1882   -9.7190   17.2566 C   0  0  0  0  0  0  0  0  0  0  0  0
    5.3488   -6.1737   26.5092 C   0  0  0  0  0  0  0  0  0  0  0  0
    7.4567   -6.9464   27.2858 C   0  0  0  0  0  0  0  0  0  0  0  0
    0.1921   -5.7592   27.1123 C   0  0  0  0  0  0  0  0  0  0  0  0
    3.5517   -7.7407   25.9711 C   0  0  0  0  0  0  0  0  0  0  0  0
  1  4  4  0
  1 22  4  0
  2 20  4  0
  2 27  4  0
  3 12  4  0
  3 23  4  0
  4 25  4  0
  4 28  1  0
  5  8  4  0
  5 17  4  0
  6  7  4  0
  6 16  4  0
  7 18  4  0
  8 27  4  0
  9 13  4  0
  9 23  4  0
 10 11  1  0
 11 14  2  0
 11 27  1  0
 12 19  1  0
 12 24  4  0
 13 24  4  0
 15 18  1  0
 16 25  4  0
 16 26  4  0
 17 20  4  0
 17 28  1  0
 18 21  4  0
 21 26  4  0
 22 26  4  0
M  END
$$$$

 Created by Python create_sdf_string function

 28 30  0  0  0  0  0  0  0  0999 V2000
    5.7174   -8.4529   26.7190 C   0  0  0  0  0  0  0  0  0  0  0  0
    0.3974   -7.0711   27.5149 C   0  0  0  0  0  0  0  0  0  0  0  0
    2.5338   -7.6891   16.0102 C   0  0  0  0  0  0  0  0  0  0  0  0
    4.8690   -7.4380   26.4151 C   0  0  0  0  0  0  0  0  0  0  0  0
    2.3021   -5.6726   26.0378 C   0  0  0  0  0  0  0  0  0  0  0  0
    7.0880   -4.6163   27.0010 C   0  0  0  0  0  0  0  0  0  0  0  0
    8.3117   -4.3698   27.4436 C   0  0  0  0  0  0  0  0  0  0  0  0
    1.1339   -5.0515   26.3541 C   0  0  0  0  0  0  0  0  0  0  0  0
    4.8080   -8.0362   16.7101 C   0  0  0  0  0  0  0  0  0  0  0  0
   -1.2173   -3.9294   26.9717 O   0  0  0  0  0  0  0  0  0  0  0  0
   -1.0025   -5.0942   27.4586 C   0  0  0  0  0  0  0  0  0  0  0  0
    2.2474   -8.9123   16.6273 C   0  0  0  0  0  0  0  0  0  0  0  0
    4.4957   -9.2636   17.3041 C   0  0  0  0  0  0  0  0  0  0  0  0
   -1.8070   -5.6086   28.1920 O   0  0  0  0  0  0  0  0  0  0  0  0
   10.4296   -5.1799   28.3140 C   0  0  0  0  0  0  0  0  0  0  0  0
    6.6017   -5.9004   26.9187 C   0  0  0  0  0  0  0  0  0  0  0  0
    2.4761   -6.9940   26.4111 N   0  0  0  0  0  0  0  0  0  0  0  0
    9.1353   -5.4053   27.8239 C   0  0  0  0  0  0  0  0  0  0  0  0
    0.9922   -9.3232   16.5995 O   0  0  0  0  0  0  0  0  0  0  0  0
    1.5232   -7.6869   27.1182 C   0  0  0  0  0  0  0  0  0  0  0  0
    8.6878   -6.6715   27.7262 N   0  0  0  0  0  0  0  0  0  0  0  0
    6.9911   -8.2423   27.1808 C   0  0  0  0  0  0  0  0  0  0  0  0
    3.8436   -7.2758   16.0578 C   0  0  0  0  0  0  0  0  0  0  0  0
    3.1882   -9.7190   17.2566 C   0  0  0  0  0  0  0  0  0  0  0  0
    5.3488   -6.1737   26.5092 C   0  0  0  0  0  0  0  0  0  0  0  0
    7.4567   -6.9464   27.2858 C   0  0  0  0  0  0  0  0  0  0  0  0
    0.1921   -5.7592   27.1123 C   0  0  0  0  0  0  0  0  0  0  0  0
    3.5517   -7.7407   25.9711 C   0  0  0  0  0  0  0  0  0  0  0  0
  1  4  4  0
  1 22  4  0
  2 20  4  0
  2 27  4  0
  3 12  4  0
  3 23  4  0
  4 25  4  0
  4 28  1  0
  5  8  4  0
  5 17  4  0
  6  7  4  0
  6 16  4  0
  7 18  4  0
  8 27  4  0
  9 13  4  0
  9 23  4  0
 10 11  1  0
 11 14  2  0
 11 27  1  0
 12 19  1  0
 12 24  4  0
 13 24  4  0
 15 18  1  0
 16 25  4  0
 16 26  4  0
 17 20  4  0
 17 28  1  0
 18 21  4  0
 21 26  4  0
 22 26  4  0
M  END
$$$$

 Created by Python create_sdf_string function

 28 30  0  0  0  0  0  0  0  0999 V2000
    5.7174   -8.4529   26.7190 C   0  0  0  0  0  0  0  0  0  0  0  0
    0.3974   -7.0711   27.5149 C   0  0  0  0  0  0  0  0  0  0  0  0
    2.5338   -7.6891   16.0102 C   0  0  0  0  0  0  0  0  0  0  0  0
    4.8690   -7.4380   26.4151 C   0  0  0  0  0  0  0  0  0  0  0  0
    2.3021   -5.6726   26.0378 C   0  0  0  0  0  0  0  0  0  0  0  0
    7.0880   -4.6163   27.0010 C   0  0  0  0  0  0  0  0  0  0  0  0
    8.3117   -4.3698   27.4436 C   0  0  0  0  0  0  0  0  0  0  0  0
    1.1339   -5.0515   26.3541 C   0  0  0  0  0  0  0  0  0  0  0  0
    4.8080   -8.0362   16.7101 C   0  0  0  0  0  0  0  0  0  0  0  0
   -1.2173   -3.9294   26.9717 O   0  0  0  0  0  0  0  0  0  0  0  0
   -1.0025   -5.0942   27.4586 C   0  0  0  0  0  0  0  0  0  0  0  0
    2.2474   -8.9123   16.6273 C   0  0  0  0  0  0  0  0  0  0  0  0
    4.4957   -9.2636   17.3041 C   0  0  0  0  0  0  0  0  0  0  0  0
   -1.8070   -5.6086   28.1920 O   0  0  0  0  0  0  0  0  0  0  0  0
   10.4296   -5.1799   28.3140 C   0  0  0  0  0  0  0  0  0  0  0  0
    6.6017   -5.9004   26.9187 C   0  0  0  0  0  0  0  0  0  0  0  0
    2.4761   -6.9940   26.4111 N   0  0  0  0  0  0  0  0  0  0  0  0
    9.1353   -5.4053   27.8239 C   0  0  0  0  0  0  0  0  0  0  0  0
    0.9922   -9.3232   16.5995 O   0  0  0  0  0  0  0  0  0  0  0  0
    1.5232   -7.6869   27.1182 C   0  0  0  0  0  0  0  0  0  0  0  0
    8.6878   -6.6715   27.7262 N   0  0  0  0  0  0  0  0  0  0  0  0
    6.9911   -8.2423   27.1808 C   0  0  0  0  0  0  0  0  0  0  0  0
    3.8436   -7.2758   16.0578 C   0  0  0  0  0  0  0  0  0  0  0  0
    3.1882   -9.7190   17.2566 C   0  0  0  0  0  0  0  0  0  0  0  0
    5.3488   -6.1737   26.5092 C   0  0  0  0  0  0  0  0  0  0  0  0
    7.4567   -6.9464   27.2858 C   0  0  0  0  0  0  0  0  0  0  0  0
    0.1921   -5.7592   27.1123 C   0  0  0  0  0  0  0  0  0  0  0  0
    3.5517   -7.7407   25.9711 C   0  0  0  0  0  0  0  0  0  0  0  0
  1  4  4  0
  1 22  4  0
  2 20  4  0
  2 27  4  0
  3 12  4  0
  3 23  4  0
  4 25  4  0
  4 28  1  0
  5  8  4  0
  5 17  4  0
  6  7  4  0
  6 16  4  0
  7 18  4  0
  8 27  4  0
  9 13  4  0
  9 23  4  0
 10 11  1  0
 11 14  2  0
 11 27  1  0
 12 19  1  0
 12 24  4  0
 13 24  4  0
 15 18  1  0
 16 25  4  0
 16 26  4  0
 17 20  4  0
 17 28  1  0
 18 21  4  0
 21 26  4  0
 22 26  4  0
M  END
$$$$

 Created by Python create_sdf_string function

 28 30  0  0  0  0  0  0  0  0999 V2000
    5.7174   -8.4529   26.7190 C   0  0  0  0  0  0  0  0  0  0  0  0
    0.3974   -7.0711   27.5149 C   0  0  0  0  0  0  0  0  0  0  0  0
    2.5338   -7.6891   16.0102 C   0  0  0  0  0  0  0  0  0  0  0  0
    4.8690   -7.4380   26.4151 C   0  0  0  0  0  0  0  0  0  0  0  0
    2.3021   -5.6726   26.0378 C   0  0  0  0  0  0  0  0  0  0  0  0
    7.0880   -4.6163   27.0010 C   0  0  0  0  0  0  0  0  0  0  0  0
    8.3117   -4.3698   27.4436 C   0  0  0  0  0  0  0  0  0  0  0  0
    1.1339   -5.0515   26.3541 C   0  0  0  0  0  0  0  0  0  0  0  0
    4.8080   -8.0362   16.7101 C   0  0  0  0  0  0  0  0  0  0  0  0
   -1.2173   -3.9294   26.9717 O   0  0  0  0  0  0  0  0  0  0  0  0
   -1.0025   -5.0942   27.4586 C   0  0  0  0  0  0  0  0  0  0  0  0
    2.2474   -8.9123   16.6273 C   0  0  0  0  0  0  0  0  0  0  0  0
    4.4957   -9.2636   17.3041 C   0  0  0  0  0  0  0  0  0  0  0  0
   -1.8070   -5.6086   28.1920 O   0  0  0  0  0  0  0  0  0  0  0  0
   10.4296   -5.1799   28.3140 C   0  0  0  0  0  0  0  0  0  0  0  0
    6.6017   -5.9004   26.9187 C   0  0  0  0  0  0  0  0  0  0  0  0
    2.4761   -6.9940   26.4111 N   0  0  0  0  0  0  0  0  0  0  0  0
    9.1353   -5.4053   27.8239 C   0  0  0  0  0  0  0  0  0  0  0  0
    0.9922   -9.3232   16.5995 O   0  0  0  0  0  0  0  0  0  0  0  0
    1.5232   -7.6869   27.1182 C   0  0  0  0  0  0  0  0  0  0  0  0
    8.6878   -6.6715   27.7262 N   0  0  0  0  0  0  0  0  0  0  0  0
    6.9911   -8.2423   27.1808 C   0  0  0  0  0  0  0  0  0  0  0  0
    3.8436   -7.2758   16.0578 C   0  0  0  0  0  0  0  0  0  0  0  0
    3.1882   -9.7190   17.2566 C   0  0  0  0  0  0  0  0  0  0  0  0
    5.3488   -6.1737   26.5092 C   0  0  0  0  0  0  0  0  0  0  0  0
    7.4567   -6.9464   27.2858 C   0  0  0  0  0  0  0  0  0  0  0  0
    0.1921   -5.7592   27.1123 C   0  0  0  0  0  0  0  0  0  0  0  0
    3.5517   -7.7407   25.9711 C   0  0  0  0  0  0  0  0  0  0  0  0
  1  4  4  0
  1 22  4  0
  2 20  4  0
  2 27  4  0
  3 12  4  0
  3 23  4  0
  4 25  4  0
  4 28  1  0
  5  8  4  0
  5 17  4  0
  6  7  4  0
  6 16  4  0
  7 18  4  0
  8 27  4  0
  9 13  4  0
  9 23  4  0
 10 11  1  0
 11 14  2  0
 11 27  1  0
 12 19  1  0
 12 24  4  0
 13 24  4  0
 15 18  1  0
 16 25  4  0
 16 26  4  0
 17 20  4  0
 17 28  1  0
 18 21  4  0
 21 26  4  0
 22 26  4  0
M  END
$$$$

 Created by Python create_sdf_string function

 28 30  0  0  0  0  0  0  0  0999 V2000
    5.7174   -8.4529   26.7190 C   0  0  0  0  0  0  0  0  0  0  0  0
    0.3974   -7.0711   27.5149 C   0  0  0  0  0  0  0  0  0  0  0  0
    2.5338   -7.6891   16.0102 C   0  0  0  0  0  0  0  0  0  0  0  0
    4.8690   -7.4380   26.4151 C   0  0  0  0  0  0  0  0  0  0  0  0
    2.3021   -5.6726   26.0378 C   0  0  0  0  0  0  0  0  0  0  0  0
    7.0880   -4.6163   27.0010 C   0  0  0  0  0  0  0  0  0  0  0  0
    8.3117   -4.3698   27.4436 C   0  0  0  0  0  0  0  0  0  0  0  0
    1.1339   -5.0515   26.3541 C   0  0  0  0  0  0  0  0  0  0  0  0
    4.8080   -8.0362   16.7101 C   0  0  0  0  0  0  0  0  0  0  0  0
   -1.2173   -3.9294   26.9717 O   0  0  0  0  0  0  0  0  0  0  0  0
   -1.0025   -5.0942   27.4586 C   0  0  0  0  0  0  0  0  0  0  0  0
    2.2474   -8.9123   16.6273 C   0  0  0  0  0  0  0  0  0  0  0  0
    4.4957   -9.2636   17.3041 C   0  0  0  0  0  0  0  0  0  0  0  0
   -1.8070   -5.6086   28.1920 O   0  0  0  0  0  0  0  0  0  0  0  0
   10.4296   -5.1799   28.3140 C   0  0  0  0  0  0  0  0  0  0  0  0
    6.6017   -5.9004   26.9187 C   0  0  0  0  0  0  0  0  0  0  0  0
    2.4761   -6.9940   26.4111 N   0  0  0  0  0  0  0  0  0  0  0  0
    9.1353   -5.4053   27.8239 C   0  0  0  0  0  0  0  0  0  0  0  0
    0.9922   -9.3232   16.5995 O   0  0  0  0  0  0  0  0  0  0  0  0
    1.5232   -7.6869   27.1182 C   0  0  0  0  0  0  0  0  0  0  0  0
    8.6878   -6.6715   27.7262 N   0  0  0  0  0  0  0  0  0  0  0  0
    6.9911   -8.2423   27.1808 C   0  0  0  0  0  0  0  0  0  0  0  0
    3.8436   -7.2758   16.0578 C   0  0  0  0  0  0  0  0  0  0  0  0
    3.1882   -9.7190   17.2566 C   0  0  0  0  0  0  0  0  0  0  0  0
    5.3488   -6.1737   26.5092 C   0  0  0  0  0  0  0  0  0  0  0  0
    7.4567   -6.9464   27.2858 C   0  0  0  0  0  0  0  0  0  0  0  0
    0.1921   -5.7592   27.1123 C   0  0  0  0  0  0  0  0  0  0  0  0
    3.5517   -7.7407   25.9711 C   0  0  0  0  0  0  0  0  0  0  0  0
  1  4  4  0
  1 22  4  0
  2 20  4  0
  2 27  4  0
  3 12  4  0
  3 23  4  0
  4 25  4  0
  4 28  1  0
  5  8  4  0
  5 17  4  0
  6  7  4  0
  6 16  4  0
  7 18  4  0
  8 27  4  0
  9 13  4  0
  9 23  4  0
 10 11  1  0
 11 14  2  0
 11 27  1  0
 12 19  1  0
 12 24  4  0
 13 24  4  0
 15 18  1  0
 16 25  4  0
 16 26  4  0
 17 20  4  0
 17 28  1  0
 18 21  4  0
 21 26  4  0
 22 26  4  0
M  END
$$$$

 Created by Python create_sdf_string function

 28 30  0  0  0  0  0  0  0  0999 V2000
    5.7174   -8.4529   26.7190 C   0  0  0  0  0  0  0  0  0  0  0  0
    0.3974   -7.0711   27.5149 C   0  0  0  0  0  0  0  0  0  0  0  0
    2.5338   -7.6891   16.0102 C   0  0  0  0  0  0  0  0  0  0  0  0
    4.8690   -7.4380   26.4151 C   0  0  0  0  0  0  0  0  0  0  0  0
    2.3021   -5.6726   26.0378 C   0  0  0  0  0  0  0  0  0  0  0  0
    7.0880   -4.6163   27.0010 C   0  0  0  0  0  0  0  0  0  0  0  0
    8.3117   -4.3698   27.4436 C   0  0  0  0  0  0  0  0  0  0  0  0
    1.1339   -5.0515   26.3541 C   0  0  0  0  0  0  0  0  0  0  0  0
    4.8080   -8.0362   16.7101 C   0  0  0  0  0  0  0  0  0  0  0  0
   -1.2173   -3.9294   26.9717 O   0  0  0  0  0  0  0  0  0  0  0  0
   -1.0025   -5.0942   27.4586 C   0  0  0  0  0  0  0  0  0  0  0  0
    2.2474   -8.9123   16.6273 C   0  0  0  0  0  0  0  0  0  0  0  0
    4.4957   -9.2636   17.3041 C   0  0  0  0  0  0  0  0  0  0  0  0
   -1.8070   -5.6086   28.1920 O   0  0  0  0  0  0  0  0  0  0  0  0
   10.4296   -5.1799   28.3140 C   0  0  0  0  0  0  0  0  0  0  0  0
    6.6017   -5.9004   26.9187 C   0  0  0  0  0  0  0  0  0  0  0  0
    2.4761   -6.9940   26.4111 N   0  0  0  0  0  0  0  0  0  0  0  0
    9.1353   -5.4053   27.8239 C   0  0  0  0  0  0  0  0  0  0  0  0
    0.9922   -9.3232   16.5995 O   0  0  0  0  0  0  0  0  0  0  0  0
    1.5232   -7.6869   27.1182 C   0  0  0  0  0  0  0  0  0  0  0  0
    8.6878   -6.6715   27.7262 N   0  0  0  0  0  0  0  0  0  0  0  0
    6.9911   -8.2423   27.1808 C   0  0  0  0  0  0  0  0  0  0  0  0
    3.8436   -7.2758   16.0578 C   0  0  0  0  0  0  0  0  0  0  0  0
    3.1882   -9.7190   17.2566 C   0  0  0  0  0  0  0  0  0  0  0  0
    5.3488   -6.1737   26.5092 C   0  0  0  0  0  0  0  0  0  0  0  0
    7.4567   -6.9464   27.2858 C   0  0  0  0  0  0  0  0  0  0  0  0
    0.1921   -5.7592   27.1123 C   0  0  0  0  0  0  0  0  0  0  0  0
    3.5517   -7.7407   25.9711 C   0  0  0  0  0  0  0  0  0  0  0  0
  1  4  4  0
  1 22  4  0
  2 20  4  0
  2 27  4  0
  3 12  4  0
  3 23  4  0
  4 25  4  0
  4 28  1  0
  5  8  4  0
  5 17  4  0
  6  7  4  0
  6 16  4  0
  7 18  4  0
  8 27  4  0
  9 13  4  0
  9 23  4  0
 10 11  1  0
 11 14  2  0
 11 27  1  0
 12 19  1  0
 12 24  4  0
 13 24  4  0
 15 18  1  0
 16 25  4  0
 16 26  4  0
 17 20  4  0
 17 28  1  0
 18 21  4  0
 21 26  4  0
 22 26  4  0
M  END
$$$$

 Created by Python create_sdf_string function

 28 30  0  0  0  0  0  0  0  0999 V2000
    5.7174   -8.4529   26.7190 C   0  0  0  0  0  0  0  0  0  0  0  0
    0.3974   -7.0711   27.5149 C   0  0  0  0  0  0  0  0  0  0  0  0
    2.5338   -7.6891   16.0102 C   0  0  0  0  0  0  0  0  0  0  0  0
    4.8690   -7.4380   26.4151 C   0  0  0  0  0  0  0  0  0  0  0  0
    2.3021   -5.6726   26.0378 C   0  0  0  0  0  0  0  0  0  0  0  0
    7.0880   -4.6163   27.0010 C   0  0  0  0  0  0  0  0  0  0  0  0
    8.3117   -4.3698   27.4436 C   0  0  0  0  0  0  0  0  0  0  0  0
    1.1339   -5.0515   26.3541 C   0  0  0  0  0  0  0  0  0  0  0  0
    4.8080   -8.0362   16.7101 C   0  0  0  0  0  0  0  0  0  0  0  0
   -1.2173   -3.9294   26.9717 O   0  0  0  0  0  0  0  0  0  0  0  0
   -1.0025   -5.0942   27.4586 C   0  0  0  0  0  0  0  0  0  0  0  0
    2.2474   -8.9123   16.6273 C   0  0  0  0  0  0  0  0  0  0  0  0
    4.4957   -9.2636   17.3041 C   0  0  0  0  0  0  0  0  0  0  0  0
   -1.8070   -5.6086   28.1920 O   0  0  0  0  0  0  0  0  0  0  0  0
   10.4296   -5.1799   28.3140 C   0  0  0  0  0  0  0  0  0  0  0  0
    6.6017   -5.9004   26.9187 C   0  0  0  0  0  0  0  0  0  0  0  0
    2.4761   -6.9940   26.4111 N   0  0  0  0  0  0  0  0  0  0  0  0
    9.1353   -5.4053   27.8239 C   0  0  0  0  0  0  0  0  0  0  0  0
    0.9922   -9.3232   16.5995 O   0  0  0  0  0  0  0  0  0  0  0  0
    1.5232   -7.6869   27.1182 C   0  0  0  0  0  0  0  0  0  0  0  0
    8.6878   -6.6715   27.7262 N   0  0  0  0  0  0  0  0  0  0  0  0
    6.9911   -8.2423   27.1808 C   0  0  0  0  0  0  0  0  0  0  0  0
    3.8436   -7.2758   16.0578 C   0  0  0  0  0  0  0  0  0  0  0  0
    3.1882   -9.7190   17.2566 C   0  0  0  0  0  0  0  0  0  0  0  0
    5.3488   -6.1737   26.5092 C   0  0  0  0  0  0  0  0  0  0  0  0
    7.4567   -6.9464   27.2858 C   0  0  0  0  0  0  0  0  0  0  0  0
    0.1921   -5.7592   27.1123 C   0  0  0  0  0  0  0  0  0  0  0  0
    3.5517   -7.7407   25.9711 C   0  0  0  0  0  0  0  0  0  0  0  0
  1  4  4  0
  1 22  4  0
  2 20  4  0
  2 27  4  0
  3 12  4  0
  3 23  4  0
  4 25  4  0
  4 28  1  0
  5  8  4  0
  5 17  4  0
  6  7  4  0
  6 16  4  0
  7 18  4  0
  8 27  4  0
  9 13  4  0
  9 23  4  0
 10 11  1  0
 11 14  2  0
 11 27  1  0
 12 19  1  0
 12 24  4  0
 13 24  4  0
 15 18  1  0
 16 25  4  0
 16 26  4  0
 17 20  4  0
 17 28  1  0
 18 21  4  0
 21 26  4  0
 22 26  4  0
M  END
$$$$

 Created by Python create_sdf_string function

 28 30  0  0  0  0  0  0  0  0999 V2000
    5.7174   -8.4529   26.7190 C   0  0  0  0  0  0  0  0  0  0  0  0
    0.3974   -7.0711   27.5149 C   0  0  0  0  0  0  0  0  0  0  0  0
    2.5338   -7.6891   16.0102 C   0  0  0  0  0  0  0  0  0  0  0  0
    4.8690   -7.4380   26.4151 C   0  0  0  0  0  0  0  0  0  0  0  0
    2.3021   -5.6726   26.0378 C   0  0  0  0  0  0  0  0  0  0  0  0
    7.0880   -4.6163   27.0010 C   0  0  0  0  0  0  0  0  0  0  0  0
    8.3117   -4.3698   27.4436 C   0  0  0  0  0  0  0  0  0  0  0  0
    1.1339   -5.0515   26.3541 C   0  0  0  0  0  0  0  0  0  0  0  0
    4.8080   -8.0362   16.7101 C   0  0  0  0  0  0  0  0  0  0  0  0
   -1.2173   -3.9294   26.9717 O   0  0  0  0  0  0  0  0  0  0  0  0
   -1.0025   -5.0942   27.4586 C   0  0  0  0  0  0  0  0  0  0  0  0
    2.2474   -8.9123   16.6273 C   0  0  0  0  0  0  0  0  0  0  0  0
    4.4957   -9.2636   17.3041 C   0  0  0  0  0  0  0  0  0  0  0  0
   -1.8070   -5.6086   28.1920 O   0  0  0  0  0  0  0  0  0  0  0  0
   10.4296   -5.1799   28.3140 C   0  0  0  0  0  0  0  0  0  0  0  0
    6.6017   -5.9004   26.9187 C   0  0  0  0  0  0  0  0  0  0  0  0
    2.4761   -6.9940   26.4111 N   0  0  0  0  0  0  0  0  0  0  0  0
    9.1353   -5.4053   27.8239 C   0  0  0  0  0  0  0  0  0  0  0  0
    0.9922   -9.3232   16.5995 O   0  0  0  0  0  0  0  0  0  0  0  0
    1.5232   -7.6869   27.1182 C   0  0  0  0  0  0  0  0  0  0  0  0
    8.6878   -6.6715   27.7262 N   0  0  0  0  0  0  0  0  0  0  0  0
    6.9911   -8.2423   27.1808 C   0  0  0  0  0  0  0  0  0  0  0  0
    3.8436   -7.2758   16.0578 C   0  0  0  0  0  0  0  0  0  0  0  0
    3.1882   -9.7190   17.2566 C   0  0  0  0  0  0  0  0  0  0  0  0
    5.3488   -6.1737   26.5092 C   0  0  0  0  0  0  0  0  0  0  0  0
    7.4567   -6.9464   27.2858 C   0  0  0  0  0  0  0  0  0  0  0  0
    0.1921   -5.7592   27.1123 C   0  0  0  0  0  0  0  0  0  0  0  0
    3.5517   -7.7407   25.9711 C   0  0  0  0  0  0  0  0  0  0  0  0
  1  4  4  0
  1 22  4  0
  2 20  4  0
  2 27  4  0
  3 12  4  0
  3 23  4  0
  4 25  4  0
  4 28  1  0
  5  8  4  0
  5 17  4  0
  6  7  4  0
  6 16  4  0
  7 18  4  0
  8 27  4  0
  9 13  4  0
  9 23  4  0
 10 11  1  0
 11 14  2  0
 11 27  1  0
 12 19  1  0
 12 24  4  0
 13 24  4  0
 15 18  1  0
 16 25  4  0
 16 26  4  0
 17 20  4  0
 17 28  1  0
 18 21  4  0
 21 26  4  0
 22 26  4  0
M  END
$$$$

 Created by Python create_sdf_string function

 28 30  0  0  0  0  0  0  0  0999 V2000
    5.7174   -8.4529   26.7190 C   0  0  0  0  0  0  0  0  0  0  0  0
    0.3974   -7.0711   27.5149 C   0  0  0  0  0  0  0  0  0  0  0  0
    2.5338   -7.6891   16.0102 C   0  0  0  0  0  0  0  0  0  0  0  0
    4.8690   -7.4380   26.4151 C   0  0  0  0  0  0  0  0  0  0  0  0
    2.3021   -5.6726   26.0378 C   0  0  0  0  0  0  0  0  0  0  0  0
    7.0880   -4.6163   27.0010 C   0  0  0  0  0  0  0  0  0  0  0  0
    8.3117   -4.3698   27.4436 C   0  0  0  0  0  0  0  0  0  0  0  0
    1.1339   -5.0515   26.3541 C   0  0  0  0  0  0  0  0  0  0  0  0
    4.8080   -8.0362   16.7101 C   0  0  0  0  0  0  0  0  0  0  0  0
   -1.2173   -3.9294   26.9717 O   0  0  0  0  0  0  0  0  0  0  0  0
   -1.0025   -5.0942   27.4586 C   0  0  0  0  0  0  0  0  0  0  0  0
    2.2474   -8.9123   16.6273 C   0  0  0  0  0  0  0  0  0  0  0  0
    4.4957   -9.2636   17.3041 C   0  0  0  0  0  0  0  0  0  0  0  0
   -1.8070   -5.6086   28.1920 O   0  0  0  0  0  0  0  0  0  0  0  0
   10.4296   -5.1799   28.3140 C   0  0  0  0  0  0  0  0  0  0  0  0
    6.6017   -5.9004   26.9187 C   0  0  0  0  0  0  0  0  0  0  0  0
    2.4761   -6.9940   26.4111 N   0  0  0  0  0  0  0  0  0  0  0  0
    9.1353   -5.4053   27.8239 C   0  0  0  0  0  0  0  0  0  0  0  0
    0.9922   -9.3232   16.5995 O   0  0  0  0  0  0  0  0  0  0  0  0
    1.5232   -7.6869   27.1182 C   0  0  0  0  0  0  0  0  0  0  0  0
    8.6878   -6.6715   27.7262 N   0  0  0  0  0  0  0  0  0  0  0  0
    6.9911   -8.2423   27.1808 C   0  0  0  0  0  0  0  0  0  0  0  0
    3.8436   -7.2758   16.0578 C   0  0  0  0  0  0  0  0  0  0  0  0
    3.1882   -9.7190   17.2566 C   0  0  0  0  0  0  0  0  0  0  0  0
    5.3488   -6.1737   26.5092 C   0  0  0  0  0  0  0  0  0  0  0  0
    7.4567   -6.9464   27.2858 C   0  0  0  0  0  0  0  0  0  0  0  0
    0.1921   -5.7592   27.1123 C   0  0  0  0  0  0  0  0  0  0  0  0
    3.5517   -7.7407   25.9711 C   0  0  0  0  0  0  0  0  0  0  0  0
  1  4  4  0
  1 22  4  0
  2 20  4  0
  2 27  4  0
  3 12  4  0
  3 23  4  0
  4 25  4  0
  4 28  1  0
  5  8  4  0
  5 17  4  0
  6  7  4  0
  6 16  4  0
  7 18  4  0
  8 27  4  0
  9 13  4  0
  9 23  4  0
 10 11  1  0
 11 14  2  0
 11 27  1  0
 12 19  1  0
 12 24  4  0
 13 24  4  0
 15 18  1  0
 16 25  4  0
 16 26  4  0
 17 20  4  0
 17 28  1  0
 18 21  4  0
 21 26  4  0
 22 26  4  0
M  END
$$$$

 Created by Python create_sdf_string function

 28 30  0  0  0  0  0  0  0  0999 V2000
    5.7174   -8.4529   26.7190 C   0  0  0  0  0  0  0  0  0  0  0  0
    0.3974   -7.0711   27.5149 C   0  0  0  0  0  0  0  0  0  0  0  0
    2.5338   -7.6891   16.0102 C   0  0  0  0  0  0  0  0  0  0  0  0
    4.8690   -7.4380   26.4151 C   0  0  0  0  0  0  0  0  0  0  0  0
    2.3021   -5.6726   26.0378 C   0  0  0  0  0  0  0  0  0  0  0  0
    7.0880   -4.6163   27.0010 C   0  0  0  0  0  0  0  0  0  0  0  0
    8.3117   -4.3698   27.4436 C   0  0  0  0  0  0  0  0  0  0  0  0
    1.1339   -5.0515   26.3541 C   0  0  0  0  0  0  0  0  0  0  0  0
    4.8080   -8.0362   16.7101 C   0  0  0  0  0  0  0  0  0  0  0  0
   -1.2173   -3.9294   26.9717 O   0  0  0  0  0  0  0  0  0  0  0  0
   -1.0025   -5.0942   27.4586 C   0  0  0  0  0  0  0  0  0  0  0  0
    2.2474   -8.9123   16.6273 C   0  0  0  0  0  0  0  0  0  0  0  0
    4.4957   -9.2636   17.3041 C   0  0  0  0  0  0  0  0  0  0  0  0
   -1.8070   -5.6086   28.1920 O   0  0  0  0  0  0  0  0  0  0  0  0
   10.4296   -5.1799   28.3140 C   0  0  0  0  0  0  0  0  0  0  0  0
    6.6017   -5.9004   26.9187 C   0  0  0  0  0  0  0  0  0  0  0  0
    2.4761   -6.9940   26.4111 N   0  0  0  0  0  0  0  0  0  0  0  0
    9.1353   -5.4053   27.8239 C   0  0  0  0  0  0  0  0  0  0  0  0
    0.9922   -9.3232   16.5995 O   0  0  0  0  0  0  0  0  0  0  0  0
    1.5232   -7.6869   27.1182 C   0  0  0  0  0  0  0  0  0  0  0  0
    8.6878   -6.6715   27.7262 N   0  0  0  0  0  0  0  0  0  0  0  0
    6.9911   -8.2423   27.1808 C   0  0  0  0  0  0  0  0  0  0  0  0
    3.8436   -7.2758   16.0578 C   0  0  0  0  0  0  0  0  0  0  0  0
    3.1882   -9.7190   17.2566 C   0  0  0  0  0  0  0  0  0  0  0  0
    5.3488   -6.1737   26.5092 C   0  0  0  0  0  0  0  0  0  0  0  0
    7.4567   -6.9464   27.2858 C   0  0  0  0  0  0  0  0  0  0  0  0
    0.1921   -5.7592   27.1123 C   0  0  0  0  0  0  0  0  0  0  0  0
    3.5517   -7.7407   25.9711 C   0  0  0  0  0  0  0  0  0  0  0  0
  1  4  4  0
  1 22  4  0
  2 20  4  0
  2 27  4  0
  3 12  4  0
  3 23  4  0
  4 25  4  0
  4 28  1  0
  5  8  4  0
  5 17  4  0
  6  7  4  0
  6 16  4  0
  7 18  4  0
  8 27  4  0
  9 13  4  0
  9 23  4  0
 10 11  1  0
 11 14  2  0
 11 27  1  0
 12 19  1  0
 12 24  4  0
 13 24  4  0
 15 18  1  0
 16 25  4  0
 16 26  4  0
 17 20  4  0
 17 28  1  0
 18 21  4  0
 21 26  4  0
 22 26  4  0
M  END
$$$$

 Created by Python create_sdf_string function

 28 30  0  0  0  0  0  0  0  0999 V2000
    5.7174   -8.4529   26.7190 C   0  0  0  0  0  0  0  0  0  0  0  0
    0.3974   -7.0711   27.5149 C   0  0  0  0  0  0  0  0  0  0  0  0
    2.5338   -7.6891   16.0102 C   0  0  0  0  0  0  0  0  0  0  0  0
    4.8690   -7.4380   26.4151 C   0  0  0  0  0  0  0  0  0  0  0  0
    2.3021   -5.6726   26.0378 C   0  0  0  0  0  0  0  0  0  0  0  0
    7.0880   -4.6163   27.0010 C   0  0  0  0  0  0  0  0  0  0  0  0
    8.3117   -4.3698   27.4436 C   0  0  0  0  0  0  0  0  0  0  0  0
    1.1339   -5.0515   26.3541 C   0  0  0  0  0  0  0  0  0  0  0  0
    4.8080   -8.0362   16.7101 C   0  0  0  0  0  0  0  0  0  0  0  0
   -1.2173   -3.9294   26.9717 O   0  0  0  0  0  0  0  0  0  0  0  0
   -1.0025   -5.0942   27.4586 C   0  0  0  0  0  0  0  0  0  0  0  0
    2.2474   -8.9123   16.6273 C   0  0  0  0  0  0  0  0  0  0  0  0
    4.4957   -9.2636   17.3041 C   0  0  0  0  0  0  0  0  0  0  0  0
   -1.8070   -5.6086   28.1920 O   0  0  0  0  0  0  0  0  0  0  0  0
   10.4296   -5.1799   28.3140 C   0  0  0  0  0  0  0  0  0  0  0  0
    6.6017   -5.9004   26.9187 C   0  0  0  0  0  0  0  0  0  0  0  0
    2.4761   -6.9940   26.4111 N   0  0  0  0  0  0  0  0  0  0  0  0
    9.1353   -5.4053   27.8239 C   0  0  0  0  0  0  0  0  0  0  0  0
    0.9922   -9.3232   16.5995 O   0  0  0  0  0  0  0  0  0  0  0  0
    1.5232   -7.6869   27.1182 C   0  0  0  0  0  0  0  0  0  0  0  0
    8.6878   -6.6715   27.7262 N   0  0  0  0  0  0  0  0  0  0  0  0
    6.9911   -8.2423   27.1808 C   0  0  0  0  0  0  0  0  0  0  0  0
    3.8436   -7.2758   16.0578 C   0  0  0  0  0  0  0  0  0  0  0  0
    3.1882   -9.7190   17.2566 C   0  0  0  0  0  0  0  0  0  0  0  0
    5.3488   -6.1737   26.5092 C   0  0  0  0  0  0  0  0  0  0  0  0
    7.4567   -6.9464   27.2858 C   0  0  0  0  0  0  0  0  0  0  0  0
    0.1921   -5.7592   27.1123 C   0  0  0  0  0  0  0  0  0  0  0  0
    3.5517   -7.7407   25.9711 C   0  0  0  0  0  0  0  0  0  0  0  0
  1  4  4  0
  1 22  4  0
  2 20  4  0
  2 27  4  0
  3 12  4  0
  3 23  4  0
  4 25  4  0
  4 28  1  0
  5  8  4  0
  5 17  4  0
  6  7  4  0
  6 16  4  0
  7 18  4  0
  8 27  4  0
  9 13  4  0
  9 23  4  0
 10 11  1  0
 11 14  2  0
 11 27  1  0
 12 19  1  0
 12 24  4  0
 13 24  4  0
 15 18  1  0
 16 25  4  0
 16 26  4  0
 17 20  4  0
 17 28  1  0
 18 21  4  0
 21 26  4  0
 22 26  4  0
M  END
$$$$

 Created by Python create_sdf_string function

 28 30  0  0  0  0  0  0  0  0999 V2000
    5.7174   -8.4529   26.7190 C   0  0  0  0  0  0  0  0  0  0  0  0
    0.3974   -7.0711   27.5149 C   0  0  0  0  0  0  0  0  0  0  0  0
    2.5338   -7.6891   16.0102 C   0  0  0  0  0  0  0  0  0  0  0  0
    4.8690   -7.4380   26.4151 C   0  0  0  0  0  0  0  0  0  0  0  0
    2.3021   -5.6726   26.0378 C   0  0  0  0  0  0  0  0  0  0  0  0
    7.0880   -4.6163   27.0010 C   0  0  0  0  0  0  0  0  0  0  0  0
    8.3117   -4.3698   27.4436 C   0  0  0  0  0  0  0  0  0  0  0  0
    1.1339   -5.0515   26.3541 C   0  0  0  0  0  0  0  0  0  0  0  0
    4.8080   -8.0362   16.7101 C   0  0  0  0  0  0  0  0  0  0  0  0
   -1.2173   -3.9294   26.9717 O   0  0  0  0  0  0  0  0  0  0  0  0
   -1.0025   -5.0942   27.4586 C   0  0  0  0  0  0  0  0  0  0  0  0
    2.2474   -8.9123   16.6273 C   0  0  0  0  0  0  0  0  0  0  0  0
    4.4957   -9.2636   17.3041 C   0  0  0  0  0  0  0  0  0  0  0  0
   -1.8070   -5.6086   28.1920 O   0  0  0  0  0  0  0  0  0  0  0  0
   10.4296   -5.1799   28.3140 C   0  0  0  0  0  0  0  0  0  0  0  0
    6.6017   -5.9004   26.9187 C   0  0  0  0  0  0  0  0  0  0  0  0
    2.4761   -6.9940   26.4111 N   0  0  0  0  0  0  0  0  0  0  0  0
    9.1353   -5.4053   27.8239 C   0  0  0  0  0  0  0  0  0  0  0  0
    0.9922   -9.3232   16.5995 O   0  0  0  0  0  0  0  0  0  0  0  0
    1.5232   -7.6869   27.1182 C   0  0  0  0  0  0  0  0  0  0  0  0
    8.6878   -6.6715   27.7262 N   0  0  0  0  0  0  0  0  0  0  0  0
    6.9911   -8.2423   27.1808 C   0  0  0  0  0  0  0  0  0  0  0  0
    3.8436   -7.2758   16.0578 C   0  0  0  0  0  0  0  0  0  0  0  0
    3.1882   -9.7190   17.2566 C   0  0  0  0  0  0  0  0  0  0  0  0
    5.3488   -6.1737   26.5092 C   0  0  0  0  0  0  0  0  0  0  0  0
    7.4567   -6.9464   27.2858 C   0  0  0  0  0  0  0  0  0  0  0  0
    0.1921   -5.7592   27.1123 C   0  0  0  0  0  0  0  0  0  0  0  0
    3.5517   -7.7407   25.9711 C   0  0  0  0  0  0  0  0  0  0  0  0
  1  4  4  0
  1 22  4  0
  2 20  4  0
  2 27  4  0
  3 12  4  0
  3 23  4  0
  4 25  4  0
  4 28  1  0
  5  8  4  0
  5 17  4  0
  6  7  4  0
  6 16  4  0
  7 18  4  0
  8 27  4  0
  9 13  4  0
  9 23  4  0
 10 11  1  0
 11 14  2  0
 11 27  1  0
 12 19  1  0
 12 24  4  0
 13 24  4  0
 15 18  1  0
 16 25  4  0
 16 26  4  0
 17 20  4  0
 17 28  1  0
 18 21  4  0
 21 26  4  0
 22 26  4  0
M  END
$$$$

 Created by Python create_sdf_string function

 28 30  0  0  0  0  0  0  0  0999 V2000
    5.7174   -8.4529   26.7190 C   0  0  0  0  0  0  0  0  0  0  0  0
    0.3974   -7.0711   27.5149 C   0  0  0  0  0  0  0  0  0  0  0  0
    2.5338   -7.6891   16.0102 C   0  0  0  0  0  0  0  0  0  0  0  0
    4.8690   -7.4380   26.4151 C   0  0  0  0  0  0  0  0  0  0  0  0
    2.3021   -5.6726   26.0378 C   0  0  0  0  0  0  0  0  0  0  0  0
    7.0880   -4.6163   27.0010 C   0  0  0  0  0  0  0  0  0  0  0  0
    8.3117   -4.3698   27.4436 C   0  0  0  0  0  0  0  0  0  0  0  0
    1.1339   -5.0515   26.3541 C   0  0  0  0  0  0  0  0  0  0  0  0
    4.8080   -8.0362   16.7101 C   0  0  0  0  0  0  0  0  0  0  0  0
   -1.2173   -3.9294   26.9717 O   0  0  0  0  0  0  0  0  0  0  0  0
   -1.0025   -5.0942   27.4586 C   0  0  0  0  0  0  0  0  0  0  0  0
    2.2474   -8.9123   16.6273 C   0  0  0  0  0  0  0  0  0  0  0  0
    4.4957   -9.2636   17.3041 C   0  0  0  0  0  0  0  0  0  0  0  0
   -1.8070   -5.6086   28.1920 O   0  0  0  0  0  0  0  0  0  0  0  0
   10.4296   -5.1799   28.3140 C   0  0  0  0  0  0  0  0  0  0  0  0
    6.6017   -5.9004   26.9187 C   0  0  0  0  0  0  0  0  0  0  0  0
    2.4761   -6.9940   26.4111 N   0  0  0  0  0  0  0  0  0  0  0  0
    9.1353   -5.4053   27.8239 C   0  0  0  0  0  0  0  0  0  0  0  0
    0.9922   -9.3232   16.5995 O   0  0  0  0  0  0  0  0  0  0  0  0
    1.5232   -7.6869   27.1182 C   0  0  0  0  0  0  0  0  0  0  0  0
    8.6878   -6.6715   27.7262 N   0  0  0  0  0  0  0  0  0  0  0  0
    6.9911   -8.2423   27.1808 C   0  0  0  0  0  0  0  0  0  0  0  0
    3.8436   -7.2758   16.0578 C   0  0  0  0  0  0  0  0  0  0  0  0
    3.1882   -9.7190   17.2566 C   0  0  0  0  0  0  0  0  0  0  0  0
    5.3488   -6.1737   26.5092 C   0  0  0  0  0  0  0  0  0  0  0  0
    7.4567   -6.9464   27.2858 C   0  0  0  0  0  0  0  0  0  0  0  0
    0.1921   -5.7592   27.1123 C   0  0  0  0  0  0  0  0  0  0  0  0
    3.5517   -7.7407   25.9711 C   0  0  0  0  0  0  0  0  0  0  0  0
  1  4  4  0
  1 22  4  0
  2 20  4  0
  2 27  4  0
  3 12  4  0
  3 23  4  0
  4 25  4  0
  4 28  1  0
  5  8  4  0
  5 17  4  0
  6  7  4  0
  6 16  4  0
  7 18  4  0
  8 27  4  0
  9 13  4  0
  9 23  4  0
 10 11  1  0
 11 14  2  0
 11 27  1  0
 12 19  1  0
 12 24  4  0
 13 24  4  0
 15 18  1  0
 16 25  4  0
 16 26  4  0
 17 20  4  0
 17 28  1  0
 18 21  4  0
 21 26  4  0
 22 26  4  0
M  END
$$$$

 Created by Python create_sdf_string function

 28 30  0  0  0  0  0  0  0  0999 V2000
    5.7174   -8.4529   26.7190 C   0  0  0  0  0  0  0  0  0  0  0  0
    0.3974   -7.0711   27.5149 C   0  0  0  0  0  0  0  0  0  0  0  0
    2.5338   -7.6891   16.0102 C   0  0  0  0  0  0  0  0  0  0  0  0
    4.8690   -7.4380   26.4151 C   0  0  0  0  0  0  0  0  0  0  0  0
    2.3021   -5.6726   26.0378 C   0  0  0  0  0  0  0  0  0  0  0  0
    7.0880   -4.6163   27.0010 C   0  0  0  0  0  0  0  0  0  0  0  0
    8.3117   -4.3698   27.4436 C   0  0  0  0  0  0  0  0  0  0  0  0
    1.1339   -5.0515   26.3541 C   0  0  0  0  0  0  0  0  0  0  0  0
    4.8080   -8.0362   16.7101 C   0  0  0  0  0  0  0  0  0  0  0  0
   -1.2173   -3.9294   26.9717 O   0  0  0  0  0  0  0  0  0  0  0  0
   -1.0025   -5.0942   27.4586 C   0  0  0  0  0  0  0  0  0  0  0  0
    2.2474   -8.9123   16.6273 C   0  0  0  0  0  0  0  0  0  0  0  0
    4.4957   -9.2636   17.3041 C   0  0  0  0  0  0  0  0  0  0  0  0
   -1.8070   -5.6086   28.1920 O   0  0  0  0  0  0  0  0  0  0  0  0
   10.4296   -5.1799   28.3140 C   0  0  0  0  0  0  0  0  0  0  0  0
    6.6017   -5.9004   26.9187 C   0  0  0  0  0  0  0  0  0  0  0  0
    2.4761   -6.9940   26.4111 N   0  0  0  0  0  0  0  0  0  0  0  0
    9.1353   -5.4053   27.8239 C   0  0  0  0  0  0  0  0  0  0  0  0
    0.9922   -9.3232   16.5995 O   0  0  0  0  0  0  0  0  0  0  0  0
    1.5232   -7.6869   27.1182 C   0  0  0  0  0  0  0  0  0  0  0  0
    8.6878   -6.6715   27.7262 N   0  0  0  0  0  0  0  0  0  0  0  0
    6.9911   -8.2423   27.1808 C   0  0  0  0  0  0  0  0  0  0  0  0
    3.8436   -7.2758   16.0578 C   0  0  0  0  0  0  0  0  0  0  0  0
    3.1882   -9.7190   17.2566 C   0  0  0  0  0  0  0  0  0  0  0  0
    5.3488   -6.1737   26.5092 C   0  0  0  0  0  0  0  0  0  0  0  0
    7.4567   -6.9464   27.2858 C   0  0  0  0  0  0  0  0  0  0  0  0
    0.1921   -5.7592   27.1123 C   0  0  0  0  0  0  0  0  0  0  0  0
    3.5517   -7.7407   25.9711 C   0  0  0  0  0  0  0  0  0  0  0  0
  1  4  4  0
  1 22  4  0
  2 20  4  0
  2 27  4  0
  3 12  4  0
  3 23  4  0
  4 25  4  0
  4 28  1  0
  5  8  4  0
  5 17  4  0
  6  7  4  0
  6 16  4  0
  7 18  4  0
  8 27  4  0
  9 13  4  0
  9 23  4  0
 10 11  1  0
 11 14  2  0
 11 27  1  0
 12 19  1  0
 12 24  4  0
 13 24  4  0
 15 18  1  0
 16 25  4  0
 16 26  4  0
 17 20  4  0
 17 28  1  0
 18 21  4  0
 21 26  4  0
 22 26  4  0
M  END
$$$$

 Created by Python create_sdf_string function

 28 30  0  0  0  0  0  0  0  0999 V2000
    5.7174   -8.4529   26.7190 C   0  0  0  0  0  0  0  0  0  0  0  0
    0.3974   -7.0711   27.5149 C   0  0  0  0  0  0  0  0  0  0  0  0
    2.5338   -7.6891   16.0102 C   0  0  0  0  0  0  0  0  0  0  0  0
    4.8690   -7.4380   26.4151 C   0  0  0  0  0  0  0  0  0  0  0  0
    2.3021   -5.6726   26.0378 C   0  0  0  0  0  0  0  0  0  0  0  0
    7.0880   -4.6163   27.0010 C   0  0  0  0  0  0  0  0  0  0  0  0
    8.3117   -4.3698   27.4436 C   0  0  0  0  0  0  0  0  0  0  0  0
    1.1339   -5.0515   26.3541 C   0  0  0  0  0  0  0  0  0  0  0  0
    4.8080   -8.0362   16.7101 C   0  0  0  0  0  0  0  0  0  0  0  0
   -1.2173   -3.9294   26.9717 O   0  0  0  0  0  0  0  0  0  0  0  0
   -1.0025   -5.0942   27.4586 C   0  0  0  0  0  0  0  0  0  0  0  0
    2.2474   -8.9123   16.6273 C   0  0  0  0  0  0  0  0  0  0  0  0
    4.4957   -9.2636   17.3041 C   0  0  0  0  0  0  0  0  0  0  0  0
   -1.8070   -5.6086   28.1920 O   0  0  0  0  0  0  0  0  0  0  0  0
   10.4296   -5.1799   28.3140 C   0  0  0  0  0  0  0  0  0  0  0  0
    6.6017   -5.9004   26.9187 C   0  0  0  0  0  0  0  0  0  0  0  0
    2.4761   -6.9940   26.4111 N   0  0  0  0  0  0  0  0  0  0  0  0
    9.1353   -5.4053   27.8239 C   0  0  0  0  0  0  0  0  0  0  0  0
    0.9922   -9.3232   16.5995 O   0  0  0  0  0  0  0  0  0  0  0  0
    1.5232   -7.6869   27.1182 C   0  0  0  0  0  0  0  0  0  0  0  0
    8.6878   -6.6715   27.7262 N   0  0  0  0  0  0  0  0  0  0  0  0
    6.9911   -8.2423   27.1808 C   0  0  0  0  0  0  0  0  0  0  0  0
    3.8436   -7.2758   16.0578 C   0  0  0  0  0  0  0  0  0  0  0  0
    3.1882   -9.7190   17.2566 C   0  0  0  0  0  0  0  0  0  0  0  0
    5.3488   -6.1737   26.5092 C   0  0  0  0  0  0  0  0  0  0  0  0
    7.4567   -6.9464   27.2858 C   0  0  0  0  0  0  0  0  0  0  0  0
    0.1921   -5.7592   27.1123 C   0  0  0  0  0  0  0  0  0  0  0  0
    3.5517   -7.7407   25.9711 C   0  0  0  0  0  0  0  0  0  0  0  0
  1  4  4  0
  1 22  4  0
  2 20  4  0
  2 27  4  0
  3 12  4  0
  3 23  4  0
  4 25  4  0
  4 28  1  0
  5  8  4  0
  5 17  4  0
  6  7  4  0
  6 16  4  0
  7 18  4  0
  8 27  4  0
  9 13  4  0
  9 23  4  0
 10 11  1  0
 11 14  2  0
 11 27  1  0
 12 19  1  0
 12 24  4  0
 13 24  4  0
 15 18  1  0
 16 25  4  0
 16 26  4  0
 17 20  4  0
 17 28  1  0
 18 21  4  0
 21 26  4  0
 22 26  4  0
M  END
$$$$

 Created by Python create_sdf_string function

 28 30  0  0  0  0  0  0  0  0999 V2000
    5.7174   -8.4529   26.7190 C   0  0  0  0  0  0  0  0  0  0  0  0
    0.3974   -7.0711   27.5149 C   0  0  0  0  0  0  0  0  0  0  0  0
    2.5338   -7.6891   16.0102 C   0  0  0  0  0  0  0  0  0  0  0  0
    4.8690   -7.4380   26.4151 C   0  0  0  0  0  0  0  0  0  0  0  0
    2.3021   -5.6726   26.0378 C   0  0  0  0  0  0  0  0  0  0  0  0
    7.0880   -4.6163   27.0010 C   0  0  0  0  0  0  0  0  0  0  0  0
    8.3117   -4.3698   27.4436 C   0  0  0  0  0  0  0  0  0  0  0  0
    1.1339   -5.0515   26.3541 C   0  0  0  0  0  0  0  0  0  0  0  0
    4.8080   -8.0362   16.7101 C   0  0  0  0  0  0  0  0  0  0  0  0
   -1.2173   -3.9294   26.9717 O   0  0  0  0  0  0  0  0  0  0  0  0
   -1.0025   -5.0942   27.4586 C   0  0  0  0  0  0  0  0  0  0  0  0
    2.2474   -8.9123   16.6273 C   0  0  0  0  0  0  0  0  0  0  0  0
    4.4957   -9.2636   17.3041 C   0  0  0  0  0  0  0  0  0  0  0  0
   -1.8070   -5.6086   28.1920 O   0  0  0  0  0  0  0  0  0  0  0  0
   10.4296   -5.1799   28.3140 C   0  0  0  0  0  0  0  0  0  0  0  0
    6.6017   -5.9004   26.9187 C   0  0  0  0  0  0  0  0  0  0  0  0
    2.4761   -6.9940   26.4111 N   0  0  0  0  0  0  0  0  0  0  0  0
    9.1353   -5.4053   27.8239 C   0  0  0  0  0  0  0  0  0  0  0  0
    0.9922   -9.3232   16.5995 O   0  0  0  0  0  0  0  0  0  0  0  0
    1.5232   -7.6869   27.1182 C   0  0  0  0  0  0  0  0  0  0  0  0
    8.6878   -6.6715   27.7262 N   0  0  0  0  0  0  0  0  0  0  0  0
    6.9911   -8.2423   27.1808 C   0  0  0  0  0  0  0  0  0  0  0  0
    3.8436   -7.2758   16.0578 C   0  0  0  0  0  0  0  0  0  0  0  0
    3.1882   -9.7190   17.2566 C   0  0  0  0  0  0  0  0  0  0  0  0
    5.3488   -6.1737   26.5092 C   0  0  0  0  0  0  0  0  0  0  0  0
    7.4567   -6.9464   27.2858 C   0  0  0  0  0  0  0  0  0  0  0  0
    0.1921   -5.7592   27.1123 C   0  0  0  0  0  0  0  0  0  0  0  0
    3.5517   -7.7407   25.9711 C   0  0  0  0  0  0  0  0  0  0  0  0
  1  4  4  0
  1 22  4  0
  2 20  4  0
  2 27  4  0
  3 12  4  0
  3 23  4  0
  4 25  4  0
  4 28  1  0
  5  8  4  0
  5 17  4  0
  6  7  4  0
  6 16  4  0
  7 18  4  0
  8 27  4  0
  9 13  4  0
  9 23  4  0
 10 11  1  0
 11 14  2  0
 11 27  1  0
 12 19  1  0
 12 24  4  0
 13 24  4  0
 15 18  1  0
 16 25  4  0
 16 26  4  0
 17 20  4  0
 17 28  1  0
 18 21  4  0
 21 26  4  0
 22 26  4  0
M  END
$$$$

 Created by Python create_sdf_string function

 28 30  0  0  0  0  0  0  0  0999 V2000
    5.7174   -8.4529   26.7190 C   0  0  0  0  0  0  0  0  0  0  0  0
    0.3974   -7.0711   27.5149 C   0  0  0  0  0  0  0  0  0  0  0  0
    2.5338   -7.6891   16.0102 C   0  0  0  0  0  0  0  0  0  0  0  0
    4.8690   -7.4380   26.4151 C   0  0  0  0  0  0  0  0  0  0  0  0
    2.3021   -5.6726   26.0378 C   0  0  0  0  0  0  0  0  0  0  0  0
    7.0880   -4.6163   27.0010 C   0  0  0  0  0  0  0  0  0  0  0  0
    8.3117   -4.3698   27.4436 C   0  0  0  0  0  0  0  0  0  0  0  0
    1.1339   -5.0515   26.3541 C   0  0  0  0  0  0  0  0  0  0  0  0
    4.8080   -8.0362   16.7101 C   0  0  0  0  0  0  0  0  0  0  0  0
   -1.2173   -3.9294   26.9717 O   0  0  0  0  0  0  0  0  0  0  0  0
   -1.0025   -5.0942   27.4586 C   0  0  0  0  0  0  0  0  0  0  0  0
    2.2474   -8.9123   16.6273 C   0  0  0  0  0  0  0  0  0  0  0  0
    4.4957   -9.2636   17.3041 C   0  0  0  0  0  0  0  0  0  0  0  0
   -1.8070   -5.6086   28.1920 O   0  0  0  0  0  0  0  0  0  0  0  0
   10.4296   -5.1799   28.3140 C   0  0  0  0  0  0  0  0  0  0  0  0
    6.6017   -5.9004   26.9187 C   0  0  0  0  0  0  0  0  0  0  0  0
    2.4761   -6.9940   26.4111 N   0  0  0  0  0  0  0  0  0  0  0  0
    9.1353   -5.4053   27.8239 C   0  0  0  0  0  0  0  0  0  0  0  0
    0.9922   -9.3232   16.5995 O   0  0  0  0  0  0  0  0  0  0  0  0
    1.5232   -7.6869   27.1182 C   0  0  0  0  0  0  0  0  0  0  0  0
    8.6878   -6.6715   27.7262 N   0  0  0  0  0  0  0  0  0  0  0  0
    6.9911   -8.2423   27.1808 C   0  0  0  0  0  0  0  0  0  0  0  0
    3.8436   -7.2758   16.0578 C   0  0  0  0  0  0  0  0  0  0  0  0
    3.1882   -9.7190   17.2566 C   0  0  0  0  0  0  0  0  0  0  0  0
    5.3488   -6.1737   26.5092 C   0  0  0  0  0  0  0  0  0  0  0  0
    7.4567   -6.9464   27.2858 C   0  0  0  0  0  0  0  0  0  0  0  0
    0.1921   -5.7592   27.1123 C   0  0  0  0  0  0  0  0  0  0  0  0
    3.5517   -7.7407   25.9711 C   0  0  0  0  0  0  0  0  0  0  0  0
  1  4  4  0
  1 22  4  0
  2 20  4  0
  2 27  4  0
  3 12  4  0
  3 23  4  0
  4 25  4  0
  4 28  1  0
  5  8  4  0
  5 17  4  0
  6  7  4  0
  6 16  4  0
  7 18  4  0
  8 27  4  0
  9 13  4  0
  9 23  4  0
 10 11  1  0
 11 14  2  0
 11 27  1  0
 12 19  1  0
 12 24  4  0
 13 24  4  0
 15 18  1  0
 16 25  4  0
 16 26  4  0
 17 20  4  0
 17 28  1  0
 18 21  4  0
 21 26  4  0
 22 26  4  0
M  END
$$$$

 Created by Python create_sdf_string function

 28 30  0  0  0  0  0  0  0  0999 V2000
    5.7174   -8.4529   26.7190 C   0  0  0  0  0  0  0  0  0  0  0  0
    0.3974   -7.0711   27.5149 C   0  0  0  0  0  0  0  0  0  0  0  0
    2.5338   -7.6891   16.0102 C   0  0  0  0  0  0  0  0  0  0  0  0
    4.8690   -7.4380   26.4151 C   0  0  0  0  0  0  0  0  0  0  0  0
    2.3021   -5.6726   26.0378 C   0  0  0  0  0  0  0  0  0  0  0  0
    7.0880   -4.6163   27.0010 C   0  0  0  0  0  0  0  0  0  0  0  0
    8.3117   -4.3698   27.4436 C   0  0  0  0  0  0  0  0  0  0  0  0
    1.1339   -5.0515   26.3541 C   0  0  0  0  0  0  0  0  0  0  0  0
    4.8080   -8.0362   16.7101 C   0  0  0  0  0  0  0  0  0  0  0  0
   -1.2173   -3.9294   26.9717 O   0  0  0  0  0  0  0  0  0  0  0  0
   -1.0025   -5.0942   27.4586 C   0  0  0  0  0  0  0  0  0  0  0  0
    2.2474   -8.9123   16.6273 C   0  0  0  0  0  0  0  0  0  0  0  0
    4.4957   -9.2636   17.3041 C   0  0  0  0  0  0  0  0  0  0  0  0
   -1.8070   -5.6086   28.1920 O   0  0  0  0  0  0  0  0  0  0  0  0
   10.4296   -5.1799   28.3140 C   0  0  0  0  0  0  0  0  0  0  0  0
    6.6017   -5.9004   26.9187 C   0  0  0  0  0  0  0  0  0  0  0  0
    2.4761   -6.9940   26.4111 N   0  0  0  0  0  0  0  0  0  0  0  0
    9.1353   -5.4053   27.8239 C   0  0  0  0  0  0  0  0  0  0  0  0
    0.9922   -9.3232   16.5995 O   0  0  0  0  0  0  0  0  0  0  0  0
    1.5232   -7.6869   27.1182 C   0  0  0  0  0  0  0  0  0  0  0  0
    8.6878   -6.6715   27.7262 N   0  0  0  0  0  0  0  0  0  0  0  0
    6.9911   -8.2423   27.1808 C   0  0  0  0  0  0  0  0  0  0  0  0
    3.8436   -7.2758   16.0578 C   0  0  0  0  0  0  0  0  0  0  0  0
    3.1882   -9.7190   17.2566 C   0  0  0  0  0  0  0  0  0  0  0  0
    5.3488   -6.1737   26.5092 C   0  0  0  0  0  0  0  0  0  0  0  0
    7.4567   -6.9464   27.2858 C   0  0  0  0  0  0  0  0  0  0  0  0
    0.1921   -5.7592   27.1123 C   0  0  0  0  0  0  0  0  0  0  0  0
    3.5517   -7.7407   25.9711 C   0  0  0  0  0  0  0  0  0  0  0  0
  1  4  4  0
  1 22  4  0
  2 20  4  0
  2 27  4  0
  3 12  4  0
  3 23  4  0
  4 25  4  0
  4 28  1  0
  5  8  4  0
  5 17  4  0
  6  7  4  0
  6 16  4  0
  7 18  4  0
  8 27  4  0
  9 13  4  0
  9 23  4  0
 10 11  1  0
 11 14  2  0
 11 27  1  0
 12 19  1  0
 12 24  4  0
 13 24  4  0
 15 18  1  0
 16 25  4  0
 16 26  4  0
 17 20  4  0
 17 28  1  0
 18 21  4  0
 21 26  4  0
 22 26  4  0
M  END
$$$$

 Created by Python create_sdf_string function

 28 30  0  0  0  0  0  0  0  0999 V2000
    5.7174   -8.4529   26.7190 C   0  0  0  0  0  0  0  0  0  0  0  0
    0.3974   -7.0711   27.5149 C   0  0  0  0  0  0  0  0  0  0  0  0
    2.5338   -7.6891   16.0102 C   0  0  0  0  0  0  0  0  0  0  0  0
    4.8690   -7.4380   26.4151 C   0  0  0  0  0  0  0  0  0  0  0  0
    2.3021   -5.6726   26.0378 C   0  0  0  0  0  0  0  0  0  0  0  0
    7.0880   -4.6163   27.0010 C   0  0  0  0  0  0  0  0  0  0  0  0
    8.3117   -4.3698   27.4436 C   0  0  0  0  0  0  0  0  0  0  0  0
    1.1339   -5.0515   26.3541 C   0  0  0  0  0  0  0  0  0  0  0  0
    4.8080   -8.0362   16.7101 C   0  0  0  0  0  0  0  0  0  0  0  0
   -1.2173   -3.9294   26.9717 O   0  0  0  0  0  0  0  0  0  0  0  0
   -1.0025   -5.0942   27.4586 C   0  0  0  0  0  0  0  0  0  0  0  0
    2.2474   -8.9123   16.6273 C   0  0  0  0  0  0  0  0  0  0  0  0
    4.4957   -9.2636   17.3041 C   0  0  0  0  0  0  0  0  0  0  0  0
   -1.8070   -5.6086   28.1920 O   0  0  0  0  0  0  0  0  0  0  0  0
   10.4296   -5.1799   28.3140 C   0  0  0  0  0  0  0  0  0  0  0  0
    6.6017   -5.9004   26.9187 C   0  0  0  0  0  0  0  0  0  0  0  0
    2.4761   -6.9940   26.4111 N   0  0  0  0  0  0  0  0  0  0  0  0
    9.1353   -5.4053   27.8239 C   0  0  0  0  0  0  0  0  0  0  0  0
    0.9922   -9.3232   16.5995 O   0  0  0  0  0  0  0  0  0  0  0  0
    1.5232   -7.6869   27.1182 C   0  0  0  0  0  0  0  0  0  0  0  0
    8.6878   -6.6715   27.7262 N   0  0  0  0  0  0  0  0  0  0  0  0
    6.9911   -8.2423   27.1808 C   0  0  0  0  0  0  0  0  0  0  0  0
    3.8436   -7.2758   16.0578 C   0  0  0  0  0  0  0  0  0  0  0  0
    3.1882   -9.7190   17.2566 C   0  0  0  0  0  0  0  0  0  0  0  0
    5.3488   -6.1737   26.5092 C   0  0  0  0  0  0  0  0  0  0  0  0
    7.4567   -6.9464   27.2858 C   0  0  0  0  0  0  0  0  0  0  0  0
    0.1921   -5.7592   27.1123 C   0  0  0  0  0  0  0  0  0  0  0  0
    3.5517   -7.7407   25.9711 C   0  0  0  0  0  0  0  0  0  0  0  0
  1  4  4  0
  1 22  4  0
  2 20  4  0
  2 27  4  0
  3 12  4  0
  3 23  4  0
  4 25  4  0
  4 28  1  0
  5  8  4  0
  5 17  4  0
  6  7  4  0
  6 16  4  0
  7 18  4  0
  8 27  4  0
  9 13  4  0
  9 23  4  0
 10 11  1  0
 11 14  2  0
 11 27  1  0
 12 19  1  0
 12 24  4  0
 13 24  4  0
 15 18  1  0
 16 25  4  0
 16 26  4  0
 17 20  4  0
 17 28  1  0
 18 21  4  0
 21 26  4  0
 22 26  4  0
M  END
$$$$

 Created by Python create_sdf_string function

 28 30  0  0  0  0  0  0  0  0999 V2000
    5.7174   -8.4529   26.7190 C   0  0  0  0  0  0  0  0  0  0  0  0
    0.3974   -7.0711   27.5149 C   0  0  0  0  0  0  0  0  0  0  0  0
    2.5338   -7.6891   16.0102 C   0  0  0  0  0  0  0  0  0  0  0  0
    4.8690   -7.4380   26.4151 C   0  0  0  0  0  0  0  0  0  0  0  0
    2.3021   -5.6726   26.0378 C   0  0  0  0  0  0  0  0  0  0  0  0
    7.0880   -4.6163   27.0010 C   0  0  0  0  0  0  0  0  0  0  0  0
    8.3117   -4.3698   27.4436 C   0  0  0  0  0  0  0  0  0  0  0  0
    1.1339   -5.0515   26.3541 C   0  0  0  0  0  0  0  0  0  0  0  0
    4.8080   -8.0362   16.7101 C   0  0  0  0  0  0  0  0  0  0  0  0
   -1.2173   -3.9294   26.9717 O   0  0  0  0  0  0  0  0  0  0  0  0
   -1.0025   -5.0942   27.4586 C   0  0  0  0  0  0  0  0  0  0  0  0
    2.2474   -8.9123   16.6273 C   0  0  0  0  0  0  0  0  0  0  0  0
    4.4957   -9.2636   17.3041 C   0  0  0  0  0  0  0  0  0  0  0  0
   -1.8070   -5.6086   28.1920 O   0  0  0  0  0  0  0  0  0  0  0  0
   10.4296   -5.1799   28.3140 C   0  0  0  0  0  0  0  0  0  0  0  0
    6.6017   -5.9004   26.9187 C   0  0  0  0  0  0  0  0  0  0  0  0
    2.4761   -6.9940   26.4111 N   0  0  0  0  0  0  0  0  0  0  0  0
    9.1353   -5.4053   27.8239 C   0  0  0  0  0  0  0  0  0  0  0  0
    0.9922   -9.3232   16.5995 O   0  0  0  0  0  0  0  0  0  0  0  0
    1.5232   -7.6869   27.1182 C   0  0  0  0  0  0  0  0  0  0  0  0
    8.6878   -6.6715   27.7262 N   0  0  0  0  0  0  0  0  0  0  0  0
    6.9911   -8.2423   27.1808 C   0  0  0  0  0  0  0  0  0  0  0  0
    3.8436   -7.2758   16.0578 C   0  0  0  0  0  0  0  0  0  0  0  0
    3.1882   -9.7190   17.2566 C   0  0  0  0  0  0  0  0  0  0  0  0
    5.3488   -6.1737   26.5092 C   0  0  0  0  0  0  0  0  0  0  0  0
    7.4567   -6.9464   27.2858 C   0  0  0  0  0  0  0  0  0  0  0  0
    0.1921   -5.7592   27.1123 C   0  0  0  0  0  0  0  0  0  0  0  0
    3.5517   -7.7407   25.9711 C   0  0  0  0  0  0  0  0  0  0  0  0
  1  4  4  0
  1 22  4  0
  2 20  4  0
  2 27  4  0
  3 12  4  0
  3 23  4  0
  4 25  4  0
  4 28  1  0
  5  8  4  0
  5 17  4  0
  6  7  4  0
  6 16  4  0
  7 18  4  0
  8 27  4  0
  9 13  4  0
  9 23  4  0
 10 11  1  0
 11 14  2  0
 11 27  1  0
 12 19  1  0
 12 24  4  0
 13 24  4  0
 15 18  1  0
 16 25  4  0
 16 26  4  0
 17 20  4  0
 17 28  1  0
 18 21  4  0
 21 26  4  0
 22 26  4  0
M  END
$$$$

 Created by Python create_sdf_string function

 28 30  0  0  0  0  0  0  0  0999 V2000
    5.7174   -8.4529   26.7190 C   0  0  0  0  0  0  0  0  0  0  0  0
    0.3974   -7.0711   27.5149 C   0  0  0  0  0  0  0  0  0  0  0  0
    2.5338   -7.6891   16.0102 C   0  0  0  0  0  0  0  0  0  0  0  0
    4.8690   -7.4380   26.4151 C   0  0  0  0  0  0  0  0  0  0  0  0
    2.3021   -5.6726   26.0378 C   0  0  0  0  0  0  0  0  0  0  0  0
    7.0880   -4.6163   27.0010 C   0  0  0  0  0  0  0  0  0  0  0  0
    8.3117   -4.3698   27.4436 C   0  0  0  0  0  0  0  0  0  0  0  0
    1.1339   -5.0515   26.3541 C   0  0  0  0  0  0  0  0  0  0  0  0
    4.8080   -8.0362   16.7101 C   0  0  0  0  0  0  0  0  0  0  0  0
   -1.2173   -3.9294   26.9717 O   0  0  0  0  0  0  0  0  0  0  0  0
   -1.0025   -5.0942   27.4586 C   0  0  0  0  0  0  0  0  0  0  0  0
    2.2474   -8.9123   16.6273 C   0  0  0  0  0  0  0  0  0  0  0  0
    4.4957   -9.2636   17.3041 C   0  0  0  0  0  0  0  0  0  0  0  0
   -1.8070   -5.6086   28.1920 O   0  0  0  0  0  0  0  0  0  0  0  0
   10.4296   -5.1799   28.3140 C   0  0  0  0  0  0  0  0  0  0  0  0
    6.6017   -5.9004   26.9187 C   0  0  0  0  0  0  0  0  0  0  0  0
    2.4761   -6.9940   26.4111 N   0  0  0  0  0  0  0  0  0  0  0  0
    9.1353   -5.4053   27.8239 C   0  0  0  0  0  0  0  0  0  0  0  0
    0.9922   -9.3232   16.5995 O   0  0  0  0  0  0  0  0  0  0  0  0
    1.5232   -7.6869   27.1182 C   0  0  0  0  0  0  0  0  0  0  0  0
    8.6878   -6.6715   27.7262 N   0  0  0  0  0  0  0  0  0  0  0  0
    6.9911   -8.2423   27.1808 C   0  0  0  0  0  0  0  0  0  0  0  0
    3.8436   -7.2758   16.0578 C   0  0  0  0  0  0  0  0  0  0  0  0
    3.1882   -9.7190   17.2566 C   0  0  0  0  0  0  0  0  0  0  0  0
    5.3488   -6.1737   26.5092 C   0  0  0  0  0  0  0  0  0  0  0  0
    7.4567   -6.9464   27.2858 C   0  0  0  0  0  0  0  0  0  0  0  0
    0.1921   -5.7592   27.1123 C   0  0  0  0  0  0  0  0  0  0  0  0
    3.5517   -7.7407   25.9711 C   0  0  0  0  0  0  0  0  0  0  0  0
  1  4  4  0
  1 22  4  0
  2 20  4  0
  2 27  4  0
  3 12  4  0
  3 23  4  0
  4 25  4  0
  4 28  1  0
  5  8  4  0
  5 17  4  0
  6  7  4  0
  6 16  4  0
  7 18  4  0
  8 27  4  0
  9 13  4  0
  9 23  4  0
 10 11  1  0
 11 14  2  0
 11 27  1  0
 12 19  1  0
 12 24  4  0
 13 24  4  0
 15 18  1  0
 16 25  4  0
 16 26  4  0
 17 20  4  0
 17 28  1  0
 18 21  4  0
 21 26  4  0
 22 26  4  0
M  END
$$$$

 Created by Python create_sdf_string function

 28 30  0  0  0  0  0  0  0  0999 V2000
    5.7174   -8.4529   26.7190 C   0  0  0  0  0  0  0  0  0  0  0  0
    0.3974   -7.0711   27.5149 C   0  0  0  0  0  0  0  0  0  0  0  0
    2.5338   -7.6891   16.0102 C   0  0  0  0  0  0  0  0  0  0  0  0
    4.8690   -7.4380   26.4151 C   0  0  0  0  0  0  0  0  0  0  0  0
    2.3021   -5.6726   26.0378 C   0  0  0  0  0  0  0  0  0  0  0  0
    7.0880   -4.6163   27.0010 C   0  0  0  0  0  0  0  0  0  0  0  0
    8.3117   -4.3698   27.4436 C   0  0  0  0  0  0  0  0  0  0  0  0
    1.1339   -5.0515   26.3541 C   0  0  0  0  0  0  0  0  0  0  0  0
    4.8080   -8.0362   16.7101 C   0  0  0  0  0  0  0  0  0  0  0  0
   -1.2173   -3.9294   26.9717 O   0  0  0  0  0  0  0  0  0  0  0  0
   -1.0025   -5.0942   27.4586 C   0  0  0  0  0  0  0  0  0  0  0  0
    2.2474   -8.9123   16.6273 C   0  0  0  0  0  0  0  0  0  0  0  0
    4.4957   -9.2636   17.3041 C   0  0  0  0  0  0  0  0  0  0  0  0
   -1.8070   -5.6086   28.1920 O   0  0  0  0  0  0  0  0  0  0  0  0
   10.4296   -5.1799   28.3140 C   0  0  0  0  0  0  0  0  0  0  0  0
    6.6017   -5.9004   26.9187 C   0  0  0  0  0  0  0  0  0  0  0  0
    2.4761   -6.9940   26.4111 N   0  0  0  0  0  0  0  0  0  0  0  0
    9.1353   -5.4053   27.8239 C   0  0  0  0  0  0  0  0  0  0  0  0
    0.9922   -9.3232   16.5995 O   0  0  0  0  0  0  0  0  0  0  0  0
    1.5232   -7.6869   27.1182 C   0  0  0  0  0  0  0  0  0  0  0  0
    8.6878   -6.6715   27.7262 N   0  0  0  0  0  0  0  0  0  0  0  0
    6.9911   -8.2423   27.1808 C   0  0  0  0  0  0  0  0  0  0  0  0
    3.8436   -7.2758   16.0578 C   0  0  0  0  0  0  0  0  0  0  0  0
    3.1882   -9.7190   17.2566 C   0  0  0  0  0  0  0  0  0  0  0  0
    5.3488   -6.1737   26.5092 C   0  0  0  0  0  0  0  0  0  0  0  0
    7.4567   -6.9464   27.2858 C   0  0  0  0  0  0  0  0  0  0  0  0
    0.1921   -5.7592   27.1123 C   0  0  0  0  0  0  0  0  0  0  0  0
    3.5517   -7.7407   25.9711 C   0  0  0  0  0  0  0  0  0  0  0  0
  1  4  4  0
  1 22  4  0
  2 20  4  0
  2 27  4  0
  3 12  4  0
  3 23  4  0
  4 25  4  0
  4 28  1  0
  5  8  4  0
  5 17  4  0
  6  7  4  0
  6 16  4  0
  7 18  4  0
  8 27  4  0
  9 13  4  0
  9 23  4  0
 10 11  1  0
 11 14  2  0
 11 27  1  0
 12 19  1  0
 12 24  4  0
 13 24  4  0
 15 18  1  0
 16 25  4  0
 16 26  4  0
 17 20  4  0
 17 28  1  0
 18 21  4  0
 21 26  4  0
 22 26  4  0
M  END
$$$$

 Created by Python create_sdf_string function

 28 30  0  0  0  0  0  0  0  0999 V2000
    5.7174   -8.4529   26.7190 C   0  0  0  0  0  0  0  0  0  0  0  0
    0.3974   -7.0711   27.5149 C   0  0  0  0  0  0  0  0  0  0  0  0
    2.5338   -7.6891   16.0102 C   0  0  0  0  0  0  0  0  0  0  0  0
    4.8690   -7.4380   26.4151 C   0  0  0  0  0  0  0  0  0  0  0  0
    2.3021   -5.6726   26.0378 C   0  0  0  0  0  0  0  0  0  0  0  0
    7.0880   -4.6163   27.0010 C   0  0  0  0  0  0  0  0  0  0  0  0
    8.3117   -4.3698   27.4436 C   0  0  0  0  0  0  0  0  0  0  0  0
    1.1339   -5.0515   26.3541 C   0  0  0  0  0  0  0  0  0  0  0  0
    4.8080   -8.0362   16.7101 C   0  0  0  0  0  0  0  0  0  0  0  0
   -1.2173   -3.9294   26.9717 O   0  0  0  0  0  0  0  0  0  0  0  0
   -1.0025   -5.0942   27.4586 C   0  0  0  0  0  0  0  0  0  0  0  0
    2.2474   -8.9123   16.6273 C   0  0  0  0  0  0  0  0  0  0  0  0
    4.4957   -9.2636   17.3041 C   0  0  0  0  0  0  0  0  0  0  0  0
   -1.8070   -5.6086   28.1920 O   0  0  0  0  0  0  0  0  0  0  0  0
   10.4296   -5.1799   28.3140 C   0  0  0  0  0  0  0  0  0  0  0  0
    6.6017   -5.9004   26.9187 C   0  0  0  0  0  0  0  0  0  0  0  0
    2.4761   -6.9940   26.4111 N   0  0  0  0  0  0  0  0  0  0  0  0
    9.1353   -5.4053   27.8239 C   0  0  0  0  0  0  0  0  0  0  0  0
    0.9922   -9.3232   16.5995 O   0  0  0  0  0  0  0  0  0  0  0  0
    1.5232   -7.6869   27.1182 C   0  0  0  0  0  0  0  0  0  0  0  0
    8.6878   -6.6715   27.7262 N   0  0  0  0  0  0  0  0  0  0  0  0
    6.9911   -8.2423   27.1808 C   0  0  0  0  0  0  0  0  0  0  0  0
    3.8436   -7.2758   16.0578 C   0  0  0  0  0  0  0  0  0  0  0  0
    3.1882   -9.7190   17.2566 C   0  0  0  0  0  0  0  0  0  0  0  0
    5.3488   -6.1737   26.5092 C   0  0  0  0  0  0  0  0  0  0  0  0
    7.4567   -6.9464   27.2858 C   0  0  0  0  0  0  0  0  0  0  0  0
    0.1921   -5.7592   27.1123 C   0  0  0  0  0  0  0  0  0  0  0  0
    3.5517   -7.7407   25.9711 C   0  0  0  0  0  0  0  0  0  0  0  0
  1  4  4  0
  1 22  4  0
  2 20  4  0
  2 27  4  0
  3 12  4  0
  3 23  4  0
  4 25  4  0
  4 28  1  0
  5  8  4  0
  5 17  4  0
  6  7  4  0
  6 16  4  0
  7 18  4  0
  8 27  4  0
  9 13  4  0
  9 23  4  0
 10 11  1  0
 11 14  2  0
 11 27  1  0
 12 19  1  0
 12 24  4  0
 13 24  4  0
 15 18  1  0
 16 25  4  0
 16 26  4  0
 17 20  4  0
 17 28  1  0
 18 21  4  0
 21 26  4  0
 22 26  4  0
M  END
$$$$

 Created by Python create_sdf_string function

 28 30  0  0  0  0  0  0  0  0999 V2000
    5.7174   -8.4529   26.7190 C   0  0  0  0  0  0  0  0  0  0  0  0
    0.3974   -7.0711   27.5149 C   0  0  0  0  0  0  0  0  0  0  0  0
    2.5338   -7.6891   16.0102 C   0  0  0  0  0  0  0  0  0  0  0  0
    4.8690   -7.4380   26.4151 C   0  0  0  0  0  0  0  0  0  0  0  0
    2.3021   -5.6726   26.0378 C   0  0  0  0  0  0  0  0  0  0  0  0
    7.0880   -4.6163   27.0010 C   0  0  0  0  0  0  0  0  0  0  0  0
    8.3117   -4.3698   27.4436 C   0  0  0  0  0  0  0  0  0  0  0  0
    1.1339   -5.0515   26.3541 C   0  0  0  0  0  0  0  0  0  0  0  0
    4.8080   -8.0362   16.7101 C   0  0  0  0  0  0  0  0  0  0  0  0
   -1.2173   -3.9294   26.9717 O   0  0  0  0  0  0  0  0  0  0  0  0
   -1.0025   -5.0942   27.4586 C   0  0  0  0  0  0  0  0  0  0  0  0
    2.2474   -8.9123   16.6273 C   0  0  0  0  0  0  0  0  0  0  0  0
    4.4957   -9.2636   17.3041 C   0  0  0  0  0  0  0  0  0  0  0  0
   -1.8070   -5.6086   28.1920 O   0  0  0  0  0  0  0  0  0  0  0  0
   10.4296   -5.1799   28.3140 C   0  0  0  0  0  0  0  0  0  0  0  0
    6.6017   -5.9004   26.9187 C   0  0  0  0  0  0  0  0  0  0  0  0
    2.4761   -6.9940   26.4111 N   0  0  0  0  0  0  0  0  0  0  0  0
    9.1353   -5.4053   27.8239 C   0  0  0  0  0  0  0  0  0  0  0  0
    0.9922   -9.3232   16.5995 O   0  0  0  0  0  0  0  0  0  0  0  0
    1.5232   -7.6869   27.1182 C   0  0  0  0  0  0  0  0  0  0  0  0
    8.6878   -6.6715   27.7262 N   0  0  0  0  0  0  0  0  0  0  0  0
    6.9911   -8.2423   27.1808 C   0  0  0  0  0  0  0  0  0  0  0  0
    3.8436   -7.2758   16.0578 C   0  0  0  0  0  0  0  0  0  0  0  0
    3.1882   -9.7190   17.2566 C   0  0  0  0  0  0  0  0  0  0  0  0
    5.3488   -6.1737   26.5092 C   0  0  0  0  0  0  0  0  0  0  0  0
    7.4567   -6.9464   27.2858 C   0  0  0  0  0  0  0  0  0  0  0  0
    0.1921   -5.7592   27.1123 C   0  0  0  0  0  0  0  0  0  0  0  0
    3.5517   -7.7407   25.9711 C   0  0  0  0  0  0  0  0  0  0  0  0
  1  4  4  0
  1 22  4  0
  2 20  4  0
  2 27  4  0
  3 12  4  0
  3 23  4  0
  4 25  4  0
  4 28  1  0
  5  8  4  0
  5 17  4  0
  6  7  4  0
  6 16  4  0
  7 18  4  0
  8 27  4  0
  9 13  4  0
  9 23  4  0
 10 11  1  0
 11 14  2  0
 11 27  1  0
 12 19  1  0
 12 24  4  0
 13 24  4  0
 15 18  1  0
 16 25  4  0
 16 26  4  0
 17 20  4  0
 17 28  1  0
 18 21  4  0
 21 26  4  0
 22 26  4  0
M  END
$$$$

 Created by Python create_sdf_string function

 28 30  0  0  0  0  0  0  0  0999 V2000
    5.7174   -8.4529   26.7190 C   0  0  0  0  0  0  0  0  0  0  0  0
    0.3974   -7.0711   27.5149 C   0  0  0  0  0  0  0  0  0  0  0  0
    2.5338   -7.6891   16.0102 C   0  0  0  0  0  0  0  0  0  0  0  0
    4.8690   -7.4380   26.4151 C   0  0  0  0  0  0  0  0  0  0  0  0
    2.3021   -5.6726   26.0378 C   0  0  0  0  0  0  0  0  0  0  0  0
    7.0880   -4.6163   27.0010 C   0  0  0  0  0  0  0  0  0  0  0  0
    8.3117   -4.3698   27.4436 C   0  0  0  0  0  0  0  0  0  0  0  0
    1.1339   -5.0515   26.3541 C   0  0  0  0  0  0  0  0  0  0  0  0
    4.8080   -8.0362   16.7101 C   0  0  0  0  0  0  0  0  0  0  0  0
   -1.2173   -3.9294   26.9717 O   0  0  0  0  0  0  0  0  0  0  0  0
   -1.0025   -5.0942   27.4586 C   0  0  0  0  0  0  0  0  0  0  0  0
    2.2474   -8.9123   16.6273 C   0  0  0  0  0  0  0  0  0  0  0  0
    4.4957   -9.2636   17.3041 C   0  0  0  0  0  0  0  0  0  0  0  0
   -1.8070   -5.6086   28.1920 O   0  0  0  0  0  0  0  0  0  0  0  0
   10.4296   -5.1799   28.3140 C   0  0  0  0  0  0  0  0  0  0  0  0
    6.6017   -5.9004   26.9187 C   0  0  0  0  0  0  0  0  0  0  0  0
    2.4761   -6.9940   26.4111 N   0  0  0  0  0  0  0  0  0  0  0  0
    9.1353   -5.4053   27.8239 C   0  0  0  0  0  0  0  0  0  0  0  0
    0.9922   -9.3232   16.5995 O   0  0  0  0  0  0  0  0  0  0  0  0
    1.5232   -7.6869   27.1182 C   0  0  0  0  0  0  0  0  0  0  0  0
    8.6878   -6.6715   27.7262 N   0  0  0  0  0  0  0  0  0  0  0  0
    6.9911   -8.2423   27.1808 C   0  0  0  0  0  0  0  0  0  0  0  0
    3.8436   -7.2758   16.0578 C   0  0  0  0  0  0  0  0  0  0  0  0
    3.1882   -9.7190   17.2566 C   0  0  0  0  0  0  0  0  0  0  0  0
    5.3488   -6.1737   26.5092 C   0  0  0  0  0  0  0  0  0  0  0  0
    7.4567   -6.9464   27.2858 C   0  0  0  0  0  0  0  0  0  0  0  0
    0.1921   -5.7592   27.1123 C   0  0  0  0  0  0  0  0  0  0  0  0
    3.5517   -7.7407   25.9711 C   0  0  0  0  0  0  0  0  0  0  0  0
  1  4  4  0
  1 22  4  0
  2 20  4  0
  2 27  4  0
  3 12  4  0
  3 23  4  0
  4 25  4  0
  4 28  1  0
  5  8  4  0
  5 17  4  0
  6  7  4  0
  6 16  4  0
  7 18  4  0
  8 27  4  0
  9 13  4  0
  9 23  4  0
 10 11  1  0
 11 14  2  0
 11 27  1  0
 12 19  1  0
 12 24  4  0
 13 24  4  0
 15 18  1  0
 16 25  4  0
 16 26  4  0
 17 20  4  0
 17 28  1  0
 18 21  4  0
 21 26  4  0
 22 26  4  0
M  END
$$$$

 Created by Python create_sdf_string function

 28 30  0  0  0  0  0  0  0  0999 V2000
    5.7174   -8.4529   26.7190 C   0  0  0  0  0  0  0  0  0  0  0  0
    0.3974   -7.0711   27.5149 C   0  0  0  0  0  0  0  0  0  0  0  0
    2.5338   -7.6891   16.0102 C   0  0  0  0  0  0  0  0  0  0  0  0
    4.8690   -7.4380   26.4151 C   0  0  0  0  0  0  0  0  0  0  0  0
    2.3021   -5.6726   26.0378 C   0  0  0  0  0  0  0  0  0  0  0  0
    7.0880   -4.6163   27.0010 C   0  0  0  0  0  0  0  0  0  0  0  0
    8.3117   -4.3698   27.4436 C   0  0  0  0  0  0  0  0  0  0  0  0
    1.1339   -5.0515   26.3541 C   0  0  0  0  0  0  0  0  0  0  0  0
    4.8080   -8.0362   16.7101 C   0  0  0  0  0  0  0  0  0  0  0  0
   -1.2173   -3.9294   26.9717 O   0  0  0  0  0  0  0  0  0  0  0  0
   -1.0025   -5.0942   27.4586 C   0  0  0  0  0  0  0  0  0  0  0  0
    2.2474   -8.9123   16.6273 C   0  0  0  0  0  0  0  0  0  0  0  0
    4.4957   -9.2636   17.3041 C   0  0  0  0  0  0  0  0  0  0  0  0
   -1.8070   -5.6086   28.1920 O   0  0  0  0  0  0  0  0  0  0  0  0
   10.4296   -5.1799   28.3140 C   0  0  0  0  0  0  0  0  0  0  0  0
    6.6017   -5.9004   26.9187 C   0  0  0  0  0  0  0  0  0  0  0  0
    2.4761   -6.9940   26.4111 N   0  0  0  0  0  0  0  0  0  0  0  0
    9.1353   -5.4053   27.8239 C   0  0  0  0  0  0  0  0  0  0  0  0
    0.9922   -9.3232   16.5995 O   0  0  0  0  0  0  0  0  0  0  0  0
    1.5232   -7.6869   27.1182 C   0  0  0  0  0  0  0  0  0  0  0  0
    8.6878   -6.6715   27.7262 N   0  0  0  0  0  0  0  0  0  0  0  0
    6.9911   -8.2423   27.1808 C   0  0  0  0  0  0  0  0  0  0  0  0
    3.8436   -7.2758   16.0578 C   0  0  0  0  0  0  0  0  0  0  0  0
    3.1882   -9.7190   17.2566 C   0  0  0  0  0  0  0  0  0  0  0  0
    5.3488   -6.1737   26.5092 C   0  0  0  0  0  0  0  0  0  0  0  0
    7.4567   -6.9464   27.2858 C   0  0  0  0  0  0  0  0  0  0  0  0
    0.1921   -5.7592   27.1123 C   0  0  0  0  0  0  0  0  0  0  0  0
    3.5517   -7.7407   25.9711 C   0  0  0  0  0  0  0  0  0  0  0  0
  1  4  4  0
  1 22  4  0
  2 20  4  0
  2 27  4  0
  3 12  4  0
  3 23  4  0
  4 25  4  0
  4 28  1  0
  5  8  4  0
  5 17  4  0
  6  7  4  0
  6 16  4  0
  7 18  4  0
  8 27  4  0
  9 13  4  0
  9 23  4  0
 10 11  1  0
 11 14  2  0
 11 27  1  0
 12 19  1  0
 12 24  4  0
 13 24  4  0
 15 18  1  0
 16 25  4  0
 16 26  4  0
 17 20  4  0
 17 28  1  0
 18 21  4  0
 21 26  4  0
 22 26  4  0
M  END
$$$$

 Created by Python create_sdf_string function

 28 30  0  0  0  0  0  0  0  0999 V2000
    5.7174   -8.4529   26.7190 C   0  0  0  0  0  0  0  0  0  0  0  0
    0.3974   -7.0711   27.5149 C   0  0  0  0  0  0  0  0  0  0  0  0
    2.5338   -7.6891   16.0102 C   0  0  0  0  0  0  0  0  0  0  0  0
    4.8690   -7.4380   26.4151 C   0  0  0  0  0  0  0  0  0  0  0  0
    2.3021   -5.6726   26.0378 C   0  0  0  0  0  0  0  0  0  0  0  0
    7.0880   -4.6163   27.0010 C   0  0  0  0  0  0  0  0  0  0  0  0
    8.3117   -4.3698   27.4436 C   0  0  0  0  0  0  0  0  0  0  0  0
    1.1339   -5.0515   26.3541 C   0  0  0  0  0  0  0  0  0  0  0  0
    4.8080   -8.0362   16.7101 C   0  0  0  0  0  0  0  0  0  0  0  0
   -1.2173   -3.9294   26.9717 O   0  0  0  0  0  0  0  0  0  0  0  0
   -1.0025   -5.0942   27.4586 C   0  0  0  0  0  0  0  0  0  0  0  0
    2.2474   -8.9123   16.6273 C   0  0  0  0  0  0  0  0  0  0  0  0
    4.4957   -9.2636   17.3041 C   0  0  0  0  0  0  0  0  0  0  0  0
   -1.8070   -5.6086   28.1920 O   0  0  0  0  0  0  0  0  0  0  0  0
   10.4296   -5.1799   28.3140 C   0  0  0  0  0  0  0  0  0  0  0  0
    6.6017   -5.9004   26.9187 C   0  0  0  0  0  0  0  0  0  0  0  0
    2.4761   -6.9940   26.4111 N   0  0  0  0  0  0  0  0  0  0  0  0
    9.1353   -5.4053   27.8239 C   0  0  0  0  0  0  0  0  0  0  0  0
    0.9922   -9.3232   16.5995 O   0  0  0  0  0  0  0  0  0  0  0  0
    1.5232   -7.6869   27.1182 C   0  0  0  0  0  0  0  0  0  0  0  0
    8.6878   -6.6715   27.7262 N   0  0  0  0  0  0  0  0  0  0  0  0
    6.9911   -8.2423   27.1808 C   0  0  0  0  0  0  0  0  0  0  0  0
    3.8436   -7.2758   16.0578 C   0  0  0  0  0  0  0  0  0  0  0  0
    3.1882   -9.7190   17.2566 C   0  0  0  0  0  0  0  0  0  0  0  0
    5.3488   -6.1737   26.5092 C   0  0  0  0  0  0  0  0  0  0  0  0
    7.4567   -6.9464   27.2858 C   0  0  0  0  0  0  0  0  0  0  0  0
    0.1921   -5.7592   27.1123 C   0  0  0  0  0  0  0  0  0  0  0  0
    3.5517   -7.7407   25.9711 C   0  0  0  0  0  0  0  0  0  0  0  0
  1  4  4  0
  1 22  4  0
  2 20  4  0
  2 27  4  0
  3 12  4  0
  3 23  4  0
  4 25  4  0
  4 28  1  0
  5  8  4  0
  5 17  4  0
  6  7  4  0
  6 16  4  0
  7 18  4  0
  8 27  4  0
  9 13  4  0
  9 23  4  0
 10 11  1  0
 11 14  2  0
 11 27  1  0
 12 19  1  0
 12 24  4  0
 13 24  4  0
 15 18  1  0
 16 25  4  0
 16 26  4  0
 17 20  4  0
 17 28  1  0
 18 21  4  0
 21 26  4  0
 22 26  4  0
M  END
$$$$

 Created by Python create_sdf_string function

 28 30  0  0  0  0  0  0  0  0999 V2000
    5.7174   -8.4529   26.7190 C   0  0  0  0  0  0  0  0  0  0  0  0
    0.3974   -7.0711   27.5149 C   0  0  0  0  0  0  0  0  0  0  0  0
    2.5338   -7.6891   16.0102 C   0  0  0  0  0  0  0  0  0  0  0  0
    4.8690   -7.4380   26.4151 C   0  0  0  0  0  0  0  0  0  0  0  0
    2.3021   -5.6726   26.0378 C   0  0  0  0  0  0  0  0  0  0  0  0
    7.0880   -4.6163   27.0010 C   0  0  0  0  0  0  0  0  0  0  0  0
    8.3117   -4.3698   27.4436 C   0  0  0  0  0  0  0  0  0  0  0  0
    1.1339   -5.0515   26.3541 C   0  0  0  0  0  0  0  0  0  0  0  0
    4.8080   -8.0362   16.7101 C   0  0  0  0  0  0  0  0  0  0  0  0
   -1.2173   -3.9294   26.9717 O   0  0  0  0  0  0  0  0  0  0  0  0
   -1.0025   -5.0942   27.4586 C   0  0  0  0  0  0  0  0  0  0  0  0
    2.2474   -8.9123   16.6273 C   0  0  0  0  0  0  0  0  0  0  0  0
    4.4957   -9.2636   17.3041 C   0  0  0  0  0  0  0  0  0  0  0  0
   -1.8070   -5.6086   28.1920 O   0  0  0  0  0  0  0  0  0  0  0  0
   10.4296   -5.1799   28.3140 C   0  0  0  0  0  0  0  0  0  0  0  0
    6.6017   -5.9004   26.9187 C   0  0  0  0  0  0  0  0  0  0  0  0
    2.4761   -6.9940   26.4111 N   0  0  0  0  0  0  0  0  0  0  0  0
    9.1353   -5.4053   27.8239 C   0  0  0  0  0  0  0  0  0  0  0  0
    0.9922   -9.3232   16.5995 O   0  0  0  0  0  0  0  0  0  0  0  0
    1.5232   -7.6869   27.1182 C   0  0  0  0  0  0  0  0  0  0  0  0
    8.6878   -6.6715   27.7262 N   0  0  0  0  0  0  0  0  0  0  0  0
    6.9911   -8.2423   27.1808 C   0  0  0  0  0  0  0  0  0  0  0  0
    3.8436   -7.2758   16.0578 C   0  0  0  0  0  0  0  0  0  0  0  0
    3.1882   -9.7190   17.2566 C   0  0  0  0  0  0  0  0  0  0  0  0
    5.3488   -6.1737   26.5092 C   0  0  0  0  0  0  0  0  0  0  0  0
    7.4567   -6.9464   27.2858 C   0  0  0  0  0  0  0  0  0  0  0  0
    0.1921   -5.7592   27.1123 C   0  0  0  0  0  0  0  0  0  0  0  0
    3.5517   -7.7407   25.9711 C   0  0  0  0  0  0  0  0  0  0  0  0
  1  4  4  0
  1 22  4  0
  2 20  4  0
  2 27  4  0
  3 12  4  0
  3 23  4  0
  4 25  4  0
  4 28  1  0
  5  8  4  0
  5 17  4  0
  6  7  4  0
  6 16  4  0
  7 18  4  0
  8 27  4  0
  9 13  4  0
  9 23  4  0
 10 11  1  0
 11 14  2  0
 11 27  1  0
 12 19  1  0
 12 24  4  0
 13 24  4  0
 15 18  1  0
 16 25  4  0
 16 26  4  0
 17 20  4  0
 17 28  1  0
 18 21  4  0
 21 26  4  0
 22 26  4  0
M  END
$$$$

 Created by Python create_sdf_string function

 28 30  0  0  0  0  0  0  0  0999 V2000
    5.7174   -8.4529   26.7190 C   0  0  0  0  0  0  0  0  0  0  0  0
    0.3974   -7.0711   27.5149 C   0  0  0  0  0  0  0  0  0  0  0  0
    2.5338   -7.6891   16.0102 C   0  0  0  0  0  0  0  0  0  0  0  0
    4.8690   -7.4380   26.4151 C   0  0  0  0  0  0  0  0  0  0  0  0
    2.3021   -5.6726   26.0378 C   0  0  0  0  0  0  0  0  0  0  0  0
    7.0880   -4.6163   27.0010 C   0  0  0  0  0  0  0  0  0  0  0  0
    8.3117   -4.3698   27.4436 C   0  0  0  0  0  0  0  0  0  0  0  0
    1.1339   -5.0515   26.3541 C   0  0  0  0  0  0  0  0  0  0  0  0
    4.8080   -8.0362   16.7101 C   0  0  0  0  0  0  0  0  0  0  0  0
   -1.2173   -3.9294   26.9717 O   0  0  0  0  0  0  0  0  0  0  0  0
   -1.0025   -5.0942   27.4586 C   0  0  0  0  0  0  0  0  0  0  0  0
    2.2474   -8.9123   16.6273 C   0  0  0  0  0  0  0  0  0  0  0  0
    4.4957   -9.2636   17.3041 C   0  0  0  0  0  0  0  0  0  0  0  0
   -1.8070   -5.6086   28.1920 O   0  0  0  0  0  0  0  0  0  0  0  0
   10.4296   -5.1799   28.3140 C   0  0  0  0  0  0  0  0  0  0  0  0
    6.6017   -5.9004   26.9187 C   0  0  0  0  0  0  0  0  0  0  0  0
    2.4761   -6.9940   26.4111 N   0  0  0  0  0  0  0  0  0  0  0  0
    9.1353   -5.4053   27.8239 C   0  0  0  0  0  0  0  0  0  0  0  0
    0.9922   -9.3232   16.5995 O   0  0  0  0  0  0  0  0  0  0  0  0
    1.5232   -7.6869   27.1182 C   0  0  0  0  0  0  0  0  0  0  0  0
    8.6878   -6.6715   27.7262 N   0  0  0  0  0  0  0  0  0  0  0  0
    6.9911   -8.2423   27.1808 C   0  0  0  0  0  0  0  0  0  0  0  0
    3.8436   -7.2758   16.0578 C   0  0  0  0  0  0  0  0  0  0  0  0
    3.1882   -9.7190   17.2566 C   0  0  0  0  0  0  0  0  0  0  0  0
    5.3488   -6.1737   26.5092 C   0  0  0  0  0  0  0  0  0  0  0  0
    7.4567   -6.9464   27.2858 C   0  0  0  0  0  0  0  0  0  0  0  0
    0.1921   -5.7592   27.1123 C   0  0  0  0  0  0  0  0  0  0  0  0
    3.5517   -7.7407   25.9711 C   0  0  0  0  0  0  0  0  0  0  0  0
  1  4  4  0
  1 22  4  0
  2 20  4  0
  2 27  4  0
  3 12  4  0
  3 23  4  0
  4 25  4  0
  4 28  1  0
  5  8  4  0
  5 17  4  0
  6  7  4  0
  6 16  4  0
  7 18  4  0
  8 27  4  0
  9 13  4  0
  9 23  4  0
 10 11  1  0
 11 14  2  0
 11 27  1  0
 12 19  1  0
 12 24  4  0
 13 24  4  0
 15 18  1  0
 16 25  4  0
 16 26  4  0
 17 20  4  0
 17 28  1  0
 18 21  4  0
 21 26  4  0
 22 26  4  0
M  END
$$$$

 Created by Python create_sdf_string function

 28 30  0  0  0  0  0  0  0  0999 V2000
    5.7174   -8.4529   26.7190 C   0  0  0  0  0  0  0  0  0  0  0  0
    0.3974   -7.0711   27.5149 C   0  0  0  0  0  0  0  0  0  0  0  0
    2.5338   -7.6891   16.0102 C   0  0  0  0  0  0  0  0  0  0  0  0
    4.8690   -7.4380   26.4151 C   0  0  0  0  0  0  0  0  0  0  0  0
    2.3021   -5.6726   26.0378 C   0  0  0  0  0  0  0  0  0  0  0  0
    7.0880   -4.6163   27.0010 C   0  0  0  0  0  0  0  0  0  0  0  0
    8.3117   -4.3698   27.4436 C   0  0  0  0  0  0  0  0  0  0  0  0
    1.1339   -5.0515   26.3541 C   0  0  0  0  0  0  0  0  0  0  0  0
    4.8080   -8.0362   16.7101 C   0  0  0  0  0  0  0  0  0  0  0  0
   -1.2173   -3.9294   26.9717 O   0  0  0  0  0  0  0  0  0  0  0  0
   -1.0025   -5.0942   27.4586 C   0  0  0  0  0  0  0  0  0  0  0  0
    2.2474   -8.9123   16.6273 C   0  0  0  0  0  0  0  0  0  0  0  0
    4.4957   -9.2636   17.3041 C   0  0  0  0  0  0  0  0  0  0  0  0
   -1.8070   -5.6086   28.1920 O   0  0  0  0  0  0  0  0  0  0  0  0
   10.4296   -5.1799   28.3140 C   0  0  0  0  0  0  0  0  0  0  0  0
    6.6017   -5.9004   26.9187 C   0  0  0  0  0  0  0  0  0  0  0  0
    2.4761   -6.9940   26.4111 N   0  0  0  0  0  0  0  0  0  0  0  0
    9.1353   -5.4053   27.8239 C   0  0  0  0  0  0  0  0  0  0  0  0
    0.9922   -9.3232   16.5995 O   0  0  0  0  0  0  0  0  0  0  0  0
    1.5232   -7.6869   27.1182 C   0  0  0  0  0  0  0  0  0  0  0  0
    8.6878   -6.6715   27.7262 N   0  0  0  0  0  0  0  0  0  0  0  0
    6.9911   -8.2423   27.1808 C   0  0  0  0  0  0  0  0  0  0  0  0
    3.8436   -7.2758   16.0578 C   0  0  0  0  0  0  0  0  0  0  0  0
    3.1882   -9.7190   17.2566 C   0  0  0  0  0  0  0  0  0  0  0  0
    5.3488   -6.1737   26.5092 C   0  0  0  0  0  0  0  0  0  0  0  0
    7.4567   -6.9464   27.2858 C   0  0  0  0  0  0  0  0  0  0  0  0
    0.1921   -5.7592   27.1123 C   0  0  0  0  0  0  0  0  0  0  0  0
    3.5517   -7.7407   25.9711 C   0  0  0  0  0  0  0  0  0  0  0  0
  1  4  4  0
  1 22  4  0
  2 20  4  0
  2 27  4  0
  3 12  4  0
  3 23  4  0
  4 25  4  0
  4 28  1  0
  5  8  4  0
  5 17  4  0
  6  7  4  0
  6 16  4  0
  7 18  4  0
  8 27  4  0
  9 13  4  0
  9 23  4  0
 10 11  1  0
 11 14  2  0
 11 27  1  0
 12 19  1  0
 12 24  4  0
 13 24  4  0
 15 18  1  0
 16 25  4  0
 16 26  4  0
 17 20  4  0
 17 28  1  0
 18 21  4  0
 21 26  4  0
 22 26  4  0
M  END
$$$$

 Created by Python create_sdf_string function

 28 30  0  0  0  0  0  0  0  0999 V2000
    5.7174   -8.4529   26.7190 C   0  0  0  0  0  0  0  0  0  0  0  0
    0.3974   -7.0711   27.5149 C   0  0  0  0  0  0  0  0  0  0  0  0
    2.5338   -7.6891   16.0102 C   0  0  0  0  0  0  0  0  0  0  0  0
    4.8690   -7.4380   26.4151 C   0  0  0  0  0  0  0  0  0  0  0  0
    2.3021   -5.6726   26.0378 C   0  0  0  0  0  0  0  0  0  0  0  0
    7.0880   -4.6163   27.0010 C   0  0  0  0  0  0  0  0  0  0  0  0
    8.3117   -4.3698   27.4436 C   0  0  0  0  0  0  0  0  0  0  0  0
    1.1339   -5.0515   26.3541 C   0  0  0  0  0  0  0  0  0  0  0  0
    4.8080   -8.0362   16.7101 C   0  0  0  0  0  0  0  0  0  0  0  0
   -1.2173   -3.9294   26.9717 O   0  0  0  0  0  0  0  0  0  0  0  0
   -1.0025   -5.0942   27.4586 C   0  0  0  0  0  0  0  0  0  0  0  0
    2.2474   -8.9123   16.6273 C   0  0  0  0  0  0  0  0  0  0  0  0
    4.4957   -9.2636   17.3041 C   0  0  0  0  0  0  0  0  0  0  0  0
   -1.8070   -5.6086   28.1920 O   0  0  0  0  0  0  0  0  0  0  0  0
   10.4296   -5.1799   28.3140 C   0  0  0  0  0  0  0  0  0  0  0  0
    6.6017   -5.9004   26.9187 C   0  0  0  0  0  0  0  0  0  0  0  0
    2.4761   -6.9940   26.4111 N   0  0  0  0  0  0  0  0  0  0  0  0
    9.1353   -5.4053   27.8239 C   0  0  0  0  0  0  0  0  0  0  0  0
    0.9922   -9.3232   16.5995 O   0  0  0  0  0  0  0  0  0  0  0  0
    1.5232   -7.6869   27.1182 C   0  0  0  0  0  0  0  0  0  0  0  0
    8.6878   -6.6715   27.7262 N   0  0  0  0  0  0  0  0  0  0  0  0
    6.9911   -8.2423   27.1808 C   0  0  0  0  0  0  0  0  0  0  0  0
    3.8436   -7.2758   16.0578 C   0  0  0  0  0  0  0  0  0  0  0  0
    3.1882   -9.7190   17.2566 C   0  0  0  0  0  0  0  0  0  0  0  0
    5.3488   -6.1737   26.5092 C   0  0  0  0  0  0  0  0  0  0  0  0
    7.4567   -6.9464   27.2858 C   0  0  0  0  0  0  0  0  0  0  0  0
    0.1921   -5.7592   27.1123 C   0  0  0  0  0  0  0  0  0  0  0  0
    3.5517   -7.7407   25.9711 C   0  0  0  0  0  0  0  0  0  0  0  0
  1  4  4  0
  1 22  4  0
  2 20  4  0
  2 27  4  0
  3 12  4  0
  3 23  4  0
  4 25  4  0
  4 28  1  0
  5  8  4  0
  5 17  4  0
  6  7  4  0
  6 16  4  0
  7 18  4  0
  8 27  4  0
  9 13  4  0
  9 23  4  0
 10 11  1  0
 11 14  2  0
 11 27  1  0
 12 19  1  0
 12 24  4  0
 13 24  4  0
 15 18  1  0
 16 25  4  0
 16 26  4  0
 17 20  4  0
 17 28  1  0
 18 21  4  0
 21 26  4  0
 22 26  4  0
M  END
$$$$

 Created by Python create_sdf_string function

 28 30  0  0  0  0  0  0  0  0999 V2000
    5.7174   -8.4529   26.7190 C   0  0  0  0  0  0  0  0  0  0  0  0
    0.3974   -7.0711   27.5149 C   0  0  0  0  0  0  0  0  0  0  0  0
    2.5338   -7.6891   16.0102 C   0  0  0  0  0  0  0  0  0  0  0  0
    4.8690   -7.4380   26.4151 C   0  0  0  0  0  0  0  0  0  0  0  0
    2.3021   -5.6726   26.0378 C   0  0  0  0  0  0  0  0  0  0  0  0
    7.0880   -4.6163   27.0010 C   0  0  0  0  0  0  0  0  0  0  0  0
    8.3117   -4.3698   27.4436 C   0  0  0  0  0  0  0  0  0  0  0  0
    1.1339   -5.0515   26.3541 C   0  0  0  0  0  0  0  0  0  0  0  0
    4.8080   -8.0362   16.7101 C   0  0  0  0  0  0  0  0  0  0  0  0
   -1.2173   -3.9294   26.9717 O   0  0  0  0  0  0  0  0  0  0  0  0
   -1.0025   -5.0942   27.4586 C   0  0  0  0  0  0  0  0  0  0  0  0
    2.2474   -8.9123   16.6273 C   0  0  0  0  0  0  0  0  0  0  0  0
    4.4957   -9.2636   17.3041 C   0  0  0  0  0  0  0  0  0  0  0  0
   -1.8070   -5.6086   28.1920 O   0  0  0  0  0  0  0  0  0  0  0  0
   10.4296   -5.1799   28.3140 C   0  0  0  0  0  0  0  0  0  0  0  0
    6.6017   -5.9004   26.9187 C   0  0  0  0  0  0  0  0  0  0  0  0
    2.4761   -6.9940   26.4111 N   0  0  0  0  0  0  0  0  0  0  0  0
    9.1353   -5.4053   27.8239 C   0  0  0  0  0  0  0  0  0  0  0  0
    0.9922   -9.3232   16.5995 O   0  0  0  0  0  0  0  0  0  0  0  0
    1.5232   -7.6869   27.1182 C   0  0  0  0  0  0  0  0  0  0  0  0
    8.6878   -6.6715   27.7262 N   0  0  0  0  0  0  0  0  0  0  0  0
    6.9911   -8.2423   27.1808 C   0  0  0  0  0  0  0  0  0  0  0  0
    3.8436   -7.2758   16.0578 C   0  0  0  0  0  0  0  0  0  0  0  0
    3.1882   -9.7190   17.2566 C   0  0  0  0  0  0  0  0  0  0  0  0
    5.3488   -6.1737   26.5092 C   0  0  0  0  0  0  0  0  0  0  0  0
    7.4567   -6.9464   27.2858 C   0  0  0  0  0  0  0  0  0  0  0  0
    0.1921   -5.7592   27.1123 C   0  0  0  0  0  0  0  0  0  0  0  0
    3.5517   -7.7407   25.9711 C   0  0  0  0  0  0  0  0  0  0  0  0
  1  4  4  0
  1 22  4  0
  2 20  4  0
  2 27  4  0
  3 12  4  0
  3 23  4  0
  4 25  4  0
  4 28  1  0
  5  8  4  0
  5 17  4  0
  6  7  4  0
  6 16  4  0
  7 18  4  0
  8 27  4  0
  9 13  4  0
  9 23  4  0
 10 11  1  0
 11 14  2  0
 11 27  1  0
 12 19  1  0
 12 24  4  0
 13 24  4  0
 15 18  1  0
 16 25  4  0
 16 26  4  0
 17 20  4  0
 17 28  1  0
 18 21  4  0
 21 26  4  0
 22 26  4  0
M  END
$$$$

 Created by Python create_sdf_string function

 28 30  0  0  0  0  0  0  0  0999 V2000
    5.7174   -8.4529   26.7190 C   0  0  0  0  0  0  0  0  0  0  0  0
    0.3974   -7.0711   27.5149 C   0  0  0  0  0  0  0  0  0  0  0  0
    2.5338   -7.6891   16.0102 C   0  0  0  0  0  0  0  0  0  0  0  0
    4.8690   -7.4380   26.4151 C   0  0  0  0  0  0  0  0  0  0  0  0
    2.3021   -5.6726   26.0378 C   0  0  0  0  0  0  0  0  0  0  0  0
    7.0880   -4.6163   27.0010 C   0  0  0  0  0  0  0  0  0  0  0  0
    8.3117   -4.3698   27.4436 C   0  0  0  0  0  0  0  0  0  0  0  0
    1.1339   -5.0515   26.3541 C   0  0  0  0  0  0  0  0  0  0  0  0
    4.8080   -8.0362   16.7101 C   0  0  0  0  0  0  0  0  0  0  0  0
   -1.2173   -3.9294   26.9717 O   0  0  0  0  0  0  0  0  0  0  0  0
   -1.0025   -5.0942   27.4586 C   0  0  0  0  0  0  0  0  0  0  0  0
    2.2474   -8.9123   16.6273 C   0  0  0  0  0  0  0  0  0  0  0  0
    4.4957   -9.2636   17.3041 C   0  0  0  0  0  0  0  0  0  0  0  0
   -1.8070   -5.6086   28.1920 O   0  0  0  0  0  0  0  0  0  0  0  0
   10.4296   -5.1799   28.3140 C   0  0  0  0  0  0  0  0  0  0  0  0
    6.6017   -5.9004   26.9187 C   0  0  0  0  0  0  0  0  0  0  0  0
    2.4761   -6.9940   26.4111 N   0  0  0  0  0  0  0  0  0  0  0  0
    9.1353   -5.4053   27.8239 C   0  0  0  0  0  0  0  0  0  0  0  0
    0.9922   -9.3232   16.5995 O   0  0  0  0  0  0  0  0  0  0  0  0
    1.5232   -7.6869   27.1182 C   0  0  0  0  0  0  0  0  0  0  0  0
    8.6878   -6.6715   27.7262 N   0  0  0  0  0  0  0  0  0  0  0  0
    6.9911   -8.2423   27.1808 C   0  0  0  0  0  0  0  0  0  0  0  0
    3.8436   -7.2758   16.0578 C   0  0  0  0  0  0  0  0  0  0  0  0
    3.1882   -9.7190   17.2566 C   0  0  0  0  0  0  0  0  0  0  0  0
    5.3488   -6.1737   26.5092 C   0  0  0  0  0  0  0  0  0  0  0  0
    7.4567   -6.9464   27.2858 C   0  0  0  0  0  0  0  0  0  0  0  0
    0.1921   -5.7592   27.1123 C   0  0  0  0  0  0  0  0  0  0  0  0
    3.5517   -7.7407   25.9711 C   0  0  0  0  0  0  0  0  0  0  0  0
  1  4  4  0
  1 22  4  0
  2 20  4  0
  2 27  4  0
  3 12  4  0
  3 23  4  0
  4 25  4  0
  4 28  1  0
  5  8  4  0
  5 17  4  0
  6  7  4  0
  6 16  4  0
  7 18  4  0
  8 27  4  0
  9 13  4  0
  9 23  4  0
 10 11  1  0
 11 14  2  0
 11 27  1  0
 12 19  1  0
 12 24  4  0
 13 24  4  0
 15 18  1  0
 16 25  4  0
 16 26  4  0
 17 20  4  0
 17 28  1  0
 18 21  4  0
 21 26  4  0
 22 26  4  0
M  END
$$$$

 Created by Python create_sdf_string function

 28 30  0  0  0  0  0  0  0  0999 V2000
    5.7174   -8.4529   26.7190 C   0  0  0  0  0  0  0  0  0  0  0  0
    0.3974   -7.0711   27.5149 C   0  0  0  0  0  0  0  0  0  0  0  0
    2.5338   -7.6891   16.0102 C   0  0  0  0  0  0  0  0  0  0  0  0
    4.8690   -7.4380   26.4151 C   0  0  0  0  0  0  0  0  0  0  0  0
    2.3021   -5.6726   26.0378 C   0  0  0  0  0  0  0  0  0  0  0  0
    7.0880   -4.6163   27.0010 C   0  0  0  0  0  0  0  0  0  0  0  0
    8.3117   -4.3698   27.4436 C   0  0  0  0  0  0  0  0  0  0  0  0
    1.1339   -5.0515   26.3541 C   0  0  0  0  0  0  0  0  0  0  0  0
    4.8080   -8.0362   16.7101 C   0  0  0  0  0  0  0  0  0  0  0  0
   -1.2173   -3.9294   26.9717 O   0  0  0  0  0  0  0  0  0  0  0  0
   -1.0025   -5.0942   27.4586 C   0  0  0  0  0  0  0  0  0  0  0  0
    2.2474   -8.9123   16.6273 C   0  0  0  0  0  0  0  0  0  0  0  0
    4.4957   -9.2636   17.3041 C   0  0  0  0  0  0  0  0  0  0  0  0
   -1.8070   -5.6086   28.1920 O   0  0  0  0  0  0  0  0  0  0  0  0
   10.4296   -5.1799   28.3140 C   0  0  0  0  0  0  0  0  0  0  0  0
    6.6017   -5.9004   26.9187 C   0  0  0  0  0  0  0  0  0  0  0  0
    2.4761   -6.9940   26.4111 N   0  0  0  0  0  0  0  0  0  0  0  0
    9.1353   -5.4053   27.8239 C   0  0  0  0  0  0  0  0  0  0  0  0
    0.9922   -9.3232   16.5995 O   0  0  0  0  0  0  0  0  0  0  0  0
    1.5232   -7.6869   27.1182 C   0  0  0  0  0  0  0  0  0  0  0  0
    8.6878   -6.6715   27.7262 N   0  0  0  0  0  0  0  0  0  0  0  0
    6.9911   -8.2423   27.1808 C   0  0  0  0  0  0  0  0  0  0  0  0
    3.8436   -7.2758   16.0578 C   0  0  0  0  0  0  0  0  0  0  0  0
    3.1882   -9.7190   17.2566 C   0  0  0  0  0  0  0  0  0  0  0  0
    5.3488   -6.1737   26.5092 C   0  0  0  0  0  0  0  0  0  0  0  0
    7.4567   -6.9464   27.2858 C   0  0  0  0  0  0  0  0  0  0  0  0
    0.1921   -5.7592   27.1123 C   0  0  0  0  0  0  0  0  0  0  0  0
    3.5517   -7.7407   25.9711 C   0  0  0  0  0  0  0  0  0  0  0  0
  1  4  4  0
  1 22  4  0
  2 20  4  0
  2 27  4  0
  3 12  4  0
  3 23  4  0
  4 25  4  0
  4 28  1  0
  5  8  4  0
  5 17  4  0
  6  7  4  0
  6 16  4  0
  7 18  4  0
  8 27  4  0
  9 13  4  0
  9 23  4  0
 10 11  1  0
 11 14  2  0
 11 27  1  0
 12 19  1  0
 12 24  4  0
 13 24  4  0
 15 18  1  0
 16 25  4  0
 16 26  4  0
 17 20  4  0
 17 28  1  0
 18 21  4  0
 21 26  4  0
 22 26  4  0
M  END
$$$$

 Created by Python create_sdf_string function

 28 30  0  0  0  0  0  0  0  0999 V2000
    5.7174   -8.4529   26.7190 C   0  0  0  0  0  0  0  0  0  0  0  0
    0.3974   -7.0711   27.5149 C   0  0  0  0  0  0  0  0  0  0  0  0
    2.5338   -7.6891   16.0102 C   0  0  0  0  0  0  0  0  0  0  0  0
    4.8690   -7.4380   26.4151 C   0  0  0  0  0  0  0  0  0  0  0  0
    2.3021   -5.6726   26.0378 C   0  0  0  0  0  0  0  0  0  0  0  0
    7.0880   -4.6163   27.0010 C   0  0  0  0  0  0  0  0  0  0  0  0
    8.3117   -4.3698   27.4436 C   0  0  0  0  0  0  0  0  0  0  0  0
    1.1339   -5.0515   26.3541 C   0  0  0  0  0  0  0  0  0  0  0  0
    4.8080   -8.0362   16.7101 C   0  0  0  0  0  0  0  0  0  0  0  0
   -1.2173   -3.9294   26.9717 O   0  0  0  0  0  0  0  0  0  0  0  0
   -1.0025   -5.0942   27.4586 C   0  0  0  0  0  0  0  0  0  0  0  0
    2.2474   -8.9123   16.6273 C   0  0  0  0  0  0  0  0  0  0  0  0
    4.4957   -9.2636   17.3041 C   0  0  0  0  0  0  0  0  0  0  0  0
   -1.8070   -5.6086   28.1920 O   0  0  0  0  0  0  0  0  0  0  0  0
   10.4296   -5.1799   28.3140 C   0  0  0  0  0  0  0  0  0  0  0  0
    6.6017   -5.9004   26.9187 C   0  0  0  0  0  0  0  0  0  0  0  0
    2.4761   -6.9940   26.4111 N   0  0  0  0  0  0  0  0  0  0  0  0
    9.1353   -5.4053   27.8239 C   0  0  0  0  0  0  0  0  0  0  0  0
    0.9922   -9.3232   16.5995 O   0  0  0  0  0  0  0  0  0  0  0  0
    1.5232   -7.6869   27.1182 C   0  0  0  0  0  0  0  0  0  0  0  0
    8.6878   -6.6715   27.7262 N   0  0  0  0  0  0  0  0  0  0  0  0
    6.9911   -8.2423   27.1808 C   0  0  0  0  0  0  0  0  0  0  0  0
    3.8436   -7.2758   16.0578 C   0  0  0  0  0  0  0  0  0  0  0  0
    3.1882   -9.7190   17.2566 C   0  0  0  0  0  0  0  0  0  0  0  0
    5.3488   -6.1737   26.5092 C   0  0  0  0  0  0  0  0  0  0  0  0
    7.4567   -6.9464   27.2858 C   0  0  0  0  0  0  0  0  0  0  0  0
    0.1921   -5.7592   27.1123 C   0  0  0  0  0  0  0  0  0  0  0  0
    3.5517   -7.7407   25.9711 C   0  0  0  0  0  0  0  0  0  0  0  0
  1  4  4  0
  1 22  4  0
  2 20  4  0
  2 27  4  0
  3 12  4  0
  3 23  4  0
  4 25  4  0
  4 28  1  0
  5  8  4  0
  5 17  4  0
  6  7  4  0
  6 16  4  0
  7 18  4  0
  8 27  4  0
  9 13  4  0
  9 23  4  0
 10 11  1  0
 11 14  2  0
 11 27  1  0
 12 19  1  0
 12 24  4  0
 13 24  4  0
 15 18  1  0
 16 25  4  0
 16 26  4  0
 17 20  4  0
 17 28  1  0
 18 21  4  0
 21 26  4  0
 22 26  4  0
M  END
$$$$

 Created by Python create_sdf_string function

 28 30  0  0  0  0  0  0  0  0999 V2000
    5.7174   -8.4529   26.7190 C   0  0  0  0  0  0  0  0  0  0  0  0
    0.3974   -7.0711   27.5149 C   0  0  0  0  0  0  0  0  0  0  0  0
    2.5338   -7.6891   16.0102 C   0  0  0  0  0  0  0  0  0  0  0  0
    4.8690   -7.4380   26.4151 C   0  0  0  0  0  0  0  0  0  0  0  0
    2.3021   -5.6726   26.0378 C   0  0  0  0  0  0  0  0  0  0  0  0
    7.0880   -4.6163   27.0010 C   0  0  0  0  0  0  0  0  0  0  0  0
    8.3117   -4.3698   27.4436 C   0  0  0  0  0  0  0  0  0  0  0  0
    1.1339   -5.0515   26.3541 C   0  0  0  0  0  0  0  0  0  0  0  0
    4.8080   -8.0362   16.7101 C   0  0  0  0  0  0  0  0  0  0  0  0
   -1.2173   -3.9294   26.9717 O   0  0  0  0  0  0  0  0  0  0  0  0
   -1.0025   -5.0942   27.4586 C   0  0  0  0  0  0  0  0  0  0  0  0
    2.2474   -8.9123   16.6273 C   0  0  0  0  0  0  0  0  0  0  0  0
    4.4957   -9.2636   17.3041 C   0  0  0  0  0  0  0  0  0  0  0  0
   -1.8070   -5.6086   28.1920 O   0  0  0  0  0  0  0  0  0  0  0  0
   10.4296   -5.1799   28.3140 C   0  0  0  0  0  0  0  0  0  0  0  0
    6.6017   -5.9004   26.9187 C   0  0  0  0  0  0  0  0  0  0  0  0
    2.4761   -6.9940   26.4111 N   0  0  0  0  0  0  0  0  0  0  0  0
    9.1353   -5.4053   27.8239 C   0  0  0  0  0  0  0  0  0  0  0  0
    0.9922   -9.3232   16.5995 O   0  0  0  0  0  0  0  0  0  0  0  0
    1.5232   -7.6869   27.1182 C   0  0  0  0  0  0  0  0  0  0  0  0
    8.6878   -6.6715   27.7262 N   0  0  0  0  0  0  0  0  0  0  0  0
    6.9911   -8.2423   27.1808 C   0  0  0  0  0  0  0  0  0  0  0  0
    3.8436   -7.2758   16.0578 C   0  0  0  0  0  0  0  0  0  0  0  0
    3.1882   -9.7190   17.2566 C   0  0  0  0  0  0  0  0  0  0  0  0
    5.3488   -6.1737   26.5092 C   0  0  0  0  0  0  0  0  0  0  0  0
    7.4567   -6.9464   27.2858 C   0  0  0  0  0  0  0  0  0  0  0  0
    0.1921   -5.7592   27.1123 C   0  0  0  0  0  0  0  0  0  0  0  0
    3.5517   -7.7407   25.9711 C   0  0  0  0  0  0  0  0  0  0  0  0
  1  4  4  0
  1 22  4  0
  2 20  4  0
  2 27  4  0
  3 12  4  0
  3 23  4  0
  4 25  4  0
  4 28  1  0
  5  8  4  0
  5 17  4  0
  6  7  4  0
  6 16  4  0
  7 18  4  0
  8 27  4  0
  9 13  4  0
  9 23  4  0
 10 11  1  0
 11 14  2  0
 11 27  1  0
 12 19  1  0
 12 24  4  0
 13 24  4  0
 15 18  1  0
 16 25  4  0
 16 26  4  0
 17 20  4  0
 17 28  1  0
 18 21  4  0
 21 26  4  0
 22 26  4  0
M  END
$$$$

 Created by Python create_sdf_string function

 28 30  0  0  0  0  0  0  0  0999 V2000
    5.7174   -8.4529   26.7190 C   0  0  0  0  0  0  0  0  0  0  0  0
    0.3974   -7.0711   27.5149 C   0  0  0  0  0  0  0  0  0  0  0  0
    2.5338   -7.6891   16.0102 C   0  0  0  0  0  0  0  0  0  0  0  0
    4.8690   -7.4380   26.4151 C   0  0  0  0  0  0  0  0  0  0  0  0
    2.3021   -5.6726   26.0378 C   0  0  0  0  0  0  0  0  0  0  0  0
    7.0880   -4.6163   27.0010 C   0  0  0  0  0  0  0  0  0  0  0  0
    8.3117   -4.3698   27.4436 C   0  0  0  0  0  0  0  0  0  0  0  0
    1.1339   -5.0515   26.3541 C   0  0  0  0  0  0  0  0  0  0  0  0
    4.8080   -8.0362   16.7101 C   0  0  0  0  0  0  0  0  0  0  0  0
   -1.2173   -3.9294   26.9717 O   0  0  0  0  0  0  0  0  0  0  0  0
   -1.0025   -5.0942   27.4586 C   0  0  0  0  0  0  0  0  0  0  0  0
    2.2474   -8.9123   16.6273 C   0  0  0  0  0  0  0  0  0  0  0  0
    4.4957   -9.2636   17.3041 C   0  0  0  0  0  0  0  0  0  0  0  0
   -1.8070   -5.6086   28.1920 O   0  0  0  0  0  0  0  0  0  0  0  0
   10.4296   -5.1799   28.3140 C   0  0  0  0  0  0  0  0  0  0  0  0
    6.6017   -5.9004   26.9187 C   0  0  0  0  0  0  0  0  0  0  0  0
    2.4761   -6.9940   26.4111 N   0  0  0  0  0  0  0  0  0  0  0  0
    9.1353   -5.4053   27.8239 C   0  0  0  0  0  0  0  0  0  0  0  0
    0.9922   -9.3232   16.5995 O   0  0  0  0  0  0  0  0  0  0  0  0
    1.5232   -7.6869   27.1182 C   0  0  0  0  0  0  0  0  0  0  0  0
    8.6878   -6.6715   27.7262 N   0  0  0  0  0  0  0  0  0  0  0  0
    6.9911   -8.2423   27.1808 C   0  0  0  0  0  0  0  0  0  0  0  0
    3.8436   -7.2758   16.0578 C   0  0  0  0  0  0  0  0  0  0  0  0
    3.1882   -9.7190   17.2566 C   0  0  0  0  0  0  0  0  0  0  0  0
    5.3488   -6.1737   26.5092 C   0  0  0  0  0  0  0  0  0  0  0  0
    7.4567   -6.9464   27.2858 C   0  0  0  0  0  0  0  0  0  0  0  0
    0.1921   -5.7592   27.1123 C   0  0  0  0  0  0  0  0  0  0  0  0
    3.5517   -7.7407   25.9711 C   0  0  0  0  0  0  0  0  0  0  0  0
  1  4  4  0
  1 22  4  0
  2 20  4  0
  2 27  4  0
  3 12  4  0
  3 23  4  0
  4 25  4  0
  4 28  1  0
  5  8  4  0
  5 17  4  0
  6  7  4  0
  6 16  4  0
  7 18  4  0
  8 27  4  0
  9 13  4  0
  9 23  4  0
 10 11  1  0
 11 14  2  0
 11 27  1  0
 12 19  1  0
 12 24  4  0
 13 24  4  0
 15 18  1  0
 16 25  4  0
 16 26  4  0
 17 20  4  0
 17 28  1  0
 18 21  4  0
 21 26  4  0
 22 26  4  0
M  END
$$$$

 Created by Python create_sdf_string function

 28 30  0  0  0  0  0  0  0  0999 V2000
    5.7174   -8.4529   26.7190 C   0  0  0  0  0  0  0  0  0  0  0  0
    0.3974   -7.0711   27.5149 C   0  0  0  0  0  0  0  0  0  0  0  0
    2.5338   -7.6891   16.0102 C   0  0  0  0  0  0  0  0  0  0  0  0
    4.8690   -7.4380   26.4151 C   0  0  0  0  0  0  0  0  0  0  0  0
    2.3021   -5.6726   26.0378 C   0  0  0  0  0  0  0  0  0  0  0  0
    7.0880   -4.6163   27.0010 C   0  0  0  0  0  0  0  0  0  0  0  0
    8.3117   -4.3698   27.4436 C   0  0  0  0  0  0  0  0  0  0  0  0
    1.1339   -5.0515   26.3541 C   0  0  0  0  0  0  0  0  0  0  0  0
    4.8080   -8.0362   16.7101 C   0  0  0  0  0  0  0  0  0  0  0  0
   -1.2173   -3.9294   26.9717 O   0  0  0  0  0  0  0  0  0  0  0  0
   -1.0025   -5.0942   27.4586 C   0  0  0  0  0  0  0  0  0  0  0  0
    2.2474   -8.9123   16.6273 C   0  0  0  0  0  0  0  0  0  0  0  0
    4.4957   -9.2636   17.3041 C   0  0  0  0  0  0  0  0  0  0  0  0
   -1.8070   -5.6086   28.1920 O   0  0  0  0  0  0  0  0  0  0  0  0
   10.4296   -5.1799   28.3140 C   0  0  0  0  0  0  0  0  0  0  0  0
    6.6017   -5.9004   26.9187 C   0  0  0  0  0  0  0  0  0  0  0  0
    2.4761   -6.9940   26.4111 N   0  0  0  0  0  0  0  0  0  0  0  0
    9.1353   -5.4053   27.8239 C   0  0  0  0  0  0  0  0  0  0  0  0
    0.9922   -9.3232   16.5995 O   0  0  0  0  0  0  0  0  0  0  0  0
    1.5232   -7.6869   27.1182 C   0  0  0  0  0  0  0  0  0  0  0  0
    8.6878   -6.6715   27.7262 N   0  0  0  0  0  0  0  0  0  0  0  0
    6.9911   -8.2423   27.1808 C   0  0  0  0  0  0  0  0  0  0  0  0
    3.8436   -7.2758   16.0578 C   0  0  0  0  0  0  0  0  0  0  0  0
    3.1882   -9.7190   17.2566 C   0  0  0  0  0  0  0  0  0  0  0  0
    5.3488   -6.1737   26.5092 C   0  0  0  0  0  0  0  0  0  0  0  0
    7.4567   -6.9464   27.2858 C   0  0  0  0  0  0  0  0  0  0  0  0
    0.1921   -5.7592   27.1123 C   0  0  0  0  0  0  0  0  0  0  0  0
    3.5517   -7.7407   25.9711 C   0  0  0  0  0  0  0  0  0  0  0  0
  1  4  4  0
  1 22  4  0
  2 20  4  0
  2 27  4  0
  3 12  4  0
  3 23  4  0
  4 25  4  0
  4 28  1  0
  5  8  4  0
  5 17  4  0
  6  7  4  0
  6 16  4  0
  7 18  4  0
  8 27  4  0
  9 13  4  0
  9 23  4  0
 10 11  1  0
 11 14  2  0
 11 27  1  0
 12 19  1  0
 12 24  4  0
 13 24  4  0
 15 18  1  0
 16 25  4  0
 16 26  4  0
 17 20  4  0
 17 28  1  0
 18 21  4  0
 21 26  4  0
 22 26  4  0
M  END
$$$$

 Created by Python create_sdf_string function

 28 30  0  0  0  0  0  0  0  0999 V2000
    5.7174   -8.4529   26.7190 C   0  0  0  0  0  0  0  0  0  0  0  0
    0.3974   -7.0711   27.5149 C   0  0  0  0  0  0  0  0  0  0  0  0
    2.5338   -7.6891   16.0102 C   0  0  0  0  0  0  0  0  0  0  0  0
    4.8690   -7.4380   26.4151 C   0  0  0  0  0  0  0  0  0  0  0  0
    2.3021   -5.6726   26.0378 C   0  0  0  0  0  0  0  0  0  0  0  0
    7.0880   -4.6163   27.0010 C   0  0  0  0  0  0  0  0  0  0  0  0
    8.3117   -4.3698   27.4436 C   0  0  0  0  0  0  0  0  0  0  0  0
    1.1339   -5.0515   26.3541 C   0  0  0  0  0  0  0  0  0  0  0  0
    4.8080   -8.0362   16.7101 C   0  0  0  0  0  0  0  0  0  0  0  0
   -1.2173   -3.9294   26.9717 O   0  0  0  0  0  0  0  0  0  0  0  0
   -1.0025   -5.0942   27.4586 C   0  0  0  0  0  0  0  0  0  0  0  0
    2.2474   -8.9123   16.6273 C   0  0  0  0  0  0  0  0  0  0  0  0
    4.4957   -9.2636   17.3041 C   0  0  0  0  0  0  0  0  0  0  0  0
   -1.8070   -5.6086   28.1920 O   0  0  0  0  0  0  0  0  0  0  0  0
   10.4296   -5.1799   28.3140 C   0  0  0  0  0  0  0  0  0  0  0  0
    6.6017   -5.9004   26.9187 C   0  0  0  0  0  0  0  0  0  0  0  0
    2.4761   -6.9940   26.4111 N   0  0  0  0  0  0  0  0  0  0  0  0
    9.1353   -5.4053   27.8239 C   0  0  0  0  0  0  0  0  0  0  0  0
    0.9922   -9.3232   16.5995 O   0  0  0  0  0  0  0  0  0  0  0  0
    1.5232   -7.6869   27.1182 C   0  0  0  0  0  0  0  0  0  0  0  0
    8.6878   -6.6715   27.7262 N   0  0  0  0  0  0  0  0  0  0  0  0
    6.9911   -8.2423   27.1808 C   0  0  0  0  0  0  0  0  0  0  0  0
    3.8436   -7.2758   16.0578 C   0  0  0  0  0  0  0  0  0  0  0  0
    3.1882   -9.7190   17.2566 C   0  0  0  0  0  0  0  0  0  0  0  0
    5.3488   -6.1737   26.5092 C   0  0  0  0  0  0  0  0  0  0  0  0
    7.4567   -6.9464   27.2858 C   0  0  0  0  0  0  0  0  0  0  0  0
    0.1921   -5.7592   27.1123 C   0  0  0  0  0  0  0  0  0  0  0  0
    3.5517   -7.7407   25.9711 C   0  0  0  0  0  0  0  0  0  0  0  0
  1  4  4  0
  1 22  4  0
  2 20  4  0
  2 27  4  0
  3 12  4  0
  3 23  4  0
  4 25  4  0
  4 28  1  0
  5  8  4  0
  5 17  4  0
  6  7  4  0
  6 16  4  0
  7 18  4  0
  8 27  4  0
  9 13  4  0
  9 23  4  0
 10 11  1  0
 11 14  2  0
 11 27  1  0
 12 19  1  0
 12 24  4  0
 13 24  4  0
 15 18  1  0
 16 25  4  0
 16 26  4  0
 17 20  4  0
 17 28  1  0
 18 21  4  0
 21 26  4  0
 22 26  4  0
M  END
$$$$

 Created by Python create_sdf_string function

 28 30  0  0  0  0  0  0  0  0999 V2000
    5.7174   -8.4529   26.7190 C   0  0  0  0  0  0  0  0  0  0  0  0
    0.3974   -7.0711   27.5149 C   0  0  0  0  0  0  0  0  0  0  0  0
    2.5338   -7.6891   16.0102 C   0  0  0  0  0  0  0  0  0  0  0  0
    4.8690   -7.4380   26.4151 C   0  0  0  0  0  0  0  0  0  0  0  0
    2.3021   -5.6726   26.0378 C   0  0  0  0  0  0  0  0  0  0  0  0
    7.0880   -4.6163   27.0010 C   0  0  0  0  0  0  0  0  0  0  0  0
    8.3117   -4.3698   27.4436 C   0  0  0  0  0  0  0  0  0  0  0  0
    1.1339   -5.0515   26.3541 C   0  0  0  0  0  0  0  0  0  0  0  0
    4.8080   -8.0362   16.7101 C   0  0  0  0  0  0  0  0  0  0  0  0
   -1.2173   -3.9294   26.9717 O   0  0  0  0  0  0  0  0  0  0  0  0
   -1.0025   -5.0942   27.4586 C   0  0  0  0  0  0  0  0  0  0  0  0
    2.2474   -8.9123   16.6273 C   0  0  0  0  0  0  0  0  0  0  0  0
    4.4957   -9.2636   17.3041 C   0  0  0  0  0  0  0  0  0  0  0  0
   -1.8070   -5.6086   28.1920 O   0  0  0  0  0  0  0  0  0  0  0  0
   10.4296   -5.1799   28.3140 C   0  0  0  0  0  0  0  0  0  0  0  0
    6.6017   -5.9004   26.9187 C   0  0  0  0  0  0  0  0  0  0  0  0
    2.4761   -6.9940   26.4111 N   0  0  0  0  0  0  0  0  0  0  0  0
    9.1353   -5.4053   27.8239 C   0  0  0  0  0  0  0  0  0  0  0  0
    0.9922   -9.3232   16.5995 O   0  0  0  0  0  0  0  0  0  0  0  0
    1.5232   -7.6869   27.1182 C   0  0  0  0  0  0  0  0  0  0  0  0
    8.6878   -6.6715   27.7262 N   0  0  0  0  0  0  0  0  0  0  0  0
    6.9911   -8.2423   27.1808 C   0  0  0  0  0  0  0  0  0  0  0  0
    3.8436   -7.2758   16.0578 C   0  0  0  0  0  0  0  0  0  0  0  0
    3.1882   -9.7190   17.2566 C   0  0  0  0  0  0  0  0  0  0  0  0
    5.3488   -6.1737   26.5092 C   0  0  0  0  0  0  0  0  0  0  0  0
    7.4567   -6.9464   27.2858 C   0  0  0  0  0  0  0  0  0  0  0  0
    0.1921   -5.7592   27.1123 C   0  0  0  0  0  0  0  0  0  0  0  0
    3.5517   -7.7407   25.9711 C   0  0  0  0  0  0  0  0  0  0  0  0
  1  4  4  0
  1 22  4  0
  2 20  4  0
  2 27  4  0
  3 12  4  0
  3 23  4  0
  4 25  4  0
  4 28  1  0
  5  8  4  0
  5 17  4  0
  6  7  4  0
  6 16  4  0
  7 18  4  0
  8 27  4  0
  9 13  4  0
  9 23  4  0
 10 11  1  0
 11 14  2  0
 11 27  1  0
 12 19  1  0
 12 24  4  0
 13 24  4  0
 15 18  1  0
 16 25  4  0
 16 26  4  0
 17 20  4  0
 17 28  1  0
 18 21  4  0
 21 26  4  0
 22 26  4  0
M  END
$$$$

 Created by Python create_sdf_string function

 28 30  0  0  0  0  0  0  0  0999 V2000
    5.7174   -8.4529   26.7190 C   0  0  0  0  0  0  0  0  0  0  0  0
    0.3974   -7.0711   27.5149 C   0  0  0  0  0  0  0  0  0  0  0  0
    2.5338   -7.6891   16.0102 C   0  0  0  0  0  0  0  0  0  0  0  0
    4.8690   -7.4380   26.4151 C   0  0  0  0  0  0  0  0  0  0  0  0
    2.3021   -5.6726   26.0378 C   0  0  0  0  0  0  0  0  0  0  0  0
    7.0880   -4.6163   27.0010 C   0  0  0  0  0  0  0  0  0  0  0  0
    8.3117   -4.3698   27.4436 C   0  0  0  0  0  0  0  0  0  0  0  0
    1.1339   -5.0515   26.3541 C   0  0  0  0  0  0  0  0  0  0  0  0
    4.8080   -8.0362   16.7101 C   0  0  0  0  0  0  0  0  0  0  0  0
   -1.2173   -3.9294   26.9717 O   0  0  0  0  0  0  0  0  0  0  0  0
   -1.0025   -5.0942   27.4586 C   0  0  0  0  0  0  0  0  0  0  0  0
    2.2474   -8.9123   16.6273 C   0  0  0  0  0  0  0  0  0  0  0  0
    4.4957   -9.2636   17.3041 C   0  0  0  0  0  0  0  0  0  0  0  0
   -1.8070   -5.6086   28.1920 O   0  0  0  0  0  0  0  0  0  0  0  0
   10.4296   -5.1799   28.3140 C   0  0  0  0  0  0  0  0  0  0  0  0
    6.6017   -5.9004   26.9187 C   0  0  0  0  0  0  0  0  0  0  0  0
    2.4761   -6.9940   26.4111 N   0  0  0  0  0  0  0  0  0  0  0  0
    9.1353   -5.4053   27.8239 C   0  0  0  0  0  0  0  0  0  0  0  0
    0.9922   -9.3232   16.5995 O   0  0  0  0  0  0  0  0  0  0  0  0
    1.5232   -7.6869   27.1182 C   0  0  0  0  0  0  0  0  0  0  0  0
    8.6878   -6.6715   27.7262 N   0  0  0  0  0  0  0  0  0  0  0  0
    6.9911   -8.2423   27.1808 C   0  0  0  0  0  0  0  0  0  0  0  0
    3.8436   -7.2758   16.0578 C   0  0  0  0  0  0  0  0  0  0  0  0
    3.1882   -9.7190   17.2566 C   0  0  0  0  0  0  0  0  0  0  0  0
    5.3488   -6.1737   26.5092 C   0  0  0  0  0  0  0  0  0  0  0  0
    7.4567   -6.9464   27.2858 C   0  0  0  0  0  0  0  0  0  0  0  0
    0.1921   -5.7592   27.1123 C   0  0  0  0  0  0  0  0  0  0  0  0
    3.5517   -7.7407   25.9711 C   0  0  0  0  0  0  0  0  0  0  0  0
  1  4  4  0
  1 22  4  0
  2 20  4  0
  2 27  4  0
  3 12  4  0
  3 23  4  0
  4 25  4  0
  4 28  1  0
  5  8  4  0
  5 17  4  0
  6  7  4  0
  6 16  4  0
  7 18  4  0
  8 27  4  0
  9 13  4  0
  9 23  4  0
 10 11  1  0
 11 14  2  0
 11 27  1  0
 12 19  1  0
 12 24  4  0
 13 24  4  0
 15 18  1  0
 16 25  4  0
 16 26  4  0
 17 20  4  0
 17 28  1  0
 18 21  4  0
 21 26  4  0
 22 26  4  0
M  END
$$$$

 Created by Python create_sdf_string function

 28 30  0  0  0  0  0  0  0  0999 V2000
    5.7174   -8.4529   26.7190 C   0  0  0  0  0  0  0  0  0  0  0  0
    0.3974   -7.0711   27.5149 C   0  0  0  0  0  0  0  0  0  0  0  0
    2.5338   -7.6891   16.0102 C   0  0  0  0  0  0  0  0  0  0  0  0
    4.8690   -7.4380   26.4151 C   0  0  0  0  0  0  0  0  0  0  0  0
    2.3021   -5.6726   26.0378 C   0  0  0  0  0  0  0  0  0  0  0  0
    7.0880   -4.6163   27.0010 C   0  0  0  0  0  0  0  0  0  0  0  0
    8.3117   -4.3698   27.4436 C   0  0  0  0  0  0  0  0  0  0  0  0
    1.1339   -5.0515   26.3541 C   0  0  0  0  0  0  0  0  0  0  0  0
    4.8080   -8.0362   16.7101 C   0  0  0  0  0  0  0  0  0  0  0  0
   -1.2173   -3.9294   26.9717 O   0  0  0  0  0  0  0  0  0  0  0  0
   -1.0025   -5.0942   27.4586 C   0  0  0  0  0  0  0  0  0  0  0  0
    2.2474   -8.9123   16.6273 C   0  0  0  0  0  0  0  0  0  0  0  0
    4.4957   -9.2636   17.3041 C   0  0  0  0  0  0  0  0  0  0  0  0
   -1.8070   -5.6086   28.1920 O   0  0  0  0  0  0  0  0  0  0  0  0
   10.4296   -5.1799   28.3140 C   0  0  0  0  0  0  0  0  0  0  0  0
    6.6017   -5.9004   26.9187 C   0  0  0  0  0  0  0  0  0  0  0  0
    2.4761   -6.9940   26.4111 N   0  0  0  0  0  0  0  0  0  0  0  0
    9.1353   -5.4053   27.8239 C   0  0  0  0  0  0  0  0  0  0  0  0
    0.9922   -9.3232   16.5995 O   0  0  0  0  0  0  0  0  0  0  0  0
    1.5232   -7.6869   27.1182 C   0  0  0  0  0  0  0  0  0  0  0  0
    8.6878   -6.6715   27.7262 N   0  0  0  0  0  0  0  0  0  0  0  0
    6.9911   -8.2423   27.1808 C   0  0  0  0  0  0  0  0  0  0  0  0
    3.8436   -7.2758   16.0578 C   0  0  0  0  0  0  0  0  0  0  0  0
    3.1882   -9.7190   17.2566 C   0  0  0  0  0  0  0  0  0  0  0  0
    5.3488   -6.1737   26.5092 C   0  0  0  0  0  0  0  0  0  0  0  0
    7.4567   -6.9464   27.2858 C   0  0  0  0  0  0  0  0  0  0  0  0
    0.1921   -5.7592   27.1123 C   0  0  0  0  0  0  0  0  0  0  0  0
    3.5517   -7.7407   25.9711 C   0  0  0  0  0  0  0  0  0  0  0  0
  1  4  4  0
  1 22  4  0
  2 20  4  0
  2 27  4  0
  3 12  4  0
  3 23  4  0
  4 25  4  0
  4 28  1  0
  5  8  4  0
  5 17  4  0
  6  7  4  0
  6 16  4  0
  7 18  4  0
  8 27  4  0
  9 13  4  0
  9 23  4  0
 10 11  1  0
 11 14  2  0
 11 27  1  0
 12 19  1  0
 12 24  4  0
 13 24  4  0
 15 18  1  0
 16 25  4  0
 16 26  4  0
 17 20  4  0
 17 28  1  0
 18 21  4  0
 21 26  4  0
 22 26  4  0
M  END
$$$$

 Created by Python create_sdf_string function

 28 30  0  0  0  0  0  0  0  0999 V2000
    5.7174   -8.4529   26.7190 C   0  0  0  0  0  0  0  0  0  0  0  0
    0.3974   -7.0711   27.5149 C   0  0  0  0  0  0  0  0  0  0  0  0
    2.5338   -7.6891   16.0102 C   0  0  0  0  0  0  0  0  0  0  0  0
    4.8690   -7.4380   26.4151 C   0  0  0  0  0  0  0  0  0  0  0  0
    2.3021   -5.6726   26.0378 C   0  0  0  0  0  0  0  0  0  0  0  0
    7.0880   -4.6163   27.0010 C   0  0  0  0  0  0  0  0  0  0  0  0
    8.3117   -4.3698   27.4436 C   0  0  0  0  0  0  0  0  0  0  0  0
    1.1339   -5.0515   26.3541 C   0  0  0  0  0  0  0  0  0  0  0  0
    4.8080   -8.0362   16.7101 C   0  0  0  0  0  0  0  0  0  0  0  0
   -1.2173   -3.9294   26.9717 O   0  0  0  0  0  0  0  0  0  0  0  0
   -1.0025   -5.0942   27.4586 C   0  0  0  0  0  0  0  0  0  0  0  0
    2.2474   -8.9123   16.6273 C   0  0  0  0  0  0  0  0  0  0  0  0
    4.4957   -9.2636   17.3041 C   0  0  0  0  0  0  0  0  0  0  0  0
   -1.8070   -5.6086   28.1920 O   0  0  0  0  0  0  0  0  0  0  0  0
   10.4296   -5.1799   28.3140 C   0  0  0  0  0  0  0  0  0  0  0  0
    6.6017   -5.9004   26.9187 C   0  0  0  0  0  0  0  0  0  0  0  0
    2.4761   -6.9940   26.4111 N   0  0  0  0  0  0  0  0  0  0  0  0
    9.1353   -5.4053   27.8239 C   0  0  0  0  0  0  0  0  0  0  0  0
    0.9922   -9.3232   16.5995 O   0  0  0  0  0  0  0  0  0  0  0  0
    1.5232   -7.6869   27.1182 C   0  0  0  0  0  0  0  0  0  0  0  0
    8.6878   -6.6715   27.7262 N   0  0  0  0  0  0  0  0  0  0  0  0
    6.9911   -8.2423   27.1808 C   0  0  0  0  0  0  0  0  0  0  0  0
    3.8436   -7.2758   16.0578 C   0  0  0  0  0  0  0  0  0  0  0  0
    3.1882   -9.7190   17.2566 C   0  0  0  0  0  0  0  0  0  0  0  0
    5.3488   -6.1737   26.5092 C   0  0  0  0  0  0  0  0  0  0  0  0
    7.4567   -6.9464   27.2858 C   0  0  0  0  0  0  0  0  0  0  0  0
    0.1921   -5.7592   27.1123 C   0  0  0  0  0  0  0  0  0  0  0  0
    3.5517   -7.7407   25.9711 C   0  0  0  0  0  0  0  0  0  0  0  0
  1  4  4  0
  1 22  4  0
  2 20  4  0
  2 27  4  0
  3 12  4  0
  3 23  4  0
  4 25  4  0
  4 28  1  0
  5  8  4  0
  5 17  4  0
  6  7  4  0
  6 16  4  0
  7 18  4  0
  8 27  4  0
  9 13  4  0
  9 23  4  0
 10 11  1  0
 11 14  2  0
 11 27  1  0
 12 19  1  0
 12 24  4  0
 13 24  4  0
 15 18  1  0
 16 25  4  0
 16 26  4  0
 17 20  4  0
 17 28  1  0
 18 21  4  0
 21 26  4  0
 22 26  4  0
M  END
$$$$

 Created by Python create_sdf_string function

 28 30  0  0  0  0  0  0  0  0999 V2000
    5.7174   -8.4529   26.7190 C   0  0  0  0  0  0  0  0  0  0  0  0
    0.3974   -7.0711   27.5149 C   0  0  0  0  0  0  0  0  0  0  0  0
    2.5338   -7.6891   16.0102 C   0  0  0  0  0  0  0  0  0  0  0  0
    4.8690   -7.4380   26.4151 C   0  0  0  0  0  0  0  0  0  0  0  0
    2.3021   -5.6726   26.0378 C   0  0  0  0  0  0  0  0  0  0  0  0
    7.0880   -4.6163   27.0010 C   0  0  0  0  0  0  0  0  0  0  0  0
    8.3117   -4.3698   27.4436 C   0  0  0  0  0  0  0  0  0  0  0  0
    1.1339   -5.0515   26.3541 C   0  0  0  0  0  0  0  0  0  0  0  0
    4.8080   -8.0362   16.7101 C   0  0  0  0  0  0  0  0  0  0  0  0
   -1.2173   -3.9294   26.9717 O   0  0  0  0  0  0  0  0  0  0  0  0
   -1.0025   -5.0942   27.4586 C   0  0  0  0  0  0  0  0  0  0  0  0
    2.2474   -8.9123   16.6273 C   0  0  0  0  0  0  0  0  0  0  0  0
    4.4957   -9.2636   17.3041 C   0  0  0  0  0  0  0  0  0  0  0  0
   -1.8070   -5.6086   28.1920 O   0  0  0  0  0  0  0  0  0  0  0  0
   10.4296   -5.1799   28.3140 C   0  0  0  0  0  0  0  0  0  0  0  0
    6.6017   -5.9004   26.9187 C   0  0  0  0  0  0  0  0  0  0  0  0
    2.4761   -6.9940   26.4111 N   0  0  0  0  0  0  0  0  0  0  0  0
    9.1353   -5.4053   27.8239 C   0  0  0  0  0  0  0  0  0  0  0  0
    0.9922   -9.3232   16.5995 O   0  0  0  0  0  0  0  0  0  0  0  0
    1.5232   -7.6869   27.1182 C   0  0  0  0  0  0  0  0  0  0  0  0
    8.6878   -6.6715   27.7262 N   0  0  0  0  0  0  0  0  0  0  0  0
    6.9911   -8.2423   27.1808 C   0  0  0  0  0  0  0  0  0  0  0  0
    3.8436   -7.2758   16.0578 C   0  0  0  0  0  0  0  0  0  0  0  0
    3.1882   -9.7190   17.2566 C   0  0  0  0  0  0  0  0  0  0  0  0
    5.3488   -6.1737   26.5092 C   0  0  0  0  0  0  0  0  0  0  0  0
    7.4567   -6.9464   27.2858 C   0  0  0  0  0  0  0  0  0  0  0  0
    0.1921   -5.7592   27.1123 C   0  0  0  0  0  0  0  0  0  0  0  0
    3.5517   -7.7407   25.9711 C   0  0  0  0  0  0  0  0  0  0  0  0
  1  4  4  0
  1 22  4  0
  2 20  4  0
  2 27  4  0
  3 12  4  0
  3 23  4  0
  4 25  4  0
  4 28  1  0
  5  8  4  0
  5 17  4  0
  6  7  4  0
  6 16  4  0
  7 18  4  0
  8 27  4  0
  9 13  4  0
  9 23  4  0
 10 11  1  0
 11 14  2  0
 11 27  1  0
 12 19  1  0
 12 24  4  0
 13 24  4  0
 15 18  1  0
 16 25  4  0
 16 26  4  0
 17 20  4  0
 17 28  1  0
 18 21  4  0
 21 26  4  0
 22 26  4  0
M  END
$$$$

 Created by Python create_sdf_string function

 28 30  0  0  0  0  0  0  0  0999 V2000
    5.7174   -8.4529   26.7190 C   0  0  0  0  0  0  0  0  0  0  0  0
    0.3974   -7.0711   27.5149 C   0  0  0  0  0  0  0  0  0  0  0  0
    2.5338   -7.6891   16.0102 C   0  0  0  0  0  0  0  0  0  0  0  0
    4.8690   -7.4380   26.4151 C   0  0  0  0  0  0  0  0  0  0  0  0
    2.3021   -5.6726   26.0378 C   0  0  0  0  0  0  0  0  0  0  0  0
    7.0880   -4.6163   27.0010 C   0  0  0  0  0  0  0  0  0  0  0  0
    8.3117   -4.3698   27.4436 C   0  0  0  0  0  0  0  0  0  0  0  0
    1.1339   -5.0515   26.3541 C   0  0  0  0  0  0  0  0  0  0  0  0
    4.8080   -8.0362   16.7101 C   0  0  0  0  0  0  0  0  0  0  0  0
   -1.2173   -3.9294   26.9717 O   0  0  0  0  0  0  0  0  0  0  0  0
   -1.0025   -5.0942   27.4586 C   0  0  0  0  0  0  0  0  0  0  0  0
    2.2474   -8.9123   16.6273 C   0  0  0  0  0  0  0  0  0  0  0  0
    4.4957   -9.2636   17.3041 C   0  0  0  0  0  0  0  0  0  0  0  0
   -1.8070   -5.6086   28.1920 O   0  0  0  0  0  0  0  0  0  0  0  0
   10.4296   -5.1799   28.3140 C   0  0  0  0  0  0  0  0  0  0  0  0
    6.6017   -5.9004   26.9187 C   0  0  0  0  0  0  0  0  0  0  0  0
    2.4761   -6.9940   26.4111 N   0  0  0  0  0  0  0  0  0  0  0  0
    9.1353   -5.4053   27.8239 C   0  0  0  0  0  0  0  0  0  0  0  0
    0.9922   -9.3232   16.5995 O   0  0  0  0  0  0  0  0  0  0  0  0
    1.5232   -7.6869   27.1182 C   0  0  0  0  0  0  0  0  0  0  0  0
    8.6878   -6.6715   27.7262 N   0  0  0  0  0  0  0  0  0  0  0  0
    6.9911   -8.2423   27.1808 C   0  0  0  0  0  0  0  0  0  0  0  0
    3.8436   -7.2758   16.0578 C   0  0  0  0  0  0  0  0  0  0  0  0
    3.1882   -9.7190   17.2566 C   0  0  0  0  0  0  0  0  0  0  0  0
    5.3488   -6.1737   26.5092 C   0  0  0  0  0  0  0  0  0  0  0  0
    7.4567   -6.9464   27.2858 C   0  0  0  0  0  0  0  0  0  0  0  0
    0.1921   -5.7592   27.1123 C   0  0  0  0  0  0  0  0  0  0  0  0
    3.5517   -7.7407   25.9711 C   0  0  0  0  0  0  0  0  0  0  0  0
  1  4  4  0
  1 22  4  0
  2 20  4  0
  2 27  4  0
  3 12  4  0
  3 23  4  0
  4 25  4  0
  4 28  1  0
  5  8  4  0
  5 17  4  0
  6  7  4  0
  6 16  4  0
  7 18  4  0
  8 27  4  0
  9 13  4  0
  9 23  4  0
 10 11  1  0
 11 14  2  0
 11 27  1  0
 12 19  1  0
 12 24  4  0
 13 24  4  0
 15 18  1  0
 16 25  4  0
 16 26  4  0
 17 20  4  0
 17 28  1  0
 18 21  4  0
 21 26  4  0
 22 26  4  0
M  END
$$$$

 Created by Python create_sdf_string function

 28 30  0  0  0  0  0  0  0  0999 V2000
    5.7174   -8.4529   26.7190 C   0  0  0  0  0  0  0  0  0  0  0  0
    0.3974   -7.0711   27.5149 C   0  0  0  0  0  0  0  0  0  0  0  0
    2.5338   -7.6891   16.0102 C   0  0  0  0  0  0  0  0  0  0  0  0
    4.8690   -7.4380   26.4151 C   0  0  0  0  0  0  0  0  0  0  0  0
    2.3021   -5.6726   26.0378 C   0  0  0  0  0  0  0  0  0  0  0  0
    7.0880   -4.6163   27.0010 C   0  0  0  0  0  0  0  0  0  0  0  0
    8.3117   -4.3698   27.4436 C   0  0  0  0  0  0  0  0  0  0  0  0
    1.1339   -5.0515   26.3541 C   0  0  0  0  0  0  0  0  0  0  0  0
    4.8080   -8.0362   16.7101 C   0  0  0  0  0  0  0  0  0  0  0  0
   -1.2173   -3.9294   26.9717 O   0  0  0  0  0  0  0  0  0  0  0  0
   -1.0025   -5.0942   27.4586 C   0  0  0  0  0  0  0  0  0  0  0  0
    2.2474   -8.9123   16.6273 C   0  0  0  0  0  0  0  0  0  0  0  0
    4.4957   -9.2636   17.3041 C   0  0  0  0  0  0  0  0  0  0  0  0
   -1.8070   -5.6086   28.1920 O   0  0  0  0  0  0  0  0  0  0  0  0
   10.4296   -5.1799   28.3140 C   0  0  0  0  0  0  0  0  0  0  0  0
    6.6017   -5.9004   26.9187 C   0  0  0  0  0  0  0  0  0  0  0  0
    2.4761   -6.9940   26.4111 N   0  0  0  0  0  0  0  0  0  0  0  0
    9.1353   -5.4053   27.8239 C   0  0  0  0  0  0  0  0  0  0  0  0
    0.9922   -9.3232   16.5995 O   0  0  0  0  0  0  0  0  0  0  0  0
    1.5232   -7.6869   27.1182 C   0  0  0  0  0  0  0  0  0  0  0  0
    8.6878   -6.6715   27.7262 N   0  0  0  0  0  0  0  0  0  0  0  0
    6.9911   -8.2423   27.1808 C   0  0  0  0  0  0  0  0  0  0  0  0
    3.8436   -7.2758   16.0578 C   0  0  0  0  0  0  0  0  0  0  0  0
    3.1882   -9.7190   17.2566 C   0  0  0  0  0  0  0  0  0  0  0  0
    5.3488   -6.1737   26.5092 C   0  0  0  0  0  0  0  0  0  0  0  0
    7.4567   -6.9464   27.2858 C   0  0  0  0  0  0  0  0  0  0  0  0
    0.1921   -5.7592   27.1123 C   0  0  0  0  0  0  0  0  0  0  0  0
    3.5517   -7.7407   25.9711 C   0  0  0  0  0  0  0  0  0  0  0  0
  1  4  4  0
  1 22  4  0
  2 20  4  0
  2 27  4  0
  3 12  4  0
  3 23  4  0
  4 25  4  0
  4 28  1  0
  5  8  4  0
  5 17  4  0
  6  7  4  0
  6 16  4  0
  7 18  4  0
  8 27  4  0
  9 13  4  0
  9 23  4  0
 10 11  1  0
 11 14  2  0
 11 27  1  0
 12 19  1  0
 12 24  4  0
 13 24  4  0
 15 18  1  0
 16 25  4  0
 16 26  4  0
 17 20  4  0
 17 28  1  0
 18 21  4  0
 21 26  4  0
 22 26  4  0
M  END
$$$$

 Created by Python create_sdf_string function

 28 30  0  0  0  0  0  0  0  0999 V2000
    5.7174   -8.4529   26.7190 C   0  0  0  0  0  0  0  0  0  0  0  0
    0.3974   -7.0711   27.5149 C   0  0  0  0  0  0  0  0  0  0  0  0
    2.5338   -7.6891   16.0102 C   0  0  0  0  0  0  0  0  0  0  0  0
    4.8690   -7.4380   26.4151 C   0  0  0  0  0  0  0  0  0  0  0  0
    2.3021   -5.6726   26.0378 C   0  0  0  0  0  0  0  0  0  0  0  0
    7.0880   -4.6163   27.0010 C   0  0  0  0  0  0  0  0  0  0  0  0
    8.3117   -4.3698   27.4436 C   0  0  0  0  0  0  0  0  0  0  0  0
    1.1339   -5.0515   26.3541 C   0  0  0  0  0  0  0  0  0  0  0  0
    4.8080   -8.0362   16.7101 C   0  0  0  0  0  0  0  0  0  0  0  0
   -1.2173   -3.9294   26.9717 O   0  0  0  0  0  0  0  0  0  0  0  0
   -1.0025   -5.0942   27.4586 C   0  0  0  0  0  0  0  0  0  0  0  0
    2.2474   -8.9123   16.6273 C   0  0  0  0  0  0  0  0  0  0  0  0
    4.4957   -9.2636   17.3041 C   0  0  0  0  0  0  0  0  0  0  0  0
   -1.8070   -5.6086   28.1920 O   0  0  0  0  0  0  0  0  0  0  0  0
   10.4296   -5.1799   28.3140 C   0  0  0  0  0  0  0  0  0  0  0  0
    6.6017   -5.9004   26.9187 C   0  0  0  0  0  0  0  0  0  0  0  0
    2.4761   -6.9940   26.4111 N   0  0  0  0  0  0  0  0  0  0  0  0
    9.1353   -5.4053   27.8239 C   0  0  0  0  0  0  0  0  0  0  0  0
    0.9922   -9.3232   16.5995 O   0  0  0  0  0  0  0  0  0  0  0  0
    1.5232   -7.6869   27.1182 C   0  0  0  0  0  0  0  0  0  0  0  0
    8.6878   -6.6715   27.7262 N   0  0  0  0  0  0  0  0  0  0  0  0
    6.9911   -8.2423   27.1808 C   0  0  0  0  0  0  0  0  0  0  0  0
    3.8436   -7.2758   16.0578 C   0  0  0  0  0  0  0  0  0  0  0  0
    3.1882   -9.7190   17.2566 C   0  0  0  0  0  0  0  0  0  0  0  0
    5.3488   -6.1737   26.5092 C   0  0  0  0  0  0  0  0  0  0  0  0
    7.4567   -6.9464   27.2858 C   0  0  0  0  0  0  0  0  0  0  0  0
    0.1921   -5.7592   27.1123 C   0  0  0  0  0  0  0  0  0  0  0  0
    3.5517   -7.7407   25.9711 C   0  0  0  0  0  0  0  0  0  0  0  0
  1  4  4  0
  1 22  4  0
  2 20  4  0
  2 27  4  0
  3 12  4  0
  3 23  4  0
  4 25  4  0
  4 28  1  0
  5  8  4  0
  5 17  4  0
  6  7  4  0
  6 16  4  0
  7 18  4  0
  8 27  4  0
  9 13  4  0
  9 23  4  0
 10 11  1  0
 11 14  2  0
 11 27  1  0
 12 19  1  0
 12 24  4  0
 13 24  4  0
 15 18  1  0
 16 25  4  0
 16 26  4  0
 17 20  4  0
 17 28  1  0
 18 21  4  0
 21 26  4  0
 22 26  4  0
M  END
$$$$

 Created by Python create_sdf_string function

 28 30  0  0  0  0  0  0  0  0999 V2000
    5.7174   -8.4529   26.7190 C   0  0  0  0  0  0  0  0  0  0  0  0
    0.3974   -7.0711   27.5149 C   0  0  0  0  0  0  0  0  0  0  0  0
    2.5338   -7.6891   16.0102 C   0  0  0  0  0  0  0  0  0  0  0  0
    4.8690   -7.4380   26.4151 C   0  0  0  0  0  0  0  0  0  0  0  0
    2.3021   -5.6726   26.0378 C   0  0  0  0  0  0  0  0  0  0  0  0
    7.0880   -4.6163   27.0010 C   0  0  0  0  0  0  0  0  0  0  0  0
    8.3117   -4.3698   27.4436 C   0  0  0  0  0  0  0  0  0  0  0  0
    1.1339   -5.0515   26.3541 C   0  0  0  0  0  0  0  0  0  0  0  0
    4.8080   -8.0362   16.7101 C   0  0  0  0  0  0  0  0  0  0  0  0
   -1.2173   -3.9294   26.9717 O   0  0  0  0  0  0  0  0  0  0  0  0
   -1.0025   -5.0942   27.4586 C   0  0  0  0  0  0  0  0  0  0  0  0
    2.2474   -8.9123   16.6273 C   0  0  0  0  0  0  0  0  0  0  0  0
    4.4957   -9.2636   17.3041 C   0  0  0  0  0  0  0  0  0  0  0  0
   -1.8070   -5.6086   28.1920 O   0  0  0  0  0  0  0  0  0  0  0  0
   10.4296   -5.1799   28.3140 C   0  0  0  0  0  0  0  0  0  0  0  0
    6.6017   -5.9004   26.9187 C   0  0  0  0  0  0  0  0  0  0  0  0
    2.4761   -6.9940   26.4111 N   0  0  0  0  0  0  0  0  0  0  0  0
    9.1353   -5.4053   27.8239 C   0  0  0  0  0  0  0  0  0  0  0  0
    0.9922   -9.3232   16.5995 O   0  0  0  0  0  0  0  0  0  0  0  0
    1.5232   -7.6869   27.1182 C   0  0  0  0  0  0  0  0  0  0  0  0
    8.6878   -6.6715   27.7262 N   0  0  0  0  0  0  0  0  0  0  0  0
    6.9911   -8.2423   27.1808 C   0  0  0  0  0  0  0  0  0  0  0  0
    3.8436   -7.2758   16.0578 C   0  0  0  0  0  0  0  0  0  0  0  0
    3.1882   -9.7190   17.2566 C   0  0  0  0  0  0  0  0  0  0  0  0
    5.3488   -6.1737   26.5092 C   0  0  0  0  0  0  0  0  0  0  0  0
    7.4567   -6.9464   27.2858 C   0  0  0  0  0  0  0  0  0  0  0  0
    0.1921   -5.7592   27.1123 C   0  0  0  0  0  0  0  0  0  0  0  0
    3.5517   -7.7407   25.9711 C   0  0  0  0  0  0  0  0  0  0  0  0
  1  4  4  0
  1 22  4  0
  2 20  4  0
  2 27  4  0
  3 12  4  0
  3 23  4  0
  4 25  4  0
  4 28  1  0
  5  8  4  0
  5 17  4  0
  6  7  4  0
  6 16  4  0
  7 18  4  0
  8 27  4  0
  9 13  4  0
  9 23  4  0
 10 11  1  0
 11 14  2  0
 11 27  1  0
 12 19  1  0
 12 24  4  0
 13 24  4  0
 15 18  1  0
 16 25  4  0
 16 26  4  0
 17 20  4  0
 17 28  1  0
 18 21  4  0
 21 26  4  0
 22 26  4  0
M  END
$$$$

 Created by Python create_sdf_string function

 28 30  0  0  0  0  0  0  0  0999 V2000
    5.7174   -8.4529   26.7190 C   0  0  0  0  0  0  0  0  0  0  0  0
    0.3974   -7.0711   27.5149 C   0  0  0  0  0  0  0  0  0  0  0  0
    2.5338   -7.6891   16.0102 C   0  0  0  0  0  0  0  0  0  0  0  0
    4.8690   -7.4380   26.4151 C   0  0  0  0  0  0  0  0  0  0  0  0
    2.3021   -5.6726   26.0378 C   0  0  0  0  0  0  0  0  0  0  0  0
    7.0880   -4.6163   27.0010 C   0  0  0  0  0  0  0  0  0  0  0  0
    8.3117   -4.3698   27.4436 C   0  0  0  0  0  0  0  0  0  0  0  0
    1.1339   -5.0515   26.3541 C   0  0  0  0  0  0  0  0  0  0  0  0
    4.8080   -8.0362   16.7101 C   0  0  0  0  0  0  0  0  0  0  0  0
   -1.2173   -3.9294   26.9717 O   0  0  0  0  0  0  0  0  0  0  0  0
   -1.0025   -5.0942   27.4586 C   0  0  0  0  0  0  0  0  0  0  0  0
    2.2474   -8.9123   16.6273 C   0  0  0  0  0  0  0  0  0  0  0  0
    4.4957   -9.2636   17.3041 C   0  0  0  0  0  0  0  0  0  0  0  0
   -1.8070   -5.6086   28.1920 O   0  0  0  0  0  0  0  0  0  0  0  0
   10.4296   -5.1799   28.3140 C   0  0  0  0  0  0  0  0  0  0  0  0
    6.6017   -5.9004   26.9187 C   0  0  0  0  0  0  0  0  0  0  0  0
    2.4761   -6.9940   26.4111 N   0  0  0  0  0  0  0  0  0  0  0  0
    9.1353   -5.4053   27.8239 C   0  0  0  0  0  0  0  0  0  0  0  0
    0.9922   -9.3232   16.5995 O   0  0  0  0  0  0  0  0  0  0  0  0
    1.5232   -7.6869   27.1182 C   0  0  0  0  0  0  0  0  0  0  0  0
    8.6878   -6.6715   27.7262 N   0  0  0  0  0  0  0  0  0  0  0  0
    6.9911   -8.2423   27.1808 C   0  0  0  0  0  0  0  0  0  0  0  0
    3.8436   -7.2758   16.0578 C   0  0  0  0  0  0  0  0  0  0  0  0
    3.1882   -9.7190   17.2566 C   0  0  0  0  0  0  0  0  0  0  0  0
    5.3488   -6.1737   26.5092 C   0  0  0  0  0  0  0  0  0  0  0  0
    7.4567   -6.9464   27.2858 C   0  0  0  0  0  0  0  0  0  0  0  0
    0.1921   -5.7592   27.1123 C   0  0  0  0  0  0  0  0  0  0  0  0
    3.5517   -7.7407   25.9711 C   0  0  0  0  0  0  0  0  0  0  0  0
  1  4  4  0
  1 22  4  0
  2 20  4  0
  2 27  4  0
  3 12  4  0
  3 23  4  0
  4 25  4  0
  4 28  1  0
  5  8  4  0
  5 17  4  0
  6  7  4  0
  6 16  4  0
  7 18  4  0
  8 27  4  0
  9 13  4  0
  9 23  4  0
 10 11  1  0
 11 14  2  0
 11 27  1  0
 12 19  1  0
 12 24  4  0
 13 24  4  0
 15 18  1  0
 16 25  4  0
 16 26  4  0
 17 20  4  0
 17 28  1  0
 18 21  4  0
 21 26  4  0
 22 26  4  0
M  END
$$$$

 Created by Python create_sdf_string function

 28 30  0  0  0  0  0  0  0  0999 V2000
    5.7174   -8.4529   26.7190 C   0  0  0  0  0  0  0  0  0  0  0  0
    0.3974   -7.0711   27.5149 C   0  0  0  0  0  0  0  0  0  0  0  0
    2.5338   -7.6891   16.0102 C   0  0  0  0  0  0  0  0  0  0  0  0
    4.8690   -7.4380   26.4151 C   0  0  0  0  0  0  0  0  0  0  0  0
    2.3021   -5.6726   26.0378 C   0  0  0  0  0  0  0  0  0  0  0  0
    7.0880   -4.6163   27.0010 C   0  0  0  0  0  0  0  0  0  0  0  0
    8.3117   -4.3698   27.4436 C   0  0  0  0  0  0  0  0  0  0  0  0
    1.1339   -5.0515   26.3541 C   0  0  0  0  0  0  0  0  0  0  0  0
    4.8080   -8.0362   16.7101 C   0  0  0  0  0  0  0  0  0  0  0  0
   -1.2173   -3.9294   26.9717 O   0  0  0  0  0  0  0  0  0  0  0  0
   -1.0025   -5.0942   27.4586 C   0  0  0  0  0  0  0  0  0  0  0  0
    2.2474   -8.9123   16.6273 C   0  0  0  0  0  0  0  0  0  0  0  0
    4.4957   -9.2636   17.3041 C   0  0  0  0  0  0  0  0  0  0  0  0
   -1.8070   -5.6086   28.1920 O   0  0  0  0  0  0  0  0  0  0  0  0
   10.4296   -5.1799   28.3140 C   0  0  0  0  0  0  0  0  0  0  0  0
    6.6017   -5.9004   26.9187 C   0  0  0  0  0  0  0  0  0  0  0  0
    2.4761   -6.9940   26.4111 N   0  0  0  0  0  0  0  0  0  0  0  0
    9.1353   -5.4053   27.8239 C   0  0  0  0  0  0  0  0  0  0  0  0
    0.9922   -9.3232   16.5995 O   0  0  0  0  0  0  0  0  0  0  0  0
    1.5232   -7.6869   27.1182 C   0  0  0  0  0  0  0  0  0  0  0  0
    8.6878   -6.6715   27.7262 N   0  0  0  0  0  0  0  0  0  0  0  0
    6.9911   -8.2423   27.1808 C   0  0  0  0  0  0  0  0  0  0  0  0
    3.8436   -7.2758   16.0578 C   0  0  0  0  0  0  0  0  0  0  0  0
    3.1882   -9.7190   17.2566 C   0  0  0  0  0  0  0  0  0  0  0  0
    5.3488   -6.1737   26.5092 C   0  0  0  0  0  0  0  0  0  0  0  0
    7.4567   -6.9464   27.2858 C   0  0  0  0  0  0  0  0  0  0  0  0
    0.1921   -5.7592   27.1123 C   0  0  0  0  0  0  0  0  0  0  0  0
    3.5517   -7.7407   25.9711 C   0  0  0  0  0  0  0  0  0  0  0  0
  1  4  4  0
  1 22  4  0
  2 20  4  0
  2 27  4  0
  3 12  4  0
  3 23  4  0
  4 25  4  0
  4 28  1  0
  5  8  4  0
  5 17  4  0
  6  7  4  0
  6 16  4  0
  7 18  4  0
  8 27  4  0
  9 13  4  0
  9 23  4  0
 10 11  1  0
 11 14  2  0
 11 27  1  0
 12 19  1  0
 12 24  4  0
 13 24  4  0
 15 18  1  0
 16 25  4  0
 16 26  4  0
 17 20  4  0
 17 28  1  0
 18 21  4  0
 21 26  4  0
 22 26  4  0
M  END
$$$$

 Created by Python create_sdf_string function

 28 30  0  0  0  0  0  0  0  0999 V2000
    5.7174   -8.4529   26.7190 C   0  0  0  0  0  0  0  0  0  0  0  0
    0.3974   -7.0711   27.5149 C   0  0  0  0  0  0  0  0  0  0  0  0
    2.5338   -7.6891   16.0102 C   0  0  0  0  0  0  0  0  0  0  0  0
    4.8690   -7.4380   26.4151 C   0  0  0  0  0  0  0  0  0  0  0  0
    2.3021   -5.6726   26.0378 C   0  0  0  0  0  0  0  0  0  0  0  0
    7.0880   -4.6163   27.0010 C   0  0  0  0  0  0  0  0  0  0  0  0
    8.3117   -4.3698   27.4436 C   0  0  0  0  0  0  0  0  0  0  0  0
    1.1339   -5.0515   26.3541 C   0  0  0  0  0  0  0  0  0  0  0  0
    4.8080   -8.0362   16.7101 C   0  0  0  0  0  0  0  0  0  0  0  0
   -1.2173   -3.9294   26.9717 O   0  0  0  0  0  0  0  0  0  0  0  0
   -1.0025   -5.0942   27.4586 C   0  0  0  0  0  0  0  0  0  0  0  0
    2.2474   -8.9123   16.6273 C   0  0  0  0  0  0  0  0  0  0  0  0
    4.4957   -9.2636   17.3041 C   0  0  0  0  0  0  0  0  0  0  0  0
   -1.8070   -5.6086   28.1920 O   0  0  0  0  0  0  0  0  0  0  0  0
   10.4296   -5.1799   28.3140 C   0  0  0  0  0  0  0  0  0  0  0  0
    6.6017   -5.9004   26.9187 C   0  0  0  0  0  0  0  0  0  0  0  0
    2.4761   -6.9940   26.4111 N   0  0  0  0  0  0  0  0  0  0  0  0
    9.1353   -5.4053   27.8239 C   0  0  0  0  0  0  0  0  0  0  0  0
    0.9922   -9.3232   16.5995 O   0  0  0  0  0  0  0  0  0  0  0  0
    1.5232   -7.6869   27.1182 C   0  0  0  0  0  0  0  0  0  0  0  0
    8.6878   -6.6715   27.7262 N   0  0  0  0  0  0  0  0  0  0  0  0
    6.9911   -8.2423   27.1808 C   0  0  0  0  0  0  0  0  0  0  0  0
    3.8436   -7.2758   16.0578 C   0  0  0  0  0  0  0  0  0  0  0  0
    3.1882   -9.7190   17.2566 C   0  0  0  0  0  0  0  0  0  0  0  0
    5.3488   -6.1737   26.5092 C   0  0  0  0  0  0  0  0  0  0  0  0
    7.4567   -6.9464   27.2858 C   0  0  0  0  0  0  0  0  0  0  0  0
    0.1921   -5.7592   27.1123 C   0  0  0  0  0  0  0  0  0  0  0  0
    3.5517   -7.7407   25.9711 C   0  0  0  0  0  0  0  0  0  0  0  0
  1  4  4  0
  1 22  4  0
  2 20  4  0
  2 27  4  0
  3 12  4  0
  3 23  4  0
  4 25  4  0
  4 28  1  0
  5  8  4  0
  5 17  4  0
  6  7  4  0
  6 16  4  0
  7 18  4  0
  8 27  4  0
  9 13  4  0
  9 23  4  0
 10 11  1  0
 11 14  2  0
 11 27  1  0
 12 19  1  0
 12 24  4  0
 13 24  4  0
 15 18  1  0
 16 25  4  0
 16 26  4  0
 17 20  4  0
 17 28  1  0
 18 21  4  0
 21 26  4  0
 22 26  4  0
M  END
$$$$

 Created by Python create_sdf_string function

 28 30  0  0  0  0  0  0  0  0999 V2000
    5.7174   -8.4529   26.7190 C   0  0  0  0  0  0  0  0  0  0  0  0
    0.3974   -7.0711   27.5149 C   0  0  0  0  0  0  0  0  0  0  0  0
    2.5338   -7.6891   16.0102 C   0  0  0  0  0  0  0  0  0  0  0  0
    4.8690   -7.4380   26.4151 C   0  0  0  0  0  0  0  0  0  0  0  0
    2.3021   -5.6726   26.0378 C   0  0  0  0  0  0  0  0  0  0  0  0
    7.0880   -4.6163   27.0010 C   0  0  0  0  0  0  0  0  0  0  0  0
    8.3117   -4.3698   27.4436 C   0  0  0  0  0  0  0  0  0  0  0  0
    1.1339   -5.0515   26.3541 C   0  0  0  0  0  0  0  0  0  0  0  0
    4.8080   -8.0362   16.7101 C   0  0  0  0  0  0  0  0  0  0  0  0
   -1.2173   -3.9294   26.9717 O   0  0  0  0  0  0  0  0  0  0  0  0
   -1.0025   -5.0942   27.4586 C   0  0  0  0  0  0  0  0  0  0  0  0
    2.2474   -8.9123   16.6273 C   0  0  0  0  0  0  0  0  0  0  0  0
    4.4957   -9.2636   17.3041 C   0  0  0  0  0  0  0  0  0  0  0  0
   -1.8070   -5.6086   28.1920 O   0  0  0  0  0  0  0  0  0  0  0  0
   10.4296   -5.1799   28.3140 C   0  0  0  0  0  0  0  0  0  0  0  0
    6.6017   -5.9004   26.9187 C   0  0  0  0  0  0  0  0  0  0  0  0
    2.4761   -6.9940   26.4111 N   0  0  0  0  0  0  0  0  0  0  0  0
    9.1353   -5.4053   27.8239 C   0  0  0  0  0  0  0  0  0  0  0  0
    0.9922   -9.3232   16.5995 O   0  0  0  0  0  0  0  0  0  0  0  0
    1.5232   -7.6869   27.1182 C   0  0  0  0  0  0  0  0  0  0  0  0
    8.6878   -6.6715   27.7262 N   0  0  0  0  0  0  0  0  0  0  0  0
    6.9911   -8.2423   27.1808 C   0  0  0  0  0  0  0  0  0  0  0  0
    3.8436   -7.2758   16.0578 C   0  0  0  0  0  0  0  0  0  0  0  0
    3.1882   -9.7190   17.2566 C   0  0  0  0  0  0  0  0  0  0  0  0
    5.3488   -6.1737   26.5092 C   0  0  0  0  0  0  0  0  0  0  0  0
    7.4567   -6.9464   27.2858 C   0  0  0  0  0  0  0  0  0  0  0  0
    0.1921   -5.7592   27.1123 C   0  0  0  0  0  0  0  0  0  0  0  0
    3.5517   -7.7407   25.9711 C   0  0  0  0  0  0  0  0  0  0  0  0
  1  4  4  0
  1 22  4  0
  2 20  4  0
  2 27  4  0
  3 12  4  0
  3 23  4  0
  4 25  4  0
  4 28  1  0
  5  8  4  0
  5 17  4  0
  6  7  4  0
  6 16  4  0
  7 18  4  0
  8 27  4  0
  9 13  4  0
  9 23  4  0
 10 11  1  0
 11 14  2  0
 11 27  1  0
 12 19  1  0
 12 24  4  0
 13 24  4  0
 15 18  1  0
 16 25  4  0
 16 26  4  0
 17 20  4  0
 17 28  1  0
 18 21  4  0
 21 26  4  0
 22 26  4  0
M  END
$$$$

 Created by Python create_sdf_string function

 28 30  0  0  0  0  0  0  0  0999 V2000
    5.7174   -8.4529   26.7190 C   0  0  0  0  0  0  0  0  0  0  0  0
    0.3974   -7.0711   27.5149 C   0  0  0  0  0  0  0  0  0  0  0  0
    2.5338   -7.6891   16.0102 C   0  0  0  0  0  0  0  0  0  0  0  0
    4.8690   -7.4380   26.4151 C   0  0  0  0  0  0  0  0  0  0  0  0
    2.3021   -5.6726   26.0378 C   0  0  0  0  0  0  0  0  0  0  0  0
    7.0880   -4.6163   27.0010 C   0  0  0  0  0  0  0  0  0  0  0  0
    8.3117   -4.3698   27.4436 C   0  0  0  0  0  0  0  0  0  0  0  0
    1.1339   -5.0515   26.3541 C   0  0  0  0  0  0  0  0  0  0  0  0
    4.8080   -8.0362   16.7101 C   0  0  0  0  0  0  0  0  0  0  0  0
   -1.2173   -3.9294   26.9717 O   0  0  0  0  0  0  0  0  0  0  0  0
   -1.0025   -5.0942   27.4586 C   0  0  0  0  0  0  0  0  0  0  0  0
    2.2474   -8.9123   16.6273 C   0  0  0  0  0  0  0  0  0  0  0  0
    4.4957   -9.2636   17.3041 C   0  0  0  0  0  0  0  0  0  0  0  0
   -1.8070   -5.6086   28.1920 O   0  0  0  0  0  0  0  0  0  0  0  0
   10.4296   -5.1799   28.3140 C   0  0  0  0  0  0  0  0  0  0  0  0
    6.6017   -5.9004   26.9187 C   0  0  0  0  0  0  0  0  0  0  0  0
    2.4761   -6.9940   26.4111 N   0  0  0  0  0  0  0  0  0  0  0  0
    9.1353   -5.4053   27.8239 C   0  0  0  0  0  0  0  0  0  0  0  0
    0.9922   -9.3232   16.5995 O   0  0  0  0  0  0  0  0  0  0  0  0
    1.5232   -7.6869   27.1182 C   0  0  0  0  0  0  0  0  0  0  0  0
    8.6878   -6.6715   27.7262 N   0  0  0  0  0  0  0  0  0  0  0  0
    6.9911   -8.2423   27.1808 C   0  0  0  0  0  0  0  0  0  0  0  0
    3.8436   -7.2758   16.0578 C   0  0  0  0  0  0  0  0  0  0  0  0
    3.1882   -9.7190   17.2566 C   0  0  0  0  0  0  0  0  0  0  0  0
    5.3488   -6.1737   26.5092 C   0  0  0  0  0  0  0  0  0  0  0  0
    7.4567   -6.9464   27.2858 C   0  0  0  0  0  0  0  0  0  0  0  0
    0.1921   -5.7592   27.1123 C   0  0  0  0  0  0  0  0  0  0  0  0
    3.5517   -7.7407   25.9711 C   0  0  0  0  0  0  0  0  0  0  0  0
  1  4  4  0
  1 22  4  0
  2 20  4  0
  2 27  4  0
  3 12  4  0
  3 23  4  0
  4 25  4  0
  4 28  1  0
  5  8  4  0
  5 17  4  0
  6  7  4  0
  6 16  4  0
  7 18  4  0
  8 27  4  0
  9 13  4  0
  9 23  4  0
 10 11  1  0
 11 14  2  0
 11 27  1  0
 12 19  1  0
 12 24  4  0
 13 24  4  0
 15 18  1  0
 16 25  4  0
 16 26  4  0
 17 20  4  0
 17 28  1  0
 18 21  4  0
 21 26  4  0
 22 26  4  0
M  END
$$$$

 Created by Python create_sdf_string function

 28 30  0  0  0  0  0  0  0  0999 V2000
    5.7174   -8.4529   26.7190 C   0  0  0  0  0  0  0  0  0  0  0  0
    0.3974   -7.0711   27.5149 C   0  0  0  0  0  0  0  0  0  0  0  0
    2.5338   -7.6891   16.0102 C   0  0  0  0  0  0  0  0  0  0  0  0
    4.8690   -7.4380   26.4151 C   0  0  0  0  0  0  0  0  0  0  0  0
    2.3021   -5.6726   26.0378 C   0  0  0  0  0  0  0  0  0  0  0  0
    7.0880   -4.6163   27.0010 C   0  0  0  0  0  0  0  0  0  0  0  0
    8.3117   -4.3698   27.4436 C   0  0  0  0  0  0  0  0  0  0  0  0
    1.1339   -5.0515   26.3541 C   0  0  0  0  0  0  0  0  0  0  0  0
    4.8080   -8.0362   16.7101 C   0  0  0  0  0  0  0  0  0  0  0  0
   -1.2173   -3.9294   26.9717 O   0  0  0  0  0  0  0  0  0  0  0  0
   -1.0025   -5.0942   27.4586 C   0  0  0  0  0  0  0  0  0  0  0  0
    2.2474   -8.9123   16.6273 C   0  0  0  0  0  0  0  0  0  0  0  0
    4.4957   -9.2636   17.3041 C   0  0  0  0  0  0  0  0  0  0  0  0
   -1.8070   -5.6086   28.1920 O   0  0  0  0  0  0  0  0  0  0  0  0
   10.4296   -5.1799   28.3140 C   0  0  0  0  0  0  0  0  0  0  0  0
    6.6017   -5.9004   26.9187 C   0  0  0  0  0  0  0  0  0  0  0  0
    2.4761   -6.9940   26.4111 N   0  0  0  0  0  0  0  0  0  0  0  0
    9.1353   -5.4053   27.8239 C   0  0  0  0  0  0  0  0  0  0  0  0
    0.9922   -9.3232   16.5995 O   0  0  0  0  0  0  0  0  0  0  0  0
    1.5232   -7.6869   27.1182 C   0  0  0  0  0  0  0  0  0  0  0  0
    8.6878   -6.6715   27.7262 N   0  0  0  0  0  0  0  0  0  0  0  0
    6.9911   -8.2423   27.1808 C   0  0  0  0  0  0  0  0  0  0  0  0
    3.8436   -7.2758   16.0578 C   0  0  0  0  0  0  0  0  0  0  0  0
    3.1882   -9.7190   17.2566 C   0  0  0  0  0  0  0  0  0  0  0  0
    5.3488   -6.1737   26.5092 C   0  0  0  0  0  0  0  0  0  0  0  0
    7.4567   -6.9464   27.2858 C   0  0  0  0  0  0  0  0  0  0  0  0
    0.1921   -5.7592   27.1123 C   0  0  0  0  0  0  0  0  0  0  0  0
    3.5517   -7.7407   25.9711 C   0  0  0  0  0  0  0  0  0  0  0  0
  1  4  4  0
  1 22  4  0
  2 20  4  0
  2 27  4  0
  3 12  4  0
  3 23  4  0
  4 25  4  0
  4 28  1  0
  5  8  4  0
  5 17  4  0
  6  7  4  0
  6 16  4  0
  7 18  4  0
  8 27  4  0
  9 13  4  0
  9 23  4  0
 10 11  1  0
 11 14  2  0
 11 27  1  0
 12 19  1  0
 12 24  4  0
 13 24  4  0
 15 18  1  0
 16 25  4  0
 16 26  4  0
 17 20  4  0
 17 28  1  0
 18 21  4  0
 21 26  4  0
 22 26  4  0
M  END
$$$$

 Created by Python create_sdf_string function

 28 30  0  0  0  0  0  0  0  0999 V2000
    5.7174   -8.4529   26.7190 C   0  0  0  0  0  0  0  0  0  0  0  0
    0.3974   -7.0711   27.5149 C   0  0  0  0  0  0  0  0  0  0  0  0
    2.5338   -7.6891   16.0102 C   0  0  0  0  0  0  0  0  0  0  0  0
    4.8690   -7.4380   26.4151 C   0  0  0  0  0  0  0  0  0  0  0  0
    2.3021   -5.6726   26.0378 C   0  0  0  0  0  0  0  0  0  0  0  0
    7.0880   -4.6163   27.0010 C   0  0  0  0  0  0  0  0  0  0  0  0
    8.3117   -4.3698   27.4436 C   0  0  0  0  0  0  0  0  0  0  0  0
    1.1339   -5.0515   26.3541 C   0  0  0  0  0  0  0  0  0  0  0  0
    4.8080   -8.0362   16.7101 C   0  0  0  0  0  0  0  0  0  0  0  0
   -1.2173   -3.9294   26.9717 O   0  0  0  0  0  0  0  0  0  0  0  0
   -1.0025   -5.0942   27.4586 C   0  0  0  0  0  0  0  0  0  0  0  0
    2.2474   -8.9123   16.6273 C   0  0  0  0  0  0  0  0  0  0  0  0
    4.4957   -9.2636   17.3041 C   0  0  0  0  0  0  0  0  0  0  0  0
   -1.8070   -5.6086   28.1920 O   0  0  0  0  0  0  0  0  0  0  0  0
   10.4296   -5.1799   28.3140 C   0  0  0  0  0  0  0  0  0  0  0  0
    6.6017   -5.9004   26.9187 C   0  0  0  0  0  0  0  0  0  0  0  0
    2.4761   -6.9940   26.4111 N   0  0  0  0  0  0  0  0  0  0  0  0
    9.1353   -5.4053   27.8239 C   0  0  0  0  0  0  0  0  0  0  0  0
    0.9922   -9.3232   16.5995 O   0  0  0  0  0  0  0  0  0  0  0  0
    1.5232   -7.6869   27.1182 C   0  0  0  0  0  0  0  0  0  0  0  0
    8.6878   -6.6715   27.7262 N   0  0  0  0  0  0  0  0  0  0  0  0
    6.9911   -8.2423   27.1808 C   0  0  0  0  0  0  0  0  0  0  0  0
    3.8436   -7.2758   16.0578 C   0  0  0  0  0  0  0  0  0  0  0  0
    3.1882   -9.7190   17.2566 C   0  0  0  0  0  0  0  0  0  0  0  0
    5.3488   -6.1737   26.5092 C   0  0  0  0  0  0  0  0  0  0  0  0
    7.4567   -6.9464   27.2858 C   0  0  0  0  0  0  0  0  0  0  0  0
    0.1921   -5.7592   27.1123 C   0  0  0  0  0  0  0  0  0  0  0  0
    3.5517   -7.7407   25.9711 C   0  0  0  0  0  0  0  0  0  0  0  0
  1  4  4  0
  1 22  4  0
  2 20  4  0
  2 27  4  0
  3 12  4  0
  3 23  4  0
  4 25  4  0
  4 28  1  0
  5  8  4  0
  5 17  4  0
  6  7  4  0
  6 16  4  0
  7 18  4  0
  8 27  4  0
  9 13  4  0
  9 23  4  0
 10 11  1  0
 11 14  2  0
 11 27  1  0
 12 19  1  0
 12 24  4  0
 13 24  4  0
 15 18  1  0
 16 25  4  0
 16 26  4  0
 17 20  4  0
 17 28  1  0
 18 21  4  0
 21 26  4  0
 22 26  4  0
M  END
$$$$

 Created by Python create_sdf_string function

 28 30  0  0  0  0  0  0  0  0999 V2000
    5.7174   -8.4529   26.7190 C   0  0  0  0  0  0  0  0  0  0  0  0
    0.3974   -7.0711   27.5149 C   0  0  0  0  0  0  0  0  0  0  0  0
    2.5338   -7.6891   16.0102 C   0  0  0  0  0  0  0  0  0  0  0  0
    4.8690   -7.4380   26.4151 C   0  0  0  0  0  0  0  0  0  0  0  0
    2.3021   -5.6726   26.0378 C   0  0  0  0  0  0  0  0  0  0  0  0
    7.0880   -4.6163   27.0010 C   0  0  0  0  0  0  0  0  0  0  0  0
    8.3117   -4.3698   27.4436 C   0  0  0  0  0  0  0  0  0  0  0  0
    1.1339   -5.0515   26.3541 C   0  0  0  0  0  0  0  0  0  0  0  0
    4.8080   -8.0362   16.7101 C   0  0  0  0  0  0  0  0  0  0  0  0
   -1.2173   -3.9294   26.9717 O   0  0  0  0  0  0  0  0  0  0  0  0
   -1.0025   -5.0942   27.4586 C   0  0  0  0  0  0  0  0  0  0  0  0
    2.2474   -8.9123   16.6273 C   0  0  0  0  0  0  0  0  0  0  0  0
    4.4957   -9.2636   17.3041 C   0  0  0  0  0  0  0  0  0  0  0  0
   -1.8070   -5.6086   28.1920 O   0  0  0  0  0  0  0  0  0  0  0  0
   10.4296   -5.1799   28.3140 C   0  0  0  0  0  0  0  0  0  0  0  0
    6.6017   -5.9004   26.9187 C   0  0  0  0  0  0  0  0  0  0  0  0
    2.4761   -6.9940   26.4111 N   0  0  0  0  0  0  0  0  0  0  0  0
    9.1353   -5.4053   27.8239 C   0  0  0  0  0  0  0  0  0  0  0  0
    0.9922   -9.3232   16.5995 O   0  0  0  0  0  0  0  0  0  0  0  0
    1.5232   -7.6869   27.1182 C   0  0  0  0  0  0  0  0  0  0  0  0
    8.6878   -6.6715   27.7262 N   0  0  0  0  0  0  0  0  0  0  0  0
    6.9911   -8.2423   27.1808 C   0  0  0  0  0  0  0  0  0  0  0  0
    3.8436   -7.2758   16.0578 C   0  0  0  0  0  0  0  0  0  0  0  0
    3.1882   -9.7190   17.2566 C   0  0  0  0  0  0  0  0  0  0  0  0
    5.3488   -6.1737   26.5092 C   0  0  0  0  0  0  0  0  0  0  0  0
    7.4567   -6.9464   27.2858 C   0  0  0  0  0  0  0  0  0  0  0  0
    0.1921   -5.7592   27.1123 C   0  0  0  0  0  0  0  0  0  0  0  0
    3.5517   -7.7407   25.9711 C   0  0  0  0  0  0  0  0  0  0  0  0
  1  4  4  0
  1 22  4  0
  2 20  4  0
  2 27  4  0
  3 12  4  0
  3 23  4  0
  4 25  4  0
  4 28  1  0
  5  8  4  0
  5 17  4  0
  6  7  4  0
  6 16  4  0
  7 18  4  0
  8 27  4  0
  9 13  4  0
  9 23  4  0
 10 11  1  0
 11 14  2  0
 11 27  1  0
 12 19  1  0
 12 24  4  0
 13 24  4  0
 15 18  1  0
 16 25  4  0
 16 26  4  0
 17 20  4  0
 17 28  1  0
 18 21  4  0
 21 26  4  0
 22 26  4  0
M  END
$$$$

 Created by Python create_sdf_string function

 28 30  0  0  0  0  0  0  0  0999 V2000
    5.7174   -8.4529   26.7190 C   0  0  0  0  0  0  0  0  0  0  0  0
    0.3974   -7.0711   27.5149 C   0  0  0  0  0  0  0  0  0  0  0  0
    2.5338   -7.6891   16.0102 C   0  0  0  0  0  0  0  0  0  0  0  0
    4.8690   -7.4380   26.4151 C   0  0  0  0  0  0  0  0  0  0  0  0
    2.3021   -5.6726   26.0378 C   0  0  0  0  0  0  0  0  0  0  0  0
    7.0880   -4.6163   27.0010 C   0  0  0  0  0  0  0  0  0  0  0  0
    8.3117   -4.3698   27.4436 C   0  0  0  0  0  0  0  0  0  0  0  0
    1.1339   -5.0515   26.3541 C   0  0  0  0  0  0  0  0  0  0  0  0
    4.8080   -8.0362   16.7101 C   0  0  0  0  0  0  0  0  0  0  0  0
   -1.2173   -3.9294   26.9717 O   0  0  0  0  0  0  0  0  0  0  0  0
   -1.0025   -5.0942   27.4586 C   0  0  0  0  0  0  0  0  0  0  0  0
    2.2474   -8.9123   16.6273 C   0  0  0  0  0  0  0  0  0  0  0  0
    4.4957   -9.2636   17.3041 C   0  0  0  0  0  0  0  0  0  0  0  0
   -1.8070   -5.6086   28.1920 O   0  0  0  0  0  0  0  0  0  0  0  0
   10.4296   -5.1799   28.3140 C   0  0  0  0  0  0  0  0  0  0  0  0
    6.6017   -5.9004   26.9187 C   0  0  0  0  0  0  0  0  0  0  0  0
    2.4761   -6.9940   26.4111 N   0  0  0  0  0  0  0  0  0  0  0  0
    9.1353   -5.4053   27.8239 C   0  0  0  0  0  0  0  0  0  0  0  0
    0.9922   -9.3232   16.5995 O   0  0  0  0  0  0  0  0  0  0  0  0
    1.5232   -7.6869   27.1182 C   0  0  0  0  0  0  0  0  0  0  0  0
    8.6878   -6.6715   27.7262 N   0  0  0  0  0  0  0  0  0  0  0  0
    6.9911   -8.2423   27.1808 C   0  0  0  0  0  0  0  0  0  0  0  0
    3.8436   -7.2758   16.0578 C   0  0  0  0  0  0  0  0  0  0  0  0
    3.1882   -9.7190   17.2566 C   0  0  0  0  0  0  0  0  0  0  0  0
    5.3488   -6.1737   26.5092 C   0  0  0  0  0  0  0  0  0  0  0  0
    7.4567   -6.9464   27.2858 C   0  0  0  0  0  0  0  0  0  0  0  0
    0.1921   -5.7592   27.1123 C   0  0  0  0  0  0  0  0  0  0  0  0
    3.5517   -7.7407   25.9711 C   0  0  0  0  0  0  0  0  0  0  0  0
  1  4  4  0
  1 22  4  0
  2 20  4  0
  2 27  4  0
  3 12  4  0
  3 23  4  0
  4 25  4  0
  4 28  1  0
  5  8  4  0
  5 17  4  0
  6  7  4  0
  6 16  4  0
  7 18  4  0
  8 27  4  0
  9 13  4  0
  9 23  4  0
 10 11  1  0
 11 14  2  0
 11 27  1  0
 12 19  1  0
 12 24  4  0
 13 24  4  0
 15 18  1  0
 16 25  4  0
 16 26  4  0
 17 20  4  0
 17 28  1  0
 18 21  4  0
 21 26  4  0
 22 26  4  0
M  END
$$$$

 Created by Python create_sdf_string function

 28 30  0  0  0  0  0  0  0  0999 V2000
    5.7174   -8.4529   26.7190 C   0  0  0  0  0  0  0  0  0  0  0  0
    0.3974   -7.0711   27.5149 C   0  0  0  0  0  0  0  0  0  0  0  0
    2.5338   -7.6891   16.0102 C   0  0  0  0  0  0  0  0  0  0  0  0
    4.8690   -7.4380   26.4151 C   0  0  0  0  0  0  0  0  0  0  0  0
    2.3021   -5.6726   26.0378 C   0  0  0  0  0  0  0  0  0  0  0  0
    7.0880   -4.6163   27.0010 C   0  0  0  0  0  0  0  0  0  0  0  0
    8.3117   -4.3698   27.4436 C   0  0  0  0  0  0  0  0  0  0  0  0
    1.1339   -5.0515   26.3541 C   0  0  0  0  0  0  0  0  0  0  0  0
    4.8080   -8.0362   16.7101 C   0  0  0  0  0  0  0  0  0  0  0  0
   -1.2173   -3.9294   26.9717 O   0  0  0  0  0  0  0  0  0  0  0  0
   -1.0025   -5.0942   27.4586 C   0  0  0  0  0  0  0  0  0  0  0  0
    2.2474   -8.9123   16.6273 C   0  0  0  0  0  0  0  0  0  0  0  0
    4.4957   -9.2636   17.3041 C   0  0  0  0  0  0  0  0  0  0  0  0
   -1.8070   -5.6086   28.1920 O   0  0  0  0  0  0  0  0  0  0  0  0
   10.4296   -5.1799   28.3140 C   0  0  0  0  0  0  0  0  0  0  0  0
    6.6017   -5.9004   26.9187 C   0  0  0  0  0  0  0  0  0  0  0  0
    2.4761   -6.9940   26.4111 N   0  0  0  0  0  0  0  0  0  0  0  0
    9.1353   -5.4053   27.8239 C   0  0  0  0  0  0  0  0  0  0  0  0
    0.9922   -9.3232   16.5995 O   0  0  0  0  0  0  0  0  0  0  0  0
    1.5232   -7.6869   27.1182 C   0  0  0  0  0  0  0  0  0  0  0  0
    8.6878   -6.6715   27.7262 N   0  0  0  0  0  0  0  0  0  0  0  0
    6.9911   -8.2423   27.1808 C   0  0  0  0  0  0  0  0  0  0  0  0
    3.8436   -7.2758   16.0578 C   0  0  0  0  0  0  0  0  0  0  0  0
    3.1882   -9.7190   17.2566 C   0  0  0  0  0  0  0  0  0  0  0  0
    5.3488   -6.1737   26.5092 C   0  0  0  0  0  0  0  0  0  0  0  0
    7.4567   -6.9464   27.2858 C   0  0  0  0  0  0  0  0  0  0  0  0
    0.1921   -5.7592   27.1123 C   0  0  0  0  0  0  0  0  0  0  0  0
    3.5517   -7.7407   25.9711 C   0  0  0  0  0  0  0  0  0  0  0  0
  1  4  4  0
  1 22  4  0
  2 20  4  0
  2 27  4  0
  3 12  4  0
  3 23  4  0
  4 25  4  0
  4 28  1  0
  5  8  4  0
  5 17  4  0
  6  7  4  0
  6 16  4  0
  7 18  4  0
  8 27  4  0
  9 13  4  0
  9 23  4  0
 10 11  1  0
 11 14  2  0
 11 27  1  0
 12 19  1  0
 12 24  4  0
 13 24  4  0
 15 18  1  0
 16 25  4  0
 16 26  4  0
 17 20  4  0
 17 28  1  0
 18 21  4  0
 21 26  4  0
 22 26  4  0
M  END
$$$$

 Created by Python create_sdf_string function

 28 30  0  0  0  0  0  0  0  0999 V2000
    5.7174   -8.4529   26.7190 C   0  0  0  0  0  0  0  0  0  0  0  0
    0.3974   -7.0711   27.5149 C   0  0  0  0  0  0  0  0  0  0  0  0
    2.5338   -7.6891   16.0102 C   0  0  0  0  0  0  0  0  0  0  0  0
    4.8690   -7.4380   26.4151 C   0  0  0  0  0  0  0  0  0  0  0  0
    2.3021   -5.6726   26.0378 C   0  0  0  0  0  0  0  0  0  0  0  0
    7.0880   -4.6163   27.0010 C   0  0  0  0  0  0  0  0  0  0  0  0
    8.3117   -4.3698   27.4436 C   0  0  0  0  0  0  0  0  0  0  0  0
    1.1339   -5.0515   26.3541 C   0  0  0  0  0  0  0  0  0  0  0  0
    4.8080   -8.0362   16.7101 C   0  0  0  0  0  0  0  0  0  0  0  0
   -1.2173   -3.9294   26.9717 O   0  0  0  0  0  0  0  0  0  0  0  0
   -1.0025   -5.0942   27.4586 C   0  0  0  0  0  0  0  0  0  0  0  0
    2.2474   -8.9123   16.6273 C   0  0  0  0  0  0  0  0  0  0  0  0
    4.4957   -9.2636   17.3041 C   0  0  0  0  0  0  0  0  0  0  0  0
   -1.8070   -5.6086   28.1920 O   0  0  0  0  0  0  0  0  0  0  0  0
   10.4296   -5.1799   28.3140 C   0  0  0  0  0  0  0  0  0  0  0  0
    6.6017   -5.9004   26.9187 C   0  0  0  0  0  0  0  0  0  0  0  0
    2.4761   -6.9940   26.4111 N   0  0  0  0  0  0  0  0  0  0  0  0
    9.1353   -5.4053   27.8239 C   0  0  0  0  0  0  0  0  0  0  0  0
    0.9922   -9.3232   16.5995 O   0  0  0  0  0  0  0  0  0  0  0  0
    1.5232   -7.6869   27.1182 C   0  0  0  0  0  0  0  0  0  0  0  0
    8.6878   -6.6715   27.7262 N   0  0  0  0  0  0  0  0  0  0  0  0
    6.9911   -8.2423   27.1808 C   0  0  0  0  0  0  0  0  0  0  0  0
    3.8436   -7.2758   16.0578 C   0  0  0  0  0  0  0  0  0  0  0  0
    3.1882   -9.7190   17.2566 C   0  0  0  0  0  0  0  0  0  0  0  0
    5.3488   -6.1737   26.5092 C   0  0  0  0  0  0  0  0  0  0  0  0
    7.4567   -6.9464   27.2858 C   0  0  0  0  0  0  0  0  0  0  0  0
    0.1921   -5.7592   27.1123 C   0  0  0  0  0  0  0  0  0  0  0  0
    3.5517   -7.7407   25.9711 C   0  0  0  0  0  0  0  0  0  0  0  0
  1  4  4  0
  1 22  4  0
  2 20  4  0
  2 27  4  0
  3 12  4  0
  3 23  4  0
  4 25  4  0
  4 28  1  0
  5  8  4  0
  5 17  4  0
  6  7  4  0
  6 16  4  0
  7 18  4  0
  8 27  4  0
  9 13  4  0
  9 23  4  0
 10 11  1  0
 11 14  2  0
 11 27  1  0
 12 19  1  0
 12 24  4  0
 13 24  4  0
 15 18  1  0
 16 25  4  0
 16 26  4  0
 17 20  4  0
 17 28  1  0
 18 21  4  0
 21 26  4  0
 22 26  4  0
M  END
$$$$

 Created by Python create_sdf_string function

 28 30  0  0  0  0  0  0  0  0999 V2000
    5.7174   -8.4529   26.7190 C   0  0  0  0  0  0  0  0  0  0  0  0
    0.3974   -7.0711   27.5149 C   0  0  0  0  0  0  0  0  0  0  0  0
    2.5338   -7.6891   16.0102 C   0  0  0  0  0  0  0  0  0  0  0  0
    4.8690   -7.4380   26.4151 C   0  0  0  0  0  0  0  0  0  0  0  0
    2.3021   -5.6726   26.0378 C   0  0  0  0  0  0  0  0  0  0  0  0
    7.0880   -4.6163   27.0010 C   0  0  0  0  0  0  0  0  0  0  0  0
    8.3117   -4.3698   27.4436 C   0  0  0  0  0  0  0  0  0  0  0  0
    1.1339   -5.0515   26.3541 C   0  0  0  0  0  0  0  0  0  0  0  0
    4.8080   -8.0362   16.7101 C   0  0  0  0  0  0  0  0  0  0  0  0
   -1.2173   -3.9294   26.9717 O   0  0  0  0  0  0  0  0  0  0  0  0
   -1.0025   -5.0942   27.4586 C   0  0  0  0  0  0  0  0  0  0  0  0
    2.2474   -8.9123   16.6273 C   0  0  0  0  0  0  0  0  0  0  0  0
    4.4957   -9.2636   17.3041 C   0  0  0  0  0  0  0  0  0  0  0  0
   -1.8070   -5.6086   28.1920 O   0  0  0  0  0  0  0  0  0  0  0  0
   10.4296   -5.1799   28.3140 C   0  0  0  0  0  0  0  0  0  0  0  0
    6.6017   -5.9004   26.9187 C   0  0  0  0  0  0  0  0  0  0  0  0
    2.4761   -6.9940   26.4111 N   0  0  0  0  0  0  0  0  0  0  0  0
    9.1353   -5.4053   27.8239 C   0  0  0  0  0  0  0  0  0  0  0  0
    0.9922   -9.3232   16.5995 O   0  0  0  0  0  0  0  0  0  0  0  0
    1.5232   -7.6869   27.1182 C   0  0  0  0  0  0  0  0  0  0  0  0
    8.6878   -6.6715   27.7262 N   0  0  0  0  0  0  0  0  0  0  0  0
    6.9911   -8.2423   27.1808 C   0  0  0  0  0  0  0  0  0  0  0  0
    3.8436   -7.2758   16.0578 C   0  0  0  0  0  0  0  0  0  0  0  0
    3.1882   -9.7190   17.2566 C   0  0  0  0  0  0  0  0  0  0  0  0
    5.3488   -6.1737   26.5092 C   0  0  0  0  0  0  0  0  0  0  0  0
    7.4567   -6.9464   27.2858 C   0  0  0  0  0  0  0  0  0  0  0  0
    0.1921   -5.7592   27.1123 C   0  0  0  0  0  0  0  0  0  0  0  0
    3.5517   -7.7407   25.9711 C   0  0  0  0  0  0  0  0  0  0  0  0
  1  4  4  0
  1 22  4  0
  2 20  4  0
  2 27  4  0
  3 12  4  0
  3 23  4  0
  4 25  4  0
  4 28  1  0
  5  8  4  0
  5 17  4  0
  6  7  4  0
  6 16  4  0
  7 18  4  0
  8 27  4  0
  9 13  4  0
  9 23  4  0
 10 11  1  0
 11 14  2  0
 11 27  1  0
 12 19  1  0
 12 24  4  0
 13 24  4  0
 15 18  1  0
 16 25  4  0
 16 26  4  0
 17 20  4  0
 17 28  1  0
 18 21  4  0
 21 26  4  0
 22 26  4  0
M  END
$$$$

 Created by Python create_sdf_string function

 28 30  0  0  0  0  0  0  0  0999 V2000
    5.7174   -8.4529   26.7190 C   0  0  0  0  0  0  0  0  0  0  0  0
    0.3974   -7.0711   27.5149 C   0  0  0  0  0  0  0  0  0  0  0  0
    2.5338   -7.6891   16.0102 C   0  0  0  0  0  0  0  0  0  0  0  0
    4.8690   -7.4380   26.4151 C   0  0  0  0  0  0  0  0  0  0  0  0
    2.3021   -5.6726   26.0378 C   0  0  0  0  0  0  0  0  0  0  0  0
    7.0880   -4.6163   27.0010 C   0  0  0  0  0  0  0  0  0  0  0  0
    8.3117   -4.3698   27.4436 C   0  0  0  0  0  0  0  0  0  0  0  0
    1.1339   -5.0515   26.3541 C   0  0  0  0  0  0  0  0  0  0  0  0
    4.8080   -8.0362   16.7101 C   0  0  0  0  0  0  0  0  0  0  0  0
   -1.2173   -3.9294   26.9717 O   0  0  0  0  0  0  0  0  0  0  0  0
   -1.0025   -5.0942   27.4586 C   0  0  0  0  0  0  0  0  0  0  0  0
    2.2474   -8.9123   16.6273 C   0  0  0  0  0  0  0  0  0  0  0  0
    4.4957   -9.2636   17.3041 C   0  0  0  0  0  0  0  0  0  0  0  0
   -1.8070   -5.6086   28.1920 O   0  0  0  0  0  0  0  0  0  0  0  0
   10.4296   -5.1799   28.3140 C   0  0  0  0  0  0  0  0  0  0  0  0
    6.6017   -5.9004   26.9187 C   0  0  0  0  0  0  0  0  0  0  0  0
    2.4761   -6.9940   26.4111 N   0  0  0  0  0  0  0  0  0  0  0  0
    9.1353   -5.4053   27.8239 C   0  0  0  0  0  0  0  0  0  0  0  0
    0.9922   -9.3232   16.5995 O   0  0  0  0  0  0  0  0  0  0  0  0
    1.5232   -7.6869   27.1182 C   0  0  0  0  0  0  0  0  0  0  0  0
    8.6878   -6.6715   27.7262 N   0  0  0  0  0  0  0  0  0  0  0  0
    6.9911   -8.2423   27.1808 C   0  0  0  0  0  0  0  0  0  0  0  0
    3.8436   -7.2758   16.0578 C   0  0  0  0  0  0  0  0  0  0  0  0
    3.1882   -9.7190   17.2566 C   0  0  0  0  0  0  0  0  0  0  0  0
    5.3488   -6.1737   26.5092 C   0  0  0  0  0  0  0  0  0  0  0  0
    7.4567   -6.9464   27.2858 C   0  0  0  0  0  0  0  0  0  0  0  0
    0.1921   -5.7592   27.1123 C   0  0  0  0  0  0  0  0  0  0  0  0
    3.5517   -7.7407   25.9711 C   0  0  0  0  0  0  0  0  0  0  0  0
  1  4  4  0
  1 22  4  0
  2 20  4  0
  2 27  4  0
  3 12  4  0
  3 23  4  0
  4 25  4  0
  4 28  1  0
  5  8  4  0
  5 17  4  0
  6  7  4  0
  6 16  4  0
  7 18  4  0
  8 27  4  0
  9 13  4  0
  9 23  4  0
 10 11  1  0
 11 14  2  0
 11 27  1  0
 12 19  1  0
 12 24  4  0
 13 24  4  0
 15 18  1  0
 16 25  4  0
 16 26  4  0
 17 20  4  0
 17 28  1  0
 18 21  4  0
 21 26  4  0
 22 26  4  0
M  END
$$$$

 Created by Python create_sdf_string function

 28 30  0  0  0  0  0  0  0  0999 V2000
    5.7174   -8.4529   26.7190 C   0  0  0  0  0  0  0  0  0  0  0  0
    0.3974   -7.0711   27.5149 C   0  0  0  0  0  0  0  0  0  0  0  0
    2.5338   -7.6891   16.0102 C   0  0  0  0  0  0  0  0  0  0  0  0
    4.8690   -7.4380   26.4151 C   0  0  0  0  0  0  0  0  0  0  0  0
    2.3021   -5.6726   26.0378 C   0  0  0  0  0  0  0  0  0  0  0  0
    7.0880   -4.6163   27.0010 C   0  0  0  0  0  0  0  0  0  0  0  0
    8.3117   -4.3698   27.4436 C   0  0  0  0  0  0  0  0  0  0  0  0
    1.1339   -5.0515   26.3541 C   0  0  0  0  0  0  0  0  0  0  0  0
    4.8080   -8.0362   16.7101 C   0  0  0  0  0  0  0  0  0  0  0  0
   -1.2173   -3.9294   26.9717 O   0  0  0  0  0  0  0  0  0  0  0  0
   -1.0025   -5.0942   27.4586 C   0  0  0  0  0  0  0  0  0  0  0  0
    2.2474   -8.9123   16.6273 C   0  0  0  0  0  0  0  0  0  0  0  0
    4.4957   -9.2636   17.3041 C   0  0  0  0  0  0  0  0  0  0  0  0
   -1.8070   -5.6086   28.1920 O   0  0  0  0  0  0  0  0  0  0  0  0
   10.4296   -5.1799   28.3140 C   0  0  0  0  0  0  0  0  0  0  0  0
    6.6017   -5.9004   26.9187 C   0  0  0  0  0  0  0  0  0  0  0  0
    2.4761   -6.9940   26.4111 N   0  0  0  0  0  0  0  0  0  0  0  0
    9.1353   -5.4053   27.8239 C   0  0  0  0  0  0  0  0  0  0  0  0
    0.9922   -9.3232   16.5995 O   0  0  0  0  0  0  0  0  0  0  0  0
    1.5232   -7.6869   27.1182 C   0  0  0  0  0  0  0  0  0  0  0  0
    8.6878   -6.6715   27.7262 N   0  0  0  0  0  0  0  0  0  0  0  0
    6.9911   -8.2423   27.1808 C   0  0  0  0  0  0  0  0  0  0  0  0
    3.8436   -7.2758   16.0578 C   0  0  0  0  0  0  0  0  0  0  0  0
    3.1882   -9.7190   17.2566 C   0  0  0  0  0  0  0  0  0  0  0  0
    5.3488   -6.1737   26.5092 C   0  0  0  0  0  0  0  0  0  0  0  0
    7.4567   -6.9464   27.2858 C   0  0  0  0  0  0  0  0  0  0  0  0
    0.1921   -5.7592   27.1123 C   0  0  0  0  0  0  0  0  0  0  0  0
    3.5517   -7.7407   25.9711 C   0  0  0  0  0  0  0  0  0  0  0  0
  1  4  4  0
  1 22  4  0
  2 20  4  0
  2 27  4  0
  3 12  4  0
  3 23  4  0
  4 25  4  0
  4 28  1  0
  5  8  4  0
  5 17  4  0
  6  7  4  0
  6 16  4  0
  7 18  4  0
  8 27  4  0
  9 13  4  0
  9 23  4  0
 10 11  1  0
 11 14  2  0
 11 27  1  0
 12 19  1  0
 12 24  4  0
 13 24  4  0
 15 18  1  0
 16 25  4  0
 16 26  4  0
 17 20  4  0
 17 28  1  0
 18 21  4  0
 21 26  4  0
 22 26  4  0
M  END
$$$$

 Created by Python create_sdf_string function

 28 30  0  0  0  0  0  0  0  0999 V2000
    5.7174   -8.4529   26.7190 C   0  0  0  0  0  0  0  0  0  0  0  0
    0.3974   -7.0711   27.5149 C   0  0  0  0  0  0  0  0  0  0  0  0
    2.5338   -7.6891   16.0102 C   0  0  0  0  0  0  0  0  0  0  0  0
    4.8690   -7.4380   26.4151 C   0  0  0  0  0  0  0  0  0  0  0  0
    2.3021   -5.6726   26.0378 C   0  0  0  0  0  0  0  0  0  0  0  0
    7.0880   -4.6163   27.0010 C   0  0  0  0  0  0  0  0  0  0  0  0
    8.3117   -4.3698   27.4436 C   0  0  0  0  0  0  0  0  0  0  0  0
    1.1339   -5.0515   26.3541 C   0  0  0  0  0  0  0  0  0  0  0  0
    4.8080   -8.0362   16.7101 C   0  0  0  0  0  0  0  0  0  0  0  0
   -1.2173   -3.9294   26.9717 O   0  0  0  0  0  0  0  0  0  0  0  0
   -1.0025   -5.0942   27.4586 C   0  0  0  0  0  0  0  0  0  0  0  0
    2.2474   -8.9123   16.6273 C   0  0  0  0  0  0  0  0  0  0  0  0
    4.4957   -9.2636   17.3041 C   0  0  0  0  0  0  0  0  0  0  0  0
   -1.8070   -5.6086   28.1920 O   0  0  0  0  0  0  0  0  0  0  0  0
   10.4296   -5.1799   28.3140 C   0  0  0  0  0  0  0  0  0  0  0  0
    6.6017   -5.9004   26.9187 C   0  0  0  0  0  0  0  0  0  0  0  0
    2.4761   -6.9940   26.4111 N   0  0  0  0  0  0  0  0  0  0  0  0
    9.1353   -5.4053   27.8239 C   0  0  0  0  0  0  0  0  0  0  0  0
    0.9922   -9.3232   16.5995 O   0  0  0  0  0  0  0  0  0  0  0  0
    1.5232   -7.6869   27.1182 C   0  0  0  0  0  0  0  0  0  0  0  0
    8.6878   -6.6715   27.7262 N   0  0  0  0  0  0  0  0  0  0  0  0
    6.9911   -8.2423   27.1808 C   0  0  0  0  0  0  0  0  0  0  0  0
    3.8436   -7.2758   16.0578 C   0  0  0  0  0  0  0  0  0  0  0  0
    3.1882   -9.7190   17.2566 C   0  0  0  0  0  0  0  0  0  0  0  0
    5.3488   -6.1737   26.5092 C   0  0  0  0  0  0  0  0  0  0  0  0
    7.4567   -6.9464   27.2858 C   0  0  0  0  0  0  0  0  0  0  0  0
    0.1921   -5.7592   27.1123 C   0  0  0  0  0  0  0  0  0  0  0  0
    3.5517   -7.7407   25.9711 C   0  0  0  0  0  0  0  0  0  0  0  0
  1  4  4  0
  1 22  4  0
  2 20  4  0
  2 27  4  0
  3 12  4  0
  3 23  4  0
  4 25  4  0
  4 28  1  0
  5  8  4  0
  5 17  4  0
  6  7  4  0
  6 16  4  0
  7 18  4  0
  8 27  4  0
  9 13  4  0
  9 23  4  0
 10 11  1  0
 11 14  2  0
 11 27  1  0
 12 19  1  0
 12 24  4  0
 13 24  4  0
 15 18  1  0
 16 25  4  0
 16 26  4  0
 17 20  4  0
 17 28  1  0
 18 21  4  0
 21 26  4  0
 22 26  4  0
M  END
$$$$

 Created by Python create_sdf_string function

 28 30  0  0  0  0  0  0  0  0999 V2000
    5.7174   -8.4529   26.7190 C   0  0  0  0  0  0  0  0  0  0  0  0
    0.3974   -7.0711   27.5149 C   0  0  0  0  0  0  0  0  0  0  0  0
    2.5338   -7.6891   16.0102 C   0  0  0  0  0  0  0  0  0  0  0  0
    4.8690   -7.4380   26.4151 C   0  0  0  0  0  0  0  0  0  0  0  0
    2.3021   -5.6726   26.0378 C   0  0  0  0  0  0  0  0  0  0  0  0
    7.0880   -4.6163   27.0010 C   0  0  0  0  0  0  0  0  0  0  0  0
    8.3117   -4.3698   27.4436 C   0  0  0  0  0  0  0  0  0  0  0  0
    1.1339   -5.0515   26.3541 C   0  0  0  0  0  0  0  0  0  0  0  0
    4.8080   -8.0362   16.7101 C   0  0  0  0  0  0  0  0  0  0  0  0
   -1.2173   -3.9294   26.9717 O   0  0  0  0  0  0  0  0  0  0  0  0
   -1.0025   -5.0942   27.4586 C   0  0  0  0  0  0  0  0  0  0  0  0
    2.2474   -8.9123   16.6273 C   0  0  0  0  0  0  0  0  0  0  0  0
    4.4957   -9.2636   17.3041 C   0  0  0  0  0  0  0  0  0  0  0  0
   -1.8070   -5.6086   28.1920 O   0  0  0  0  0  0  0  0  0  0  0  0
   10.4296   -5.1799   28.3140 C   0  0  0  0  0  0  0  0  0  0  0  0
    6.6017   -5.9004   26.9187 C   0  0  0  0  0  0  0  0  0  0  0  0
    2.4761   -6.9940   26.4111 N   0  0  0  0  0  0  0  0  0  0  0  0
    9.1353   -5.4053   27.8239 C   0  0  0  0  0  0  0  0  0  0  0  0
    0.9922   -9.3232   16.5995 O   0  0  0  0  0  0  0  0  0  0  0  0
    1.5232   -7.6869   27.1182 C   0  0  0  0  0  0  0  0  0  0  0  0
    8.6878   -6.6715   27.7262 N   0  0  0  0  0  0  0  0  0  0  0  0
    6.9911   -8.2423   27.1808 C   0  0  0  0  0  0  0  0  0  0  0  0
    3.8436   -7.2758   16.0578 C   0  0  0  0  0  0  0  0  0  0  0  0
    3.1882   -9.7190   17.2566 C   0  0  0  0  0  0  0  0  0  0  0  0
    5.3488   -6.1737   26.5092 C   0  0  0  0  0  0  0  0  0  0  0  0
    7.4567   -6.9464   27.2858 C   0  0  0  0  0  0  0  0  0  0  0  0
    0.1921   -5.7592   27.1123 C   0  0  0  0  0  0  0  0  0  0  0  0
    3.5517   -7.7407   25.9711 C   0  0  0  0  0  0  0  0  0  0  0  0
  1  4  4  0
  1 22  4  0
  2 20  4  0
  2 27  4  0
  3 12  4  0
  3 23  4  0
  4 25  4  0
  4 28  1  0
  5  8  4  0
  5 17  4  0
  6  7  4  0
  6 16  4  0
  7 18  4  0
  8 27  4  0
  9 13  4  0
  9 23  4  0
 10 11  1  0
 11 14  2  0
 11 27  1  0
 12 19  1  0
 12 24  4  0
 13 24  4  0
 15 18  1  0
 16 25  4  0
 16 26  4  0
 17 20  4  0
 17 28  1  0
 18 21  4  0
 21 26  4  0
 22 26  4  0
M  END
$$$$

 Created by Python create_sdf_string function

 28 30  0  0  0  0  0  0  0  0999 V2000
    5.7174   -8.4529   26.7190 C   0  0  0  0  0  0  0  0  0  0  0  0
    0.3974   -7.0711   27.5149 C   0  0  0  0  0  0  0  0  0  0  0  0
    2.5338   -7.6891   16.0102 C   0  0  0  0  0  0  0  0  0  0  0  0
    4.8690   -7.4380   26.4151 C   0  0  0  0  0  0  0  0  0  0  0  0
    2.3021   -5.6726   26.0378 C   0  0  0  0  0  0  0  0  0  0  0  0
    7.0880   -4.6163   27.0010 C   0  0  0  0  0  0  0  0  0  0  0  0
    8.3117   -4.3698   27.4436 C   0  0  0  0  0  0  0  0  0  0  0  0
    1.1339   -5.0515   26.3541 C   0  0  0  0  0  0  0  0  0  0  0  0
    4.8080   -8.0362   16.7101 C   0  0  0  0  0  0  0  0  0  0  0  0
   -1.2173   -3.9294   26.9717 O   0  0  0  0  0  0  0  0  0  0  0  0
   -1.0025   -5.0942   27.4586 C   0  0  0  0  0  0  0  0  0  0  0  0
    2.2474   -8.9123   16.6273 C   0  0  0  0  0  0  0  0  0  0  0  0
    4.4957   -9.2636   17.3041 C   0  0  0  0  0  0  0  0  0  0  0  0
   -1.8070   -5.6086   28.1920 O   0  0  0  0  0  0  0  0  0  0  0  0
   10.4296   -5.1799   28.3140 C   0  0  0  0  0  0  0  0  0  0  0  0
    6.6017   -5.9004   26.9187 C   0  0  0  0  0  0  0  0  0  0  0  0
    2.4761   -6.9940   26.4111 N   0  0  0  0  0  0  0  0  0  0  0  0
    9.1353   -5.4053   27.8239 C   0  0  0  0  0  0  0  0  0  0  0  0
    0.9922   -9.3232   16.5995 O   0  0  0  0  0  0  0  0  0  0  0  0
    1.5232   -7.6869   27.1182 C   0  0  0  0  0  0  0  0  0  0  0  0
    8.6878   -6.6715   27.7262 N   0  0  0  0  0  0  0  0  0  0  0  0
    6.9911   -8.2423   27.1808 C   0  0  0  0  0  0  0  0  0  0  0  0
    3.8436   -7.2758   16.0578 C   0  0  0  0  0  0  0  0  0  0  0  0
    3.1882   -9.7190   17.2566 C   0  0  0  0  0  0  0  0  0  0  0  0
    5.3488   -6.1737   26.5092 C   0  0  0  0  0  0  0  0  0  0  0  0
    7.4567   -6.9464   27.2858 C   0  0  0  0  0  0  0  0  0  0  0  0
    0.1921   -5.7592   27.1123 C   0  0  0  0  0  0  0  0  0  0  0  0
    3.5517   -7.7407   25.9711 C   0  0  0  0  0  0  0  0  0  0  0  0
  1  4  4  0
  1 22  4  0
  2 20  4  0
  2 27  4  0
  3 12  4  0
  3 23  4  0
  4 25  4  0
  4 28  1  0
  5  8  4  0
  5 17  4  0
  6  7  4  0
  6 16  4  0
  7 18  4  0
  8 27  4  0
  9 13  4  0
  9 23  4  0
 10 11  1  0
 11 14  2  0
 11 27  1  0
 12 19  1  0
 12 24  4  0
 13 24  4  0
 15 18  1  0
 16 25  4  0
 16 26  4  0
 17 20  4  0
 17 28  1  0
 18 21  4  0
 21 26  4  0
 22 26  4  0
M  END
$$$$

 Created by Python create_sdf_string function

 28 30  0  0  0  0  0  0  0  0999 V2000
    5.7174   -8.4529   26.7190 C   0  0  0  0  0  0  0  0  0  0  0  0
    0.3974   -7.0711   27.5149 C   0  0  0  0  0  0  0  0  0  0  0  0
    2.5338   -7.6891   16.0102 C   0  0  0  0  0  0  0  0  0  0  0  0
    4.8690   -7.4380   26.4151 C   0  0  0  0  0  0  0  0  0  0  0  0
    2.3021   -5.6726   26.0378 C   0  0  0  0  0  0  0  0  0  0  0  0
    7.0880   -4.6163   27.0010 C   0  0  0  0  0  0  0  0  0  0  0  0
    8.3117   -4.3698   27.4436 C   0  0  0  0  0  0  0  0  0  0  0  0
    1.1339   -5.0515   26.3541 C   0  0  0  0  0  0  0  0  0  0  0  0
    4.8080   -8.0362   16.7101 C   0  0  0  0  0  0  0  0  0  0  0  0
   -1.2173   -3.9294   26.9717 O   0  0  0  0  0  0  0  0  0  0  0  0
   -1.0025   -5.0942   27.4586 C   0  0  0  0  0  0  0  0  0  0  0  0
    2.2474   -8.9123   16.6273 C   0  0  0  0  0  0  0  0  0  0  0  0
    4.4957   -9.2636   17.3041 C   0  0  0  0  0  0  0  0  0  0  0  0
   -1.8070   -5.6086   28.1920 O   0  0  0  0  0  0  0  0  0  0  0  0
   10.4296   -5.1799   28.3140 C   0  0  0  0  0  0  0  0  0  0  0  0
    6.6017   -5.9004   26.9187 C   0  0  0  0  0  0  0  0  0  0  0  0
    2.4761   -6.9940   26.4111 N   0  0  0  0  0  0  0  0  0  0  0  0
    9.1353   -5.4053   27.8239 C   0  0  0  0  0  0  0  0  0  0  0  0
    0.9922   -9.3232   16.5995 O   0  0  0  0  0  0  0  0  0  0  0  0
    1.5232   -7.6869   27.1182 C   0  0  0  0  0  0  0  0  0  0  0  0
    8.6878   -6.6715   27.7262 N   0  0  0  0  0  0  0  0  0  0  0  0
    6.9911   -8.2423   27.1808 C   0  0  0  0  0  0  0  0  0  0  0  0
    3.8436   -7.2758   16.0578 C   0  0  0  0  0  0  0  0  0  0  0  0
    3.1882   -9.7190   17.2566 C   0  0  0  0  0  0  0  0  0  0  0  0
    5.3488   -6.1737   26.5092 C   0  0  0  0  0  0  0  0  0  0  0  0
    7.4567   -6.9464   27.2858 C   0  0  0  0  0  0  0  0  0  0  0  0
    0.1921   -5.7592   27.1123 C   0  0  0  0  0  0  0  0  0  0  0  0
    3.5517   -7.7407   25.9711 C   0  0  0  0  0  0  0  0  0  0  0  0
  1  4  4  0
  1 22  4  0
  2 20  4  0
  2 27  4  0
  3 12  4  0
  3 23  4  0
  4 25  4  0
  4 28  1  0
  5  8  4  0
  5 17  4  0
  6  7  4  0
  6 16  4  0
  7 18  4  0
  8 27  4  0
  9 13  4  0
  9 23  4  0
 10 11  1  0
 11 14  2  0
 11 27  1  0
 12 19  1  0
 12 24  4  0
 13 24  4  0
 15 18  1  0
 16 25  4  0
 16 26  4  0
 17 20  4  0
 17 28  1  0
 18 21  4  0
 21 26  4  0
 22 26  4  0
M  END
$$$$

 Created by Python create_sdf_string function

 28 30  0  0  0  0  0  0  0  0999 V2000
    5.7174   -8.4529   26.7190 C   0  0  0  0  0  0  0  0  0  0  0  0
    0.3974   -7.0711   27.5149 C   0  0  0  0  0  0  0  0  0  0  0  0
    2.5338   -7.6891   16.0102 C   0  0  0  0  0  0  0  0  0  0  0  0
    4.8690   -7.4380   26.4151 C   0  0  0  0  0  0  0  0  0  0  0  0
    2.3021   -5.6726   26.0378 C   0  0  0  0  0  0  0  0  0  0  0  0
    7.0880   -4.6163   27.0010 C   0  0  0  0  0  0  0  0  0  0  0  0
    8.3117   -4.3698   27.4436 C   0  0  0  0  0  0  0  0  0  0  0  0
    1.1339   -5.0515   26.3541 C   0  0  0  0  0  0  0  0  0  0  0  0
    4.8080   -8.0362   16.7101 C   0  0  0  0  0  0  0  0  0  0  0  0
   -1.2173   -3.9294   26.9717 O   0  0  0  0  0  0  0  0  0  0  0  0
   -1.0025   -5.0942   27.4586 C   0  0  0  0  0  0  0  0  0  0  0  0
    2.2474   -8.9123   16.6273 C   0  0  0  0  0  0  0  0  0  0  0  0
    4.4957   -9.2636   17.3041 C   0  0  0  0  0  0  0  0  0  0  0  0
   -1.8070   -5.6086   28.1920 O   0  0  0  0  0  0  0  0  0  0  0  0
   10.4296   -5.1799   28.3140 C   0  0  0  0  0  0  0  0  0  0  0  0
    6.6017   -5.9004   26.9187 C   0  0  0  0  0  0  0  0  0  0  0  0
    2.4761   -6.9940   26.4111 N   0  0  0  0  0  0  0  0  0  0  0  0
    9.1353   -5.4053   27.8239 C   0  0  0  0  0  0  0  0  0  0  0  0
    0.9922   -9.3232   16.5995 O   0  0  0  0  0  0  0  0  0  0  0  0
    1.5232   -7.6869   27.1182 C   0  0  0  0  0  0  0  0  0  0  0  0
    8.6878   -6.6715   27.7262 N   0  0  0  0  0  0  0  0  0  0  0  0
    6.9911   -8.2423   27.1808 C   0  0  0  0  0  0  0  0  0  0  0  0
    3.8436   -7.2758   16.0578 C   0  0  0  0  0  0  0  0  0  0  0  0
    3.1882   -9.7190   17.2566 C   0  0  0  0  0  0  0  0  0  0  0  0
    5.3488   -6.1737   26.5092 C   0  0  0  0  0  0  0  0  0  0  0  0
    7.4567   -6.9464   27.2858 C   0  0  0  0  0  0  0  0  0  0  0  0
    0.1921   -5.7592   27.1123 C   0  0  0  0  0  0  0  0  0  0  0  0
    3.5517   -7.7407   25.9711 C   0  0  0  0  0  0  0  0  0  0  0  0
  1  4  4  0
  1 22  4  0
  2 20  4  0
  2 27  4  0
  3 12  4  0
  3 23  4  0
  4 25  4  0
  4 28  1  0
  5  8  4  0
  5 17  4  0
  6  7  4  0
  6 16  4  0
  7 18  4  0
  8 27  4  0
  9 13  4  0
  9 23  4  0
 10 11  1  0
 11 14  2  0
 11 27  1  0
 12 19  1  0
 12 24  4  0
 13 24  4  0
 15 18  1  0
 16 25  4  0
 16 26  4  0
 17 20  4  0
 17 28  1  0
 18 21  4  0
 21 26  4  0
 22 26  4  0
M  END
$$$$

 Created by Python create_sdf_string function

 28 30  0  0  0  0  0  0  0  0999 V2000
    5.7174   -8.4529   26.7190 C   0  0  0  0  0  0  0  0  0  0  0  0
    0.3974   -7.0711   27.5149 C   0  0  0  0  0  0  0  0  0  0  0  0
    2.5338   -7.6891   16.0102 C   0  0  0  0  0  0  0  0  0  0  0  0
    4.8690   -7.4380   26.4151 C   0  0  0  0  0  0  0  0  0  0  0  0
    2.3021   -5.6726   26.0378 C   0  0  0  0  0  0  0  0  0  0  0  0
    7.0880   -4.6163   27.0010 C   0  0  0  0  0  0  0  0  0  0  0  0
    8.3117   -4.3698   27.4436 C   0  0  0  0  0  0  0  0  0  0  0  0
    1.1339   -5.0515   26.3541 C   0  0  0  0  0  0  0  0  0  0  0  0
    4.8080   -8.0362   16.7101 C   0  0  0  0  0  0  0  0  0  0  0  0
   -1.2173   -3.9294   26.9717 O   0  0  0  0  0  0  0  0  0  0  0  0
   -1.0025   -5.0942   27.4586 C   0  0  0  0  0  0  0  0  0  0  0  0
    2.2474   -8.9123   16.6273 C   0  0  0  0  0  0  0  0  0  0  0  0
    4.4957   -9.2636   17.3041 C   0  0  0  0  0  0  0  0  0  0  0  0
   -1.8070   -5.6086   28.1920 O   0  0  0  0  0  0  0  0  0  0  0  0
   10.4296   -5.1799   28.3140 C   0  0  0  0  0  0  0  0  0  0  0  0
    6.6017   -5.9004   26.9187 C   0  0  0  0  0  0  0  0  0  0  0  0
    2.4761   -6.9940   26.4111 N   0  0  0  0  0  0  0  0  0  0  0  0
    9.1353   -5.4053   27.8239 C   0  0  0  0  0  0  0  0  0  0  0  0
    0.9922   -9.3232   16.5995 O   0  0  0  0  0  0  0  0  0  0  0  0
    1.5232   -7.6869   27.1182 C   0  0  0  0  0  0  0  0  0  0  0  0
    8.6878   -6.6715   27.7262 N   0  0  0  0  0  0  0  0  0  0  0  0
    6.9911   -8.2423   27.1808 C   0  0  0  0  0  0  0  0  0  0  0  0
    3.8436   -7.2758   16.0578 C   0  0  0  0  0  0  0  0  0  0  0  0
    3.1882   -9.7190   17.2566 C   0  0  0  0  0  0  0  0  0  0  0  0
    5.3488   -6.1737   26.5092 C   0  0  0  0  0  0  0  0  0  0  0  0
    7.4567   -6.9464   27.2858 C   0  0  0  0  0  0  0  0  0  0  0  0
    0.1921   -5.7592   27.1123 C   0  0  0  0  0  0  0  0  0  0  0  0
    3.5517   -7.7407   25.9711 C   0  0  0  0  0  0  0  0  0  0  0  0
  1  4  4  0
  1 22  4  0
  2 20  4  0
  2 27  4  0
  3 12  4  0
  3 23  4  0
  4 25  4  0
  4 28  1  0
  5  8  4  0
  5 17  4  0
  6  7  4  0
  6 16  4  0
  7 18  4  0
  8 27  4  0
  9 13  4  0
  9 23  4  0
 10 11  1  0
 11 14  2  0
 11 27  1  0
 12 19  1  0
 12 24  4  0
 13 24  4  0
 15 18  1  0
 16 25  4  0
 16 26  4  0
 17 20  4  0
 17 28  1  0
 18 21  4  0
 21 26  4  0
 22 26  4  0
M  END
$$$$

 Created by Python create_sdf_string function

 28 30  0  0  0  0  0  0  0  0999 V2000
    5.7174   -8.4529   26.7190 C   0  0  0  0  0  0  0  0  0  0  0  0
    0.3974   -7.0711   27.5149 C   0  0  0  0  0  0  0  0  0  0  0  0
    2.5338   -7.6891   16.0102 C   0  0  0  0  0  0  0  0  0  0  0  0
    4.8690   -7.4380   26.4151 C   0  0  0  0  0  0  0  0  0  0  0  0
    2.3021   -5.6726   26.0378 C   0  0  0  0  0  0  0  0  0  0  0  0
    7.0880   -4.6163   27.0010 C   0  0  0  0  0  0  0  0  0  0  0  0
    8.3117   -4.3698   27.4436 C   0  0  0  0  0  0  0  0  0  0  0  0
    1.1339   -5.0515   26.3541 C   0  0  0  0  0  0  0  0  0  0  0  0
    4.8080   -8.0362   16.7101 C   0  0  0  0  0  0  0  0  0  0  0  0
   -1.2173   -3.9294   26.9717 O   0  0  0  0  0  0  0  0  0  0  0  0
   -1.0025   -5.0942   27.4586 C   0  0  0  0  0  0  0  0  0  0  0  0
    2.2474   -8.9123   16.6273 C   0  0  0  0  0  0  0  0  0  0  0  0
    4.4957   -9.2636   17.3041 C   0  0  0  0  0  0  0  0  0  0  0  0
   -1.8070   -5.6086   28.1920 O   0  0  0  0  0  0  0  0  0  0  0  0
   10.4296   -5.1799   28.3140 C   0  0  0  0  0  0  0  0  0  0  0  0
    6.6017   -5.9004   26.9187 C   0  0  0  0  0  0  0  0  0  0  0  0
    2.4761   -6.9940   26.4111 N   0  0  0  0  0  0  0  0  0  0  0  0
    9.1353   -5.4053   27.8239 C   0  0  0  0  0  0  0  0  0  0  0  0
    0.9922   -9.3232   16.5995 O   0  0  0  0  0  0  0  0  0  0  0  0
    1.5232   -7.6869   27.1182 C   0  0  0  0  0  0  0  0  0  0  0  0
    8.6878   -6.6715   27.7262 N   0  0  0  0  0  0  0  0  0  0  0  0
    6.9911   -8.2423   27.1808 C   0  0  0  0  0  0  0  0  0  0  0  0
    3.8436   -7.2758   16.0578 C   0  0  0  0  0  0  0  0  0  0  0  0
    3.1882   -9.7190   17.2566 C   0  0  0  0  0  0  0  0  0  0  0  0
    5.3488   -6.1737   26.5092 C   0  0  0  0  0  0  0  0  0  0  0  0
    7.4567   -6.9464   27.2858 C   0  0  0  0  0  0  0  0  0  0  0  0
    0.1921   -5.7592   27.1123 C   0  0  0  0  0  0  0  0  0  0  0  0
    3.5517   -7.7407   25.9711 C   0  0  0  0  0  0  0  0  0  0  0  0
  1  4  4  0
  1 22  4  0
  2 20  4  0
  2 27  4  0
  3 12  4  0
  3 23  4  0
  4 25  4  0
  4 28  1  0
  5  8  4  0
  5 17  4  0
  6  7  4  0
  6 16  4  0
  7 18  4  0
  8 27  4  0
  9 13  4  0
  9 23  4  0
 10 11  1  0
 11 14  2  0
 11 27  1  0
 12 19  1  0
 12 24  4  0
 13 24  4  0
 15 18  1  0
 16 25  4  0
 16 26  4  0
 17 20  4  0
 17 28  1  0
 18 21  4  0
 21 26  4  0
 22 26  4  0
M  END
$$$$

 Created by Python create_sdf_string function

 28 30  0  0  0  0  0  0  0  0999 V2000
    5.7174   -8.4529   26.7190 C   0  0  0  0  0  0  0  0  0  0  0  0
    0.3974   -7.0711   27.5149 C   0  0  0  0  0  0  0  0  0  0  0  0
    2.5338   -7.6891   16.0102 C   0  0  0  0  0  0  0  0  0  0  0  0
    4.8690   -7.4380   26.4151 C   0  0  0  0  0  0  0  0  0  0  0  0
    2.3021   -5.6726   26.0378 C   0  0  0  0  0  0  0  0  0  0  0  0
    7.0880   -4.6163   27.0010 C   0  0  0  0  0  0  0  0  0  0  0  0
    8.3117   -4.3698   27.4436 C   0  0  0  0  0  0  0  0  0  0  0  0
    1.1339   -5.0515   26.3541 C   0  0  0  0  0  0  0  0  0  0  0  0
    4.8080   -8.0362   16.7101 C   0  0  0  0  0  0  0  0  0  0  0  0
   -1.2173   -3.9294   26.9717 O   0  0  0  0  0  0  0  0  0  0  0  0
   -1.0025   -5.0942   27.4586 C   0  0  0  0  0  0  0  0  0  0  0  0
    2.2474   -8.9123   16.6273 C   0  0  0  0  0  0  0  0  0  0  0  0
    4.4957   -9.2636   17.3041 C   0  0  0  0  0  0  0  0  0  0  0  0
   -1.8070   -5.6086   28.1920 O   0  0  0  0  0  0  0  0  0  0  0  0
   10.4296   -5.1799   28.3140 C   0  0  0  0  0  0  0  0  0  0  0  0
    6.6017   -5.9004   26.9187 C   0  0  0  0  0  0  0  0  0  0  0  0
    2.4761   -6.9940   26.4111 N   0  0  0  0  0  0  0  0  0  0  0  0
    9.1353   -5.4053   27.8239 C   0  0  0  0  0  0  0  0  0  0  0  0
    0.9922   -9.3232   16.5995 O   0  0  0  0  0  0  0  0  0  0  0  0
    1.5232   -7.6869   27.1182 C   0  0  0  0  0  0  0  0  0  0  0  0
    8.6878   -6.6715   27.7262 N   0  0  0  0  0  0  0  0  0  0  0  0
    6.9911   -8.2423   27.1808 C   0  0  0  0  0  0  0  0  0  0  0  0
    3.8436   -7.2758   16.0578 C   0  0  0  0  0  0  0  0  0  0  0  0
    3.1882   -9.7190   17.2566 C   0  0  0  0  0  0  0  0  0  0  0  0
    5.3488   -6.1737   26.5092 C   0  0  0  0  0  0  0  0  0  0  0  0
    7.4567   -6.9464   27.2858 C   0  0  0  0  0  0  0  0  0  0  0  0
    0.1921   -5.7592   27.1123 C   0  0  0  0  0  0  0  0  0  0  0  0
    3.5517   -7.7407   25.9711 C   0  0  0  0  0  0  0  0  0  0  0  0
  1  4  4  0
  1 22  4  0
  2 20  4  0
  2 27  4  0
  3 12  4  0
  3 23  4  0
  4 25  4  0
  4 28  1  0
  5  8  4  0
  5 17  4  0
  6  7  4  0
  6 16  4  0
  7 18  4  0
  8 27  4  0
  9 13  4  0
  9 23  4  0
 10 11  1  0
 11 14  2  0
 11 27  1  0
 12 19  1  0
 12 24  4  0
 13 24  4  0
 15 18  1  0
 16 25  4  0
 16 26  4  0
 17 20  4  0
 17 28  1  0
 18 21  4  0
 21 26  4  0
 22 26  4  0
M  END
$$$$

 Created by Python create_sdf_string function

 28 30  0  0  0  0  0  0  0  0999 V2000
    5.7174   -8.4529   26.7190 C   0  0  0  0  0  0  0  0  0  0  0  0
    0.3974   -7.0711   27.5149 C   0  0  0  0  0  0  0  0  0  0  0  0
    2.5338   -7.6891   16.0102 C   0  0  0  0  0  0  0  0  0  0  0  0
    4.8690   -7.4380   26.4151 C   0  0  0  0  0  0  0  0  0  0  0  0
    2.3021   -5.6726   26.0378 C   0  0  0  0  0  0  0  0  0  0  0  0
    7.0880   -4.6163   27.0010 C   0  0  0  0  0  0  0  0  0  0  0  0
    8.3117   -4.3698   27.4436 C   0  0  0  0  0  0  0  0  0  0  0  0
    1.1339   -5.0515   26.3541 C   0  0  0  0  0  0  0  0  0  0  0  0
    4.8080   -8.0362   16.7101 C   0  0  0  0  0  0  0  0  0  0  0  0
   -1.2173   -3.9294   26.9717 O   0  0  0  0  0  0  0  0  0  0  0  0
   -1.0025   -5.0942   27.4586 C   0  0  0  0  0  0  0  0  0  0  0  0
    2.2474   -8.9123   16.6273 C   0  0  0  0  0  0  0  0  0  0  0  0
    4.4957   -9.2636   17.3041 C   0  0  0  0  0  0  0  0  0  0  0  0
   -1.8070   -5.6086   28.1920 O   0  0  0  0  0  0  0  0  0  0  0  0
   10.4296   -5.1799   28.3140 C   0  0  0  0  0  0  0  0  0  0  0  0
    6.6017   -5.9004   26.9187 C   0  0  0  0  0  0  0  0  0  0  0  0
    2.4761   -6.9940   26.4111 N   0  0  0  0  0  0  0  0  0  0  0  0
    9.1353   -5.4053   27.8239 C   0  0  0  0  0  0  0  0  0  0  0  0
    0.9922   -9.3232   16.5995 O   0  0  0  0  0  0  0  0  0  0  0  0
    1.5232   -7.6869   27.1182 C   0  0  0  0  0  0  0  0  0  0  0  0
    8.6878   -6.6715   27.7262 N   0  0  0  0  0  0  0  0  0  0  0  0
    6.9911   -8.2423   27.1808 C   0  0  0  0  0  0  0  0  0  0  0  0
    3.8436   -7.2758   16.0578 C   0  0  0  0  0  0  0  0  0  0  0  0
    3.1882   -9.7190   17.2566 C   0  0  0  0  0  0  0  0  0  0  0  0
    5.3488   -6.1737   26.5092 C   0  0  0  0  0  0  0  0  0  0  0  0
    7.4567   -6.9464   27.2858 C   0  0  0  0  0  0  0  0  0  0  0  0
    0.1921   -5.7592   27.1123 C   0  0  0  0  0  0  0  0  0  0  0  0
    3.5517   -7.7407   25.9711 C   0  0  0  0  0  0  0  0  0  0  0  0
  1  4  4  0
  1 22  4  0
  2 20  4  0
  2 27  4  0
  3 12  4  0
  3 23  4  0
  4 25  4  0
  4 28  1  0
  5  8  4  0
  5 17  4  0
  6  7  4  0
  6 16  4  0
  7 18  4  0
  8 27  4  0
  9 13  4  0
  9 23  4  0
 10 11  1  0
 11 14  2  0
 11 27  1  0
 12 19  1  0
 12 24  4  0
 13 24  4  0
 15 18  1  0
 16 25  4  0
 16 26  4  0
 17 20  4  0
 17 28  1  0
 18 21  4  0
 21 26  4  0
 22 26  4  0
M  END
$$$$

 Created by Python create_sdf_string function

 28 30  0  0  0  0  0  0  0  0999 V2000
    5.7174   -8.4529   26.7190 C   0  0  0  0  0  0  0  0  0  0  0  0
    0.3974   -7.0711   27.5149 C   0  0  0  0  0  0  0  0  0  0  0  0
    2.5338   -7.6891   16.0102 C   0  0  0  0  0  0  0  0  0  0  0  0
    4.8690   -7.4380   26.4151 C   0  0  0  0  0  0  0  0  0  0  0  0
    2.3021   -5.6726   26.0378 C   0  0  0  0  0  0  0  0  0  0  0  0
    7.0880   -4.6163   27.0010 C   0  0  0  0  0  0  0  0  0  0  0  0
    8.3117   -4.3698   27.4436 C   0  0  0  0  0  0  0  0  0  0  0  0
    1.1339   -5.0515   26.3541 C   0  0  0  0  0  0  0  0  0  0  0  0
    4.8080   -8.0362   16.7101 C   0  0  0  0  0  0  0  0  0  0  0  0
   -1.2173   -3.9294   26.9717 O   0  0  0  0  0  0  0  0  0  0  0  0
   -1.0025   -5.0942   27.4586 C   0  0  0  0  0  0  0  0  0  0  0  0
    2.2474   -8.9123   16.6273 C   0  0  0  0  0  0  0  0  0  0  0  0
    4.4957   -9.2636   17.3041 C   0  0  0  0  0  0  0  0  0  0  0  0
   -1.8070   -5.6086   28.1920 O   0  0  0  0  0  0  0  0  0  0  0  0
   10.4296   -5.1799   28.3140 C   0  0  0  0  0  0  0  0  0  0  0  0
    6.6017   -5.9004   26.9187 C   0  0  0  0  0  0  0  0  0  0  0  0
    2.4761   -6.9940   26.4111 N   0  0  0  0  0  0  0  0  0  0  0  0
    9.1353   -5.4053   27.8239 C   0  0  0  0  0  0  0  0  0  0  0  0
    0.9922   -9.3232   16.5995 O   0  0  0  0  0  0  0  0  0  0  0  0
    1.5232   -7.6869   27.1182 C   0  0  0  0  0  0  0  0  0  0  0  0
    8.6878   -6.6715   27.7262 N   0  0  0  0  0  0  0  0  0  0  0  0
    6.9911   -8.2423   27.1808 C   0  0  0  0  0  0  0  0  0  0  0  0
    3.8436   -7.2758   16.0578 C   0  0  0  0  0  0  0  0  0  0  0  0
    3.1882   -9.7190   17.2566 C   0  0  0  0  0  0  0  0  0  0  0  0
    5.3488   -6.1737   26.5092 C   0  0  0  0  0  0  0  0  0  0  0  0
    7.4567   -6.9464   27.2858 C   0  0  0  0  0  0  0  0  0  0  0  0
    0.1921   -5.7592   27.1123 C   0  0  0  0  0  0  0  0  0  0  0  0
    3.5517   -7.7407   25.9711 C   0  0  0  0  0  0  0  0  0  0  0  0
  1  4  4  0
  1 22  4  0
  2 20  4  0
  2 27  4  0
  3 12  4  0
  3 23  4  0
  4 25  4  0
  4 28  1  0
  5  8  4  0
  5 17  4  0
  6  7  4  0
  6 16  4  0
  7 18  4  0
  8 27  4  0
  9 13  4  0
  9 23  4  0
 10 11  1  0
 11 14  2  0
 11 27  1  0
 12 19  1  0
 12 24  4  0
 13 24  4  0
 15 18  1  0
 16 25  4  0
 16 26  4  0
 17 20  4  0
 17 28  1  0
 18 21  4  0
 21 26  4  0
 22 26  4  0
M  END
$$$$

 Created by Python create_sdf_string function

 28 30  0  0  0  0  0  0  0  0999 V2000
    5.7174   -8.4529   26.7190 C   0  0  0  0  0  0  0  0  0  0  0  0
    0.3974   -7.0711   27.5149 C   0  0  0  0  0  0  0  0  0  0  0  0
    2.5338   -7.6891   16.0102 C   0  0  0  0  0  0  0  0  0  0  0  0
    4.8690   -7.4380   26.4151 C   0  0  0  0  0  0  0  0  0  0  0  0
    2.3021   -5.6726   26.0378 C   0  0  0  0  0  0  0  0  0  0  0  0
    7.0880   -4.6163   27.0010 C   0  0  0  0  0  0  0  0  0  0  0  0
    8.3117   -4.3698   27.4436 C   0  0  0  0  0  0  0  0  0  0  0  0
    1.1339   -5.0515   26.3541 C   0  0  0  0  0  0  0  0  0  0  0  0
    4.8080   -8.0362   16.7101 C   0  0  0  0  0  0  0  0  0  0  0  0
   -1.2173   -3.9294   26.9717 O   0  0  0  0  0  0  0  0  0  0  0  0
   -1.0025   -5.0942   27.4586 C   0  0  0  0  0  0  0  0  0  0  0  0
    2.2474   -8.9123   16.6273 C   0  0  0  0  0  0  0  0  0  0  0  0
    4.4957   -9.2636   17.3041 C   0  0  0  0  0  0  0  0  0  0  0  0
   -1.8070   -5.6086   28.1920 O   0  0  0  0  0  0  0  0  0  0  0  0
   10.4296   -5.1799   28.3140 C   0  0  0  0  0  0  0  0  0  0  0  0
    6.6017   -5.9004   26.9187 C   0  0  0  0  0  0  0  0  0  0  0  0
    2.4761   -6.9940   26.4111 N   0  0  0  0  0  0  0  0  0  0  0  0
    9.1353   -5.4053   27.8239 C   0  0  0  0  0  0  0  0  0  0  0  0
    0.9922   -9.3232   16.5995 O   0  0  0  0  0  0  0  0  0  0  0  0
    1.5232   -7.6869   27.1182 C   0  0  0  0  0  0  0  0  0  0  0  0
    8.6878   -6.6715   27.7262 N   0  0  0  0  0  0  0  0  0  0  0  0
    6.9911   -8.2423   27.1808 C   0  0  0  0  0  0  0  0  0  0  0  0
    3.8436   -7.2758   16.0578 C   0  0  0  0  0  0  0  0  0  0  0  0
    3.1882   -9.7190   17.2566 C   0  0  0  0  0  0  0  0  0  0  0  0
    5.3488   -6.1737   26.5092 C   0  0  0  0  0  0  0  0  0  0  0  0
    7.4567   -6.9464   27.2858 C   0  0  0  0  0  0  0  0  0  0  0  0
    0.1921   -5.7592   27.1123 C   0  0  0  0  0  0  0  0  0  0  0  0
    3.5517   -7.7407   25.9711 C   0  0  0  0  0  0  0  0  0  0  0  0
  1  4  4  0
  1 22  4  0
  2 20  4  0
  2 27  4  0
  3 12  4  0
  3 23  4  0
  4 25  4  0
  4 28  1  0
  5  8  4  0
  5 17  4  0
  6  7  4  0
  6 16  4  0
  7 18  4  0
  8 27  4  0
  9 13  4  0
  9 23  4  0
 10 11  1  0
 11 14  2  0
 11 27  1  0
 12 19  1  0
 12 24  4  0
 13 24  4  0
 15 18  1  0
 16 25  4  0
 16 26  4  0
 17 20  4  0
 17 28  1  0
 18 21  4  0
 21 26  4  0
 22 26  4  0
M  END
$$$$

 Created by Python create_sdf_string function

 28 30  0  0  0  0  0  0  0  0999 V2000
    5.7174   -8.4529   26.7190 C   0  0  0  0  0  0  0  0  0  0  0  0
    0.3974   -7.0711   27.5149 C   0  0  0  0  0  0  0  0  0  0  0  0
    2.5338   -7.6891   16.0102 C   0  0  0  0  0  0  0  0  0  0  0  0
    4.8690   -7.4380   26.4151 C   0  0  0  0  0  0  0  0  0  0  0  0
    2.3021   -5.6726   26.0378 C   0  0  0  0  0  0  0  0  0  0  0  0
    7.0880   -4.6163   27.0010 C   0  0  0  0  0  0  0  0  0  0  0  0
    8.3117   -4.3698   27.4436 C   0  0  0  0  0  0  0  0  0  0  0  0
    1.1339   -5.0515   26.3541 C   0  0  0  0  0  0  0  0  0  0  0  0
    4.8080   -8.0362   16.7101 C   0  0  0  0  0  0  0  0  0  0  0  0
   -1.2173   -3.9294   26.9717 O   0  0  0  0  0  0  0  0  0  0  0  0
   -1.0025   -5.0942   27.4586 C   0  0  0  0  0  0  0  0  0  0  0  0
    2.2474   -8.9123   16.6273 C   0  0  0  0  0  0  0  0  0  0  0  0
    4.4957   -9.2636   17.3041 C   0  0  0  0  0  0  0  0  0  0  0  0
   -1.8070   -5.6086   28.1920 O   0  0  0  0  0  0  0  0  0  0  0  0
   10.4296   -5.1799   28.3140 C   0  0  0  0  0  0  0  0  0  0  0  0
    6.6017   -5.9004   26.9187 C   0  0  0  0  0  0  0  0  0  0  0  0
    2.4761   -6.9940   26.4111 N   0  0  0  0  0  0  0  0  0  0  0  0
    9.1353   -5.4053   27.8239 C   0  0  0  0  0  0  0  0  0  0  0  0
    0.9922   -9.3232   16.5995 O   0  0  0  0  0  0  0  0  0  0  0  0
    1.5232   -7.6869   27.1182 C   0  0  0  0  0  0  0  0  0  0  0  0
    8.6878   -6.6715   27.7262 N   0  0  0  0  0  0  0  0  0  0  0  0
    6.9911   -8.2423   27.1808 C   0  0  0  0  0  0  0  0  0  0  0  0
    3.8436   -7.2758   16.0578 C   0  0  0  0  0  0  0  0  0  0  0  0
    3.1882   -9.7190   17.2566 C   0  0  0  0  0  0  0  0  0  0  0  0
    5.3488   -6.1737   26.5092 C   0  0  0  0  0  0  0  0  0  0  0  0
    7.4567   -6.9464   27.2858 C   0  0  0  0  0  0  0  0  0  0  0  0
    0.1921   -5.7592   27.1123 C   0  0  0  0  0  0  0  0  0  0  0  0
    3.5517   -7.7407   25.9711 C   0  0  0  0  0  0  0  0  0  0  0  0
  1  4  4  0
  1 22  4  0
  2 20  4  0
  2 27  4  0
  3 12  4  0
  3 23  4  0
  4 25  4  0
  4 28  1  0
  5  8  4  0
  5 17  4  0
  6  7  4  0
  6 16  4  0
  7 18  4  0
  8 27  4  0
  9 13  4  0
  9 23  4  0
 10 11  1  0
 11 14  2  0
 11 27  1  0
 12 19  1  0
 12 24  4  0
 13 24  4  0
 15 18  1  0
 16 25  4  0
 16 26  4  0
 17 20  4  0
 17 28  1  0
 18 21  4  0
 21 26  4  0
 22 26  4  0
M  END
$$$$

 Created by Python create_sdf_string function

 28 30  0  0  0  0  0  0  0  0999 V2000
    5.7174   -8.4529   26.7190 C   0  0  0  0  0  0  0  0  0  0  0  0
    0.3974   -7.0711   27.5149 C   0  0  0  0  0  0  0  0  0  0  0  0
    2.5338   -7.6891   16.0102 C   0  0  0  0  0  0  0  0  0  0  0  0
    4.8690   -7.4380   26.4151 C   0  0  0  0  0  0  0  0  0  0  0  0
    2.3021   -5.6726   26.0378 C   0  0  0  0  0  0  0  0  0  0  0  0
    7.0880   -4.6163   27.0010 C   0  0  0  0  0  0  0  0  0  0  0  0
    8.3117   -4.3698   27.4436 C   0  0  0  0  0  0  0  0  0  0  0  0
    1.1339   -5.0515   26.3541 C   0  0  0  0  0  0  0  0  0  0  0  0
    4.8080   -8.0362   16.7101 C   0  0  0  0  0  0  0  0  0  0  0  0
   -1.2173   -3.9294   26.9717 O   0  0  0  0  0  0  0  0  0  0  0  0
   -1.0025   -5.0942   27.4586 C   0  0  0  0  0  0  0  0  0  0  0  0
    2.2474   -8.9123   16.6273 C   0  0  0  0  0  0  0  0  0  0  0  0
    4.4957   -9.2636   17.3041 C   0  0  0  0  0  0  0  0  0  0  0  0
   -1.8070   -5.6086   28.1920 O   0  0  0  0  0  0  0  0  0  0  0  0
   10.4296   -5.1799   28.3140 C   0  0  0  0  0  0  0  0  0  0  0  0
    6.6017   -5.9004   26.9187 C   0  0  0  0  0  0  0  0  0  0  0  0
    2.4761   -6.9940   26.4111 N   0  0  0  0  0  0  0  0  0  0  0  0
    9.1353   -5.4053   27.8239 C   0  0  0  0  0  0  0  0  0  0  0  0
    0.9922   -9.3232   16.5995 O   0  0  0  0  0  0  0  0  0  0  0  0
    1.5232   -7.6869   27.1182 C   0  0  0  0  0  0  0  0  0  0  0  0
    8.6878   -6.6715   27.7262 N   0  0  0  0  0  0  0  0  0  0  0  0
    6.9911   -8.2423   27.1808 C   0  0  0  0  0  0  0  0  0  0  0  0
    3.8436   -7.2758   16.0578 C   0  0  0  0  0  0  0  0  0  0  0  0
    3.1882   -9.7190   17.2566 C   0  0  0  0  0  0  0  0  0  0  0  0
    5.3488   -6.1737   26.5092 C   0  0  0  0  0  0  0  0  0  0  0  0
    7.4567   -6.9464   27.2858 C   0  0  0  0  0  0  0  0  0  0  0  0
    0.1921   -5.7592   27.1123 C   0  0  0  0  0  0  0  0  0  0  0  0
    3.5517   -7.7407   25.9711 C   0  0  0  0  0  0  0  0  0  0  0  0
  1  4  4  0
  1 22  4  0
  2 20  4  0
  2 27  4  0
  3 12  4  0
  3 23  4  0
  4 25  4  0
  4 28  1  0
  5  8  4  0
  5 17  4  0
  6  7  4  0
  6 16  4  0
  7 18  4  0
  8 27  4  0
  9 13  4  0
  9 23  4  0
 10 11  1  0
 11 14  2  0
 11 27  1  0
 12 19  1  0
 12 24  4  0
 13 24  4  0
 15 18  1  0
 16 25  4  0
 16 26  4  0
 17 20  4  0
 17 28  1  0
 18 21  4  0
 21 26  4  0
 22 26  4  0
M  END
$$$$

 Created by Python create_sdf_string function

 28 30  0  0  0  0  0  0  0  0999 V2000
    5.7174   -8.4529   26.7190 C   0  0  0  0  0  0  0  0  0  0  0  0
    0.3974   -7.0711   27.5149 C   0  0  0  0  0  0  0  0  0  0  0  0
    2.5338   -7.6891   16.0102 C   0  0  0  0  0  0  0  0  0  0  0  0
    4.8690   -7.4380   26.4151 C   0  0  0  0  0  0  0  0  0  0  0  0
    2.3021   -5.6726   26.0378 C   0  0  0  0  0  0  0  0  0  0  0  0
    7.0880   -4.6163   27.0010 C   0  0  0  0  0  0  0  0  0  0  0  0
    8.3117   -4.3698   27.4436 C   0  0  0  0  0  0  0  0  0  0  0  0
    1.1339   -5.0515   26.3541 C   0  0  0  0  0  0  0  0  0  0  0  0
    4.8080   -8.0362   16.7101 C   0  0  0  0  0  0  0  0  0  0  0  0
   -1.2173   -3.9294   26.9717 O   0  0  0  0  0  0  0  0  0  0  0  0
   -1.0025   -5.0942   27.4586 C   0  0  0  0  0  0  0  0  0  0  0  0
    2.2474   -8.9123   16.6273 C   0  0  0  0  0  0  0  0  0  0  0  0
    4.4957   -9.2636   17.3041 C   0  0  0  0  0  0  0  0  0  0  0  0
   -1.8070   -5.6086   28.1920 O   0  0  0  0  0  0  0  0  0  0  0  0
   10.4296   -5.1799   28.3140 C   0  0  0  0  0  0  0  0  0  0  0  0
    6.6017   -5.9004   26.9187 C   0  0  0  0  0  0  0  0  0  0  0  0
    2.4761   -6.9940   26.4111 N   0  0  0  0  0  0  0  0  0  0  0  0
    9.1353   -5.4053   27.8239 C   0  0  0  0  0  0  0  0  0  0  0  0
    0.9922   -9.3232   16.5995 O   0  0  0  0  0  0  0  0  0  0  0  0
    1.5232   -7.6869   27.1182 C   0  0  0  0  0  0  0  0  0  0  0  0
    8.6878   -6.6715   27.7262 N   0  0  0  0  0  0  0  0  0  0  0  0
    6.9911   -8.2423   27.1808 C   0  0  0  0  0  0  0  0  0  0  0  0
    3.8436   -7.2758   16.0578 C   0  0  0  0  0  0  0  0  0  0  0  0
    3.1882   -9.7190   17.2566 C   0  0  0  0  0  0  0  0  0  0  0  0
    5.3488   -6.1737   26.5092 C   0  0  0  0  0  0  0  0  0  0  0  0
    7.4567   -6.9464   27.2858 C   0  0  0  0  0  0  0  0  0  0  0  0
    0.1921   -5.7592   27.1123 C   0  0  0  0  0  0  0  0  0  0  0  0
    3.5517   -7.7407   25.9711 C   0  0  0  0  0  0  0  0  0  0  0  0
  1  4  4  0
  1 22  4  0
  2 20  4  0
  2 27  4  0
  3 12  4  0
  3 23  4  0
  4 25  4  0
  4 28  1  0
  5  8  4  0
  5 17  4  0
  6  7  4  0
  6 16  4  0
  7 18  4  0
  8 27  4  0
  9 13  4  0
  9 23  4  0
 10 11  1  0
 11 14  2  0
 11 27  1  0
 12 19  1  0
 12 24  4  0
 13 24  4  0
 15 18  1  0
 16 25  4  0
 16 26  4  0
 17 20  4  0
 17 28  1  0
 18 21  4  0
 21 26  4  0
 22 26  4  0
M  END
$$$$

 Created by Python create_sdf_string function

 28 30  0  0  0  0  0  0  0  0999 V2000
    5.7174   -8.4529   26.7190 C   0  0  0  0  0  0  0  0  0  0  0  0
    0.3974   -7.0711   27.5149 C   0  0  0  0  0  0  0  0  0  0  0  0
    2.5338   -7.6891   16.0102 C   0  0  0  0  0  0  0  0  0  0  0  0
    4.8690   -7.4380   26.4151 C   0  0  0  0  0  0  0  0  0  0  0  0
    2.3021   -5.6726   26.0378 C   0  0  0  0  0  0  0  0  0  0  0  0
    7.0880   -4.6163   27.0010 C   0  0  0  0  0  0  0  0  0  0  0  0
    8.3117   -4.3698   27.4436 C   0  0  0  0  0  0  0  0  0  0  0  0
    1.1339   -5.0515   26.3541 C   0  0  0  0  0  0  0  0  0  0  0  0
    4.8080   -8.0362   16.7101 C   0  0  0  0  0  0  0  0  0  0  0  0
   -1.2173   -3.9294   26.9717 O   0  0  0  0  0  0  0  0  0  0  0  0
   -1.0025   -5.0942   27.4586 C   0  0  0  0  0  0  0  0  0  0  0  0
    2.2474   -8.9123   16.6273 C   0  0  0  0  0  0  0  0  0  0  0  0
    4.4957   -9.2636   17.3041 C   0  0  0  0  0  0  0  0  0  0  0  0
   -1.8070   -5.6086   28.1920 O   0  0  0  0  0  0  0  0  0  0  0  0
   10.4296   -5.1799   28.3140 C   0  0  0  0  0  0  0  0  0  0  0  0
    6.6017   -5.9004   26.9187 C   0  0  0  0  0  0  0  0  0  0  0  0
    2.4761   -6.9940   26.4111 N   0  0  0  0  0  0  0  0  0  0  0  0
    9.1353   -5.4053   27.8239 C   0  0  0  0  0  0  0  0  0  0  0  0
    0.9922   -9.3232   16.5995 O   0  0  0  0  0  0  0  0  0  0  0  0
    1.5232   -7.6869   27.1182 C   0  0  0  0  0  0  0  0  0  0  0  0
    8.6878   -6.6715   27.7262 N   0  0  0  0  0  0  0  0  0  0  0  0
    6.9911   -8.2423   27.1808 C   0  0  0  0  0  0  0  0  0  0  0  0
    3.8436   -7.2758   16.0578 C   0  0  0  0  0  0  0  0  0  0  0  0
    3.1882   -9.7190   17.2566 C   0  0  0  0  0  0  0  0  0  0  0  0
    5.3488   -6.1737   26.5092 C   0  0  0  0  0  0  0  0  0  0  0  0
    7.4567   -6.9464   27.2858 C   0  0  0  0  0  0  0  0  0  0  0  0
    0.1921   -5.7592   27.1123 C   0  0  0  0  0  0  0  0  0  0  0  0
    3.5517   -7.7407   25.9711 C   0  0  0  0  0  0  0  0  0  0  0  0
  1  4  4  0
  1 22  4  0
  2 20  4  0
  2 27  4  0
  3 12  4  0
  3 23  4  0
  4 25  4  0
  4 28  1  0
  5  8  4  0
  5 17  4  0
  6  7  4  0
  6 16  4  0
  7 18  4  0
  8 27  4  0
  9 13  4  0
  9 23  4  0
 10 11  1  0
 11 14  2  0
 11 27  1  0
 12 19  1  0
 12 24  4  0
 13 24  4  0
 15 18  1  0
 16 25  4  0
 16 26  4  0
 17 20  4  0
 17 28  1  0
 18 21  4  0
 21 26  4  0
 22 26  4  0
M  END
$$$$

 Created by Python create_sdf_string function

 28 30  0  0  0  0  0  0  0  0999 V2000
    5.7174   -8.4529   26.7190 C   0  0  0  0  0  0  0  0  0  0  0  0
    0.3974   -7.0711   27.5149 C   0  0  0  0  0  0  0  0  0  0  0  0
    2.5338   -7.6891   16.0102 C   0  0  0  0  0  0  0  0  0  0  0  0
    4.8690   -7.4380   26.4151 C   0  0  0  0  0  0  0  0  0  0  0  0
    2.3021   -5.6726   26.0378 C   0  0  0  0  0  0  0  0  0  0  0  0
    7.0880   -4.6163   27.0010 C   0  0  0  0  0  0  0  0  0  0  0  0
    8.3117   -4.3698   27.4436 C   0  0  0  0  0  0  0  0  0  0  0  0
    1.1339   -5.0515   26.3541 C   0  0  0  0  0  0  0  0  0  0  0  0
    4.8080   -8.0362   16.7101 C   0  0  0  0  0  0  0  0  0  0  0  0
   -1.2173   -3.9294   26.9717 O   0  0  0  0  0  0  0  0  0  0  0  0
   -1.0025   -5.0942   27.4586 C   0  0  0  0  0  0  0  0  0  0  0  0
    2.2474   -8.9123   16.6273 C   0  0  0  0  0  0  0  0  0  0  0  0
    4.4957   -9.2636   17.3041 C   0  0  0  0  0  0  0  0  0  0  0  0
   -1.8070   -5.6086   28.1920 O   0  0  0  0  0  0  0  0  0  0  0  0
   10.4296   -5.1799   28.3140 C   0  0  0  0  0  0  0  0  0  0  0  0
    6.6017   -5.9004   26.9187 C   0  0  0  0  0  0  0  0  0  0  0  0
    2.4761   -6.9940   26.4111 N   0  0  0  0  0  0  0  0  0  0  0  0
    9.1353   -5.4053   27.8239 C   0  0  0  0  0  0  0  0  0  0  0  0
    0.9922   -9.3232   16.5995 O   0  0  0  0  0  0  0  0  0  0  0  0
    1.5232   -7.6869   27.1182 C   0  0  0  0  0  0  0  0  0  0  0  0
    8.6878   -6.6715   27.7262 N   0  0  0  0  0  0  0  0  0  0  0  0
    6.9911   -8.2423   27.1808 C   0  0  0  0  0  0  0  0  0  0  0  0
    3.8436   -7.2758   16.0578 C   0  0  0  0  0  0  0  0  0  0  0  0
    3.1882   -9.7190   17.2566 C   0  0  0  0  0  0  0  0  0  0  0  0
    5.3488   -6.1737   26.5092 C   0  0  0  0  0  0  0  0  0  0  0  0
    7.4567   -6.9464   27.2858 C   0  0  0  0  0  0  0  0  0  0  0  0
    0.1921   -5.7592   27.1123 C   0  0  0  0  0  0  0  0  0  0  0  0
    3.5517   -7.7407   25.9711 C   0  0  0  0  0  0  0  0  0  0  0  0
  1  4  4  0
  1 22  4  0
  2 20  4  0
  2 27  4  0
  3 12  4  0
  3 23  4  0
  4 25  4  0
  4 28  1  0
  5  8  4  0
  5 17  4  0
  6  7  4  0
  6 16  4  0
  7 18  4  0
  8 27  4  0
  9 13  4  0
  9 23  4  0
 10 11  1  0
 11 14  2  0
 11 27  1  0
 12 19  1  0
 12 24  4  0
 13 24  4  0
 15 18  1  0
 16 25  4  0
 16 26  4  0
 17 20  4  0
 17 28  1  0
 18 21  4  0
 21 26  4  0
 22 26  4  0
M  END
$$$$

 Created by Python create_sdf_string function

 28 30  0  0  0  0  0  0  0  0999 V2000
    5.7174   -8.4529   26.7190 C   0  0  0  0  0  0  0  0  0  0  0  0
    0.3974   -7.0711   27.5149 C   0  0  0  0  0  0  0  0  0  0  0  0
    2.5338   -7.6891   16.0102 C   0  0  0  0  0  0  0  0  0  0  0  0
    4.8690   -7.4380   26.4151 C   0  0  0  0  0  0  0  0  0  0  0  0
    2.3021   -5.6726   26.0378 C   0  0  0  0  0  0  0  0  0  0  0  0
    7.0880   -4.6163   27.0010 C   0  0  0  0  0  0  0  0  0  0  0  0
    8.3117   -4.3698   27.4436 C   0  0  0  0  0  0  0  0  0  0  0  0
    1.1339   -5.0515   26.3541 C   0  0  0  0  0  0  0  0  0  0  0  0
    4.8080   -8.0362   16.7101 C   0  0  0  0  0  0  0  0  0  0  0  0
   -1.2173   -3.9294   26.9717 O   0  0  0  0  0  0  0  0  0  0  0  0
   -1.0025   -5.0942   27.4586 C   0  0  0  0  0  0  0  0  0  0  0  0
    2.2474   -8.9123   16.6273 C   0  0  0  0  0  0  0  0  0  0  0  0
    4.4957   -9.2636   17.3041 C   0  0  0  0  0  0  0  0  0  0  0  0
   -1.8070   -5.6086   28.1920 O   0  0  0  0  0  0  0  0  0  0  0  0
   10.4296   -5.1799   28.3140 C   0  0  0  0  0  0  0  0  0  0  0  0
    6.6017   -5.9004   26.9187 C   0  0  0  0  0  0  0  0  0  0  0  0
    2.4761   -6.9940   26.4111 N   0  0  0  0  0  0  0  0  0  0  0  0
    9.1353   -5.4053   27.8239 C   0  0  0  0  0  0  0  0  0  0  0  0
    0.9922   -9.3232   16.5995 O   0  0  0  0  0  0  0  0  0  0  0  0
    1.5232   -7.6869   27.1182 C   0  0  0  0  0  0  0  0  0  0  0  0
    8.6878   -6.6715   27.7262 N   0  0  0  0  0  0  0  0  0  0  0  0
    6.9911   -8.2423   27.1808 C   0  0  0  0  0  0  0  0  0  0  0  0
    3.8436   -7.2758   16.0578 C   0  0  0  0  0  0  0  0  0  0  0  0
    3.1882   -9.7190   17.2566 C   0  0  0  0  0  0  0  0  0  0  0  0
    5.3488   -6.1737   26.5092 C   0  0  0  0  0  0  0  0  0  0  0  0
    7.4567   -6.9464   27.2858 C   0  0  0  0  0  0  0  0  0  0  0  0
    0.1921   -5.7592   27.1123 C   0  0  0  0  0  0  0  0  0  0  0  0
    3.5517   -7.7407   25.9711 C   0  0  0  0  0  0  0  0  0  0  0  0
  1  4  4  0
  1 22  4  0
  2 20  4  0
  2 27  4  0
  3 12  4  0
  3 23  4  0
  4 25  4  0
  4 28  1  0
  5  8  4  0
  5 17  4  0
  6  7  4  0
  6 16  4  0
  7 18  4  0
  8 27  4  0
  9 13  4  0
  9 23  4  0
 10 11  1  0
 11 14  2  0
 11 27  1  0
 12 19  1  0
 12 24  4  0
 13 24  4  0
 15 18  1  0
 16 25  4  0
 16 26  4  0
 17 20  4  0
 17 28  1  0
 18 21  4  0
 21 26  4  0
 22 26  4  0
M  END
$$$$

 Created by Python create_sdf_string function

 28 30  0  0  0  0  0  0  0  0999 V2000
    5.7174   -8.4529   26.7190 C   0  0  0  0  0  0  0  0  0  0  0  0
    0.3974   -7.0711   27.5149 C   0  0  0  0  0  0  0  0  0  0  0  0
    2.5338   -7.6891   16.0102 C   0  0  0  0  0  0  0  0  0  0  0  0
    4.8690   -7.4380   26.4151 C   0  0  0  0  0  0  0  0  0  0  0  0
    2.3021   -5.6726   26.0378 C   0  0  0  0  0  0  0  0  0  0  0  0
    7.0880   -4.6163   27.0010 C   0  0  0  0  0  0  0  0  0  0  0  0
    8.3117   -4.3698   27.4436 C   0  0  0  0  0  0  0  0  0  0  0  0
    1.1339   -5.0515   26.3541 C   0  0  0  0  0  0  0  0  0  0  0  0
    4.8080   -8.0362   16.7101 C   0  0  0  0  0  0  0  0  0  0  0  0
   -1.2173   -3.9294   26.9717 O   0  0  0  0  0  0  0  0  0  0  0  0
   -1.0025   -5.0942   27.4586 C   0  0  0  0  0  0  0  0  0  0  0  0
    2.2474   -8.9123   16.6273 C   0  0  0  0  0  0  0  0  0  0  0  0
    4.4957   -9.2636   17.3041 C   0  0  0  0  0  0  0  0  0  0  0  0
   -1.8070   -5.6086   28.1920 O   0  0  0  0  0  0  0  0  0  0  0  0
   10.4296   -5.1799   28.3140 C   0  0  0  0  0  0  0  0  0  0  0  0
    6.6017   -5.9004   26.9187 C   0  0  0  0  0  0  0  0  0  0  0  0
    2.4761   -6.9940   26.4111 N   0  0  0  0  0  0  0  0  0  0  0  0
    9.1353   -5.4053   27.8239 C   0  0  0  0  0  0  0  0  0  0  0  0
    0.9922   -9.3232   16.5995 O   0  0  0  0  0  0  0  0  0  0  0  0
    1.5232   -7.6869   27.1182 C   0  0  0  0  0  0  0  0  0  0  0  0
    8.6878   -6.6715   27.7262 N   0  0  0  0  0  0  0  0  0  0  0  0
    6.9911   -8.2423   27.1808 C   0  0  0  0  0  0  0  0  0  0  0  0
    3.8436   -7.2758   16.0578 C   0  0  0  0  0  0  0  0  0  0  0  0
    3.1882   -9.7190   17.2566 C   0  0  0  0  0  0  0  0  0  0  0  0
    5.3488   -6.1737   26.5092 C   0  0  0  0  0  0  0  0  0  0  0  0
    7.4567   -6.9464   27.2858 C   0  0  0  0  0  0  0  0  0  0  0  0
    0.1921   -5.7592   27.1123 C   0  0  0  0  0  0  0  0  0  0  0  0
    3.5517   -7.7407   25.9711 C   0  0  0  0  0  0  0  0  0  0  0  0
  1  4  4  0
  1 22  4  0
  2 20  4  0
  2 27  4  0
  3 12  4  0
  3 23  4  0
  4 25  4  0
  4 28  1  0
  5  8  4  0
  5 17  4  0
  6  7  4  0
  6 16  4  0
  7 18  4  0
  8 27  4  0
  9 13  4  0
  9 23  4  0
 10 11  1  0
 11 14  2  0
 11 27  1  0
 12 19  1  0
 12 24  4  0
 13 24  4  0
 15 18  1  0
 16 25  4  0
 16 26  4  0
 17 20  4  0
 17 28  1  0
 18 21  4  0
 21 26  4  0
 22 26  4  0
M  END
$$$$

 Created by Python create_sdf_string function

 28 30  0  0  0  0  0  0  0  0999 V2000
    5.7174   -8.4529   26.7190 C   0  0  0  0  0  0  0  0  0  0  0  0
    0.3974   -7.0711   27.5149 C   0  0  0  0  0  0  0  0  0  0  0  0
    2.5338   -7.6891   16.0102 C   0  0  0  0  0  0  0  0  0  0  0  0
    4.8690   -7.4380   26.4151 C   0  0  0  0  0  0  0  0  0  0  0  0
    2.3021   -5.6726   26.0378 C   0  0  0  0  0  0  0  0  0  0  0  0
    7.0880   -4.6163   27.0010 C   0  0  0  0  0  0  0  0  0  0  0  0
    8.3117   -4.3698   27.4436 C   0  0  0  0  0  0  0  0  0  0  0  0
    1.1339   -5.0515   26.3541 C   0  0  0  0  0  0  0  0  0  0  0  0
    4.8080   -8.0362   16.7101 C   0  0  0  0  0  0  0  0  0  0  0  0
   -1.2173   -3.9294   26.9717 O   0  0  0  0  0  0  0  0  0  0  0  0
   -1.0025   -5.0942   27.4586 C   0  0  0  0  0  0  0  0  0  0  0  0
    2.2474   -8.9123   16.6273 C   0  0  0  0  0  0  0  0  0  0  0  0
    4.4957   -9.2636   17.3041 C   0  0  0  0  0  0  0  0  0  0  0  0
   -1.8070   -5.6086   28.1920 O   0  0  0  0  0  0  0  0  0  0  0  0
   10.4296   -5.1799   28.3140 C   0  0  0  0  0  0  0  0  0  0  0  0
    6.6017   -5.9004   26.9187 C   0  0  0  0  0  0  0  0  0  0  0  0
    2.4761   -6.9940   26.4111 N   0  0  0  0  0  0  0  0  0  0  0  0
    9.1353   -5.4053   27.8239 C   0  0  0  0  0  0  0  0  0  0  0  0
    0.9922   -9.3232   16.5995 O   0  0  0  0  0  0  0  0  0  0  0  0
    1.5232   -7.6869   27.1182 C   0  0  0  0  0  0  0  0  0  0  0  0
    8.6878   -6.6715   27.7262 N   0  0  0  0  0  0  0  0  0  0  0  0
    6.9911   -8.2423   27.1808 C   0  0  0  0  0  0  0  0  0  0  0  0
    3.8436   -7.2758   16.0578 C   0  0  0  0  0  0  0  0  0  0  0  0
    3.1882   -9.7190   17.2566 C   0  0  0  0  0  0  0  0  0  0  0  0
    5.3488   -6.1737   26.5092 C   0  0  0  0  0  0  0  0  0  0  0  0
    7.4567   -6.9464   27.2858 C   0  0  0  0  0  0  0  0  0  0  0  0
    0.1921   -5.7592   27.1123 C   0  0  0  0  0  0  0  0  0  0  0  0
    3.5517   -7.7407   25.9711 C   0  0  0  0  0  0  0  0  0  0  0  0
  1  4  4  0
  1 22  4  0
  2 20  4  0
  2 27  4  0
  3 12  4  0
  3 23  4  0
  4 25  4  0
  4 28  1  0
  5  8  4  0
  5 17  4  0
  6  7  4  0
  6 16  4  0
  7 18  4  0
  8 27  4  0
  9 13  4  0
  9 23  4  0
 10 11  1  0
 11 14  2  0
 11 27  1  0
 12 19  1  0
 12 24  4  0
 13 24  4  0
 15 18  1  0
 16 25  4  0
 16 26  4  0
 17 20  4  0
 17 28  1  0
 18 21  4  0
 21 26  4  0
 22 26  4  0
M  END
$$$$

 Created by Python create_sdf_string function

 28 30  0  0  0  0  0  0  0  0999 V2000
    5.7174   -8.4529   26.7190 C   0  0  0  0  0  0  0  0  0  0  0  0
    0.3974   -7.0711   27.5149 C   0  0  0  0  0  0  0  0  0  0  0  0
    2.5338   -7.6891   16.0102 C   0  0  0  0  0  0  0  0  0  0  0  0
    4.8690   -7.4380   26.4151 C   0  0  0  0  0  0  0  0  0  0  0  0
    2.3021   -5.6726   26.0378 C   0  0  0  0  0  0  0  0  0  0  0  0
    7.0880   -4.6163   27.0010 C   0  0  0  0  0  0  0  0  0  0  0  0
    8.3117   -4.3698   27.4436 C   0  0  0  0  0  0  0  0  0  0  0  0
    1.1339   -5.0515   26.3541 C   0  0  0  0  0  0  0  0  0  0  0  0
    4.8080   -8.0362   16.7101 C   0  0  0  0  0  0  0  0  0  0  0  0
   -1.2173   -3.9294   26.9717 O   0  0  0  0  0  0  0  0  0  0  0  0
   -1.0025   -5.0942   27.4586 C   0  0  0  0  0  0  0  0  0  0  0  0
    2.2474   -8.9123   16.6273 C   0  0  0  0  0  0  0  0  0  0  0  0
    4.4957   -9.2636   17.3041 C   0  0  0  0  0  0  0  0  0  0  0  0
   -1.8070   -5.6086   28.1920 O   0  0  0  0  0  0  0  0  0  0  0  0
   10.4296   -5.1799   28.3140 C   0  0  0  0  0  0  0  0  0  0  0  0
    6.6017   -5.9004   26.9187 C   0  0  0  0  0  0  0  0  0  0  0  0
    2.4761   -6.9940   26.4111 N   0  0  0  0  0  0  0  0  0  0  0  0
    9.1353   -5.4053   27.8239 C   0  0  0  0  0  0  0  0  0  0  0  0
    0.9922   -9.3232   16.5995 O   0  0  0  0  0  0  0  0  0  0  0  0
    1.5232   -7.6869   27.1182 C   0  0  0  0  0  0  0  0  0  0  0  0
    8.6878   -6.6715   27.7262 N   0  0  0  0  0  0  0  0  0  0  0  0
    6.9911   -8.2423   27.1808 C   0  0  0  0  0  0  0  0  0  0  0  0
    3.8436   -7.2758   16.0578 C   0  0  0  0  0  0  0  0  0  0  0  0
    3.1882   -9.7190   17.2566 C   0  0  0  0  0  0  0  0  0  0  0  0
    5.3488   -6.1737   26.5092 C   0  0  0  0  0  0  0  0  0  0  0  0
    7.4567   -6.9464   27.2858 C   0  0  0  0  0  0  0  0  0  0  0  0
    0.1921   -5.7592   27.1123 C   0  0  0  0  0  0  0  0  0  0  0  0
    3.5517   -7.7407   25.9711 C   0  0  0  0  0  0  0  0  0  0  0  0
  1  4  4  0
  1 22  4  0
  2 20  4  0
  2 27  4  0
  3 12  4  0
  3 23  4  0
  4 25  4  0
  4 28  1  0
  5  8  4  0
  5 17  4  0
  6  7  4  0
  6 16  4  0
  7 18  4  0
  8 27  4  0
  9 13  4  0
  9 23  4  0
 10 11  1  0
 11 14  2  0
 11 27  1  0
 12 19  1  0
 12 24  4  0
 13 24  4  0
 15 18  1  0
 16 25  4  0
 16 26  4  0
 17 20  4  0
 17 28  1  0
 18 21  4  0
 21 26  4  0
 22 26  4  0
M  END
$$$$

 Created by Python create_sdf_string function

 28 30  0  0  0  0  0  0  0  0999 V2000
    5.7174   -8.4529   26.7190 C   0  0  0  0  0  0  0  0  0  0  0  0
    0.3974   -7.0711   27.5149 C   0  0  0  0  0  0  0  0  0  0  0  0
    2.5338   -7.6891   16.0102 C   0  0  0  0  0  0  0  0  0  0  0  0
    4.8690   -7.4380   26.4151 C   0  0  0  0  0  0  0  0  0  0  0  0
    2.3021   -5.6726   26.0378 C   0  0  0  0  0  0  0  0  0  0  0  0
    7.0880   -4.6163   27.0010 C   0  0  0  0  0  0  0  0  0  0  0  0
    8.3117   -4.3698   27.4436 C   0  0  0  0  0  0  0  0  0  0  0  0
    1.1339   -5.0515   26.3541 C   0  0  0  0  0  0  0  0  0  0  0  0
    4.8080   -8.0362   16.7101 C   0  0  0  0  0  0  0  0  0  0  0  0
   -1.2173   -3.9294   26.9717 O   0  0  0  0  0  0  0  0  0  0  0  0
   -1.0025   -5.0942   27.4586 C   0  0  0  0  0  0  0  0  0  0  0  0
    2.2474   -8.9123   16.6273 C   0  0  0  0  0  0  0  0  0  0  0  0
    4.4957   -9.2636   17.3041 C   0  0  0  0  0  0  0  0  0  0  0  0
   -1.8070   -5.6086   28.1920 O   0  0  0  0  0  0  0  0  0  0  0  0
   10.4296   -5.1799   28.3140 C   0  0  0  0  0  0  0  0  0  0  0  0
    6.6017   -5.9004   26.9187 C   0  0  0  0  0  0  0  0  0  0  0  0
    2.4761   -6.9940   26.4111 N   0  0  0  0  0  0  0  0  0  0  0  0
    9.1353   -5.4053   27.8239 C   0  0  0  0  0  0  0  0  0  0  0  0
    0.9922   -9.3232   16.5995 O   0  0  0  0  0  0  0  0  0  0  0  0
    1.5232   -7.6869   27.1182 C   0  0  0  0  0  0  0  0  0  0  0  0
    8.6878   -6.6715   27.7262 N   0  0  0  0  0  0  0  0  0  0  0  0
    6.9911   -8.2423   27.1808 C   0  0  0  0  0  0  0  0  0  0  0  0
    3.8436   -7.2758   16.0578 C   0  0  0  0  0  0  0  0  0  0  0  0
    3.1882   -9.7190   17.2566 C   0  0  0  0  0  0  0  0  0  0  0  0
    5.3488   -6.1737   26.5092 C   0  0  0  0  0  0  0  0  0  0  0  0
    7.4567   -6.9464   27.2858 C   0  0  0  0  0  0  0  0  0  0  0  0
    0.1921   -5.7592   27.1123 C   0  0  0  0  0  0  0  0  0  0  0  0
    3.5517   -7.7407   25.9711 C   0  0  0  0  0  0  0  0  0  0  0  0
  1  4  4  0
  1 22  4  0
  2 20  4  0
  2 27  4  0
  3 12  4  0
  3 23  4  0
  4 25  4  0
  4 28  1  0
  5  8  4  0
  5 17  4  0
  6  7  4  0
  6 16  4  0
  7 18  4  0
  8 27  4  0
  9 13  4  0
  9 23  4  0
 10 11  1  0
 11 14  2  0
 11 27  1  0
 12 19  1  0
 12 24  4  0
 13 24  4  0
 15 18  1  0
 16 25  4  0
 16 26  4  0
 17 20  4  0
 17 28  1  0
 18 21  4  0
 21 26  4  0
 22 26  4  0
M  END
$$$$

 Created by Python create_sdf_string function

 28 30  0  0  0  0  0  0  0  0999 V2000
    5.7174   -8.4529   26.7190 C   0  0  0  0  0  0  0  0  0  0  0  0
    0.3974   -7.0711   27.5149 C   0  0  0  0  0  0  0  0  0  0  0  0
    2.5338   -7.6891   16.0102 C   0  0  0  0  0  0  0  0  0  0  0  0
    4.8690   -7.4380   26.4151 C   0  0  0  0  0  0  0  0  0  0  0  0
    2.3021   -5.6726   26.0378 C   0  0  0  0  0  0  0  0  0  0  0  0
    7.0880   -4.6163   27.0010 C   0  0  0  0  0  0  0  0  0  0  0  0
    8.3117   -4.3698   27.4436 C   0  0  0  0  0  0  0  0  0  0  0  0
    1.1339   -5.0515   26.3541 C   0  0  0  0  0  0  0  0  0  0  0  0
    4.8080   -8.0362   16.7101 C   0  0  0  0  0  0  0  0  0  0  0  0
   -1.2173   -3.9294   26.9717 O   0  0  0  0  0  0  0  0  0  0  0  0
   -1.0025   -5.0942   27.4586 C   0  0  0  0  0  0  0  0  0  0  0  0
    2.2474   -8.9123   16.6273 C   0  0  0  0  0  0  0  0  0  0  0  0
    4.4957   -9.2636   17.3041 C   0  0  0  0  0  0  0  0  0  0  0  0
   -1.8070   -5.6086   28.1920 O   0  0  0  0  0  0  0  0  0  0  0  0
   10.4296   -5.1799   28.3140 C   0  0  0  0  0  0  0  0  0  0  0  0
    6.6017   -5.9004   26.9187 C   0  0  0  0  0  0  0  0  0  0  0  0
    2.4761   -6.9940   26.4111 N   0  0  0  0  0  0  0  0  0  0  0  0
    9.1353   -5.4053   27.8239 C   0  0  0  0  0  0  0  0  0  0  0  0
    0.9922   -9.3232   16.5995 O   0  0  0  0  0  0  0  0  0  0  0  0
    1.5232   -7.6869   27.1182 C   0  0  0  0  0  0  0  0  0  0  0  0
    8.6878   -6.6715   27.7262 N   0  0  0  0  0  0  0  0  0  0  0  0
    6.9911   -8.2423   27.1808 C   0  0  0  0  0  0  0  0  0  0  0  0
    3.8436   -7.2758   16.0578 C   0  0  0  0  0  0  0  0  0  0  0  0
    3.1882   -9.7190   17.2566 C   0  0  0  0  0  0  0  0  0  0  0  0
    5.3488   -6.1737   26.5092 C   0  0  0  0  0  0  0  0  0  0  0  0
    7.4567   -6.9464   27.2858 C   0  0  0  0  0  0  0  0  0  0  0  0
    0.1921   -5.7592   27.1123 C   0  0  0  0  0  0  0  0  0  0  0  0
    3.5517   -7.7407   25.9711 C   0  0  0  0  0  0  0  0  0  0  0  0
  1  4  4  0
  1 22  4  0
  2 20  4  0
  2 27  4  0
  3 12  4  0
  3 23  4  0
  4 25  4  0
  4 28  1  0
  5  8  4  0
  5 17  4  0
  6  7  4  0
  6 16  4  0
  7 18  4  0
  8 27  4  0
  9 13  4  0
  9 23  4  0
 10 11  1  0
 11 14  2  0
 11 27  1  0
 12 19  1  0
 12 24  4  0
 13 24  4  0
 15 18  1  0
 16 25  4  0
 16 26  4  0
 17 20  4  0
 17 28  1  0
 18 21  4  0
 21 26  4  0
 22 26  4  0
M  END
$$$$

 Created by Python create_sdf_string function

 28 30  0  0  0  0  0  0  0  0999 V2000
    5.7174   -8.4529   26.7190 C   0  0  0  0  0  0  0  0  0  0  0  0
    0.3974   -7.0711   27.5149 C   0  0  0  0  0  0  0  0  0  0  0  0
    2.5338   -7.6891   16.0102 C   0  0  0  0  0  0  0  0  0  0  0  0
    4.8690   -7.4380   26.4151 C   0  0  0  0  0  0  0  0  0  0  0  0
    2.3021   -5.6726   26.0378 C   0  0  0  0  0  0  0  0  0  0  0  0
    7.0880   -4.6163   27.0010 C   0  0  0  0  0  0  0  0  0  0  0  0
    8.3117   -4.3698   27.4436 C   0  0  0  0  0  0  0  0  0  0  0  0
    1.1339   -5.0515   26.3541 C   0  0  0  0  0  0  0  0  0  0  0  0
    4.8080   -8.0362   16.7101 C   0  0  0  0  0  0  0  0  0  0  0  0
   -1.2173   -3.9294   26.9717 O   0  0  0  0  0  0  0  0  0  0  0  0
   -1.0025   -5.0942   27.4586 C   0  0  0  0  0  0  0  0  0  0  0  0
    2.2474   -8.9123   16.6273 C   0  0  0  0  0  0  0  0  0  0  0  0
    4.4957   -9.2636   17.3041 C   0  0  0  0  0  0  0  0  0  0  0  0
   -1.8070   -5.6086   28.1920 O   0  0  0  0  0  0  0  0  0  0  0  0
   10.4296   -5.1799   28.3140 C   0  0  0  0  0  0  0  0  0  0  0  0
    6.6017   -5.9004   26.9187 C   0  0  0  0  0  0  0  0  0  0  0  0
    2.4761   -6.9940   26.4111 N   0  0  0  0  0  0  0  0  0  0  0  0
    9.1353   -5.4053   27.8239 C   0  0  0  0  0  0  0  0  0  0  0  0
    0.9922   -9.3232   16.5995 O   0  0  0  0  0  0  0  0  0  0  0  0
    1.5232   -7.6869   27.1182 C   0  0  0  0  0  0  0  0  0  0  0  0
    8.6878   -6.6715   27.7262 N   0  0  0  0  0  0  0  0  0  0  0  0
    6.9911   -8.2423   27.1808 C   0  0  0  0  0  0  0  0  0  0  0  0
    3.8436   -7.2758   16.0578 C   0  0  0  0  0  0  0  0  0  0  0  0
    3.1882   -9.7190   17.2566 C   0  0  0  0  0  0  0  0  0  0  0  0
    5.3488   -6.1737   26.5092 C   0  0  0  0  0  0  0  0  0  0  0  0
    7.4567   -6.9464   27.2858 C   0  0  0  0  0  0  0  0  0  0  0  0
    0.1921   -5.7592   27.1123 C   0  0  0  0  0  0  0  0  0  0  0  0
    3.5517   -7.7407   25.9711 C   0  0  0  0  0  0  0  0  0  0  0  0
  1  4  4  0
  1 22  4  0
  2 20  4  0
  2 27  4  0
  3 12  4  0
  3 23  4  0
  4 25  4  0
  4 28  1  0
  5  8  4  0
  5 17  4  0
  6  7  4  0
  6 16  4  0
  7 18  4  0
  8 27  4  0
  9 13  4  0
  9 23  4  0
 10 11  1  0
 11 14  2  0
 11 27  1  0
 12 19  1  0
 12 24  4  0
 13 24  4  0
 15 18  1  0
 16 25  4  0
 16 26  4  0
 17 20  4  0
 17 28  1  0
 18 21  4  0
 21 26  4  0
 22 26  4  0
M  END
$$$$

 Created by Python create_sdf_string function

 28 30  0  0  0  0  0  0  0  0999 V2000
    5.7174   -8.4529   26.7190 C   0  0  0  0  0  0  0  0  0  0  0  0
    0.3974   -7.0711   27.5149 C   0  0  0  0  0  0  0  0  0  0  0  0
    2.5338   -7.6891   16.0102 C   0  0  0  0  0  0  0  0  0  0  0  0
    4.8690   -7.4380   26.4151 C   0  0  0  0  0  0  0  0  0  0  0  0
    2.3021   -5.6726   26.0378 C   0  0  0  0  0  0  0  0  0  0  0  0
    7.0880   -4.6163   27.0010 C   0  0  0  0  0  0  0  0  0  0  0  0
    8.3117   -4.3698   27.4436 C   0  0  0  0  0  0  0  0  0  0  0  0
    1.1339   -5.0515   26.3541 C   0  0  0  0  0  0  0  0  0  0  0  0
    4.8080   -8.0362   16.7101 C   0  0  0  0  0  0  0  0  0  0  0  0
   -1.2173   -3.9294   26.9717 O   0  0  0  0  0  0  0  0  0  0  0  0
   -1.0025   -5.0942   27.4586 C   0  0  0  0  0  0  0  0  0  0  0  0
    2.2474   -8.9123   16.6273 C   0  0  0  0  0  0  0  0  0  0  0  0
    4.4957   -9.2636   17.3041 C   0  0  0  0  0  0  0  0  0  0  0  0
   -1.8070   -5.6086   28.1920 O   0  0  0  0  0  0  0  0  0  0  0  0
   10.4296   -5.1799   28.3140 C   0  0  0  0  0  0  0  0  0  0  0  0
    6.6017   -5.9004   26.9187 C   0  0  0  0  0  0  0  0  0  0  0  0
    2.4761   -6.9940   26.4111 N   0  0  0  0  0  0  0  0  0  0  0  0
    9.1353   -5.4053   27.8239 C   0  0  0  0  0  0  0  0  0  0  0  0
    0.9922   -9.3232   16.5995 O   0  0  0  0  0  0  0  0  0  0  0  0
    1.5232   -7.6869   27.1182 C   0  0  0  0  0  0  0  0  0  0  0  0
    8.6878   -6.6715   27.7262 N   0  0  0  0  0  0  0  0  0  0  0  0
    6.9911   -8.2423   27.1808 C   0  0  0  0  0  0  0  0  0  0  0  0
    3.8436   -7.2758   16.0578 C   0  0  0  0  0  0  0  0  0  0  0  0
    3.1882   -9.7190   17.2566 C   0  0  0  0  0  0  0  0  0  0  0  0
    5.3488   -6.1737   26.5092 C   0  0  0  0  0  0  0  0  0  0  0  0
    7.4567   -6.9464   27.2858 C   0  0  0  0  0  0  0  0  0  0  0  0
    0.1921   -5.7592   27.1123 C   0  0  0  0  0  0  0  0  0  0  0  0
    3.5517   -7.7407   25.9711 C   0  0  0  0  0  0  0  0  0  0  0  0
  1  4  4  0
  1 22  4  0
  2 20  4  0
  2 27  4  0
  3 12  4  0
  3 23  4  0
  4 25  4  0
  4 28  1  0
  5  8  4  0
  5 17  4  0
  6  7  4  0
  6 16  4  0
  7 18  4  0
  8 27  4  0
  9 13  4  0
  9 23  4  0
 10 11  1  0
 11 14  2  0
 11 27  1  0
 12 19  1  0
 12 24  4  0
 13 24  4  0
 15 18  1  0
 16 25  4  0
 16 26  4  0
 17 20  4  0
 17 28  1  0
 18 21  4  0
 21 26  4  0
 22 26  4  0
M  END
$$$$

 Created by Python create_sdf_string function

 28 30  0  0  0  0  0  0  0  0999 V2000
    5.7174   -8.4529   26.7190 C   0  0  0  0  0  0  0  0  0  0  0  0
    0.3974   -7.0711   27.5149 C   0  0  0  0  0  0  0  0  0  0  0  0
    2.5338   -7.6891   16.0102 C   0  0  0  0  0  0  0  0  0  0  0  0
    4.8690   -7.4380   26.4151 C   0  0  0  0  0  0  0  0  0  0  0  0
    2.3021   -5.6726   26.0378 C   0  0  0  0  0  0  0  0  0  0  0  0
    7.0880   -4.6163   27.0010 C   0  0  0  0  0  0  0  0  0  0  0  0
    8.3117   -4.3698   27.4436 C   0  0  0  0  0  0  0  0  0  0  0  0
    1.1339   -5.0515   26.3541 C   0  0  0  0  0  0  0  0  0  0  0  0
    4.8080   -8.0362   16.7101 C   0  0  0  0  0  0  0  0  0  0  0  0
   -1.2173   -3.9294   26.9717 O   0  0  0  0  0  0  0  0  0  0  0  0
   -1.0025   -5.0942   27.4586 C   0  0  0  0  0  0  0  0  0  0  0  0
    2.2474   -8.9123   16.6273 C   0  0  0  0  0  0  0  0  0  0  0  0
    4.4957   -9.2636   17.3041 C   0  0  0  0  0  0  0  0  0  0  0  0
   -1.8070   -5.6086   28.1920 O   0  0  0  0  0  0  0  0  0  0  0  0
   10.4296   -5.1799   28.3140 C   0  0  0  0  0  0  0  0  0  0  0  0
    6.6017   -5.9004   26.9187 C   0  0  0  0  0  0  0  0  0  0  0  0
    2.4761   -6.9940   26.4111 N   0  0  0  0  0  0  0  0  0  0  0  0
    9.1353   -5.4053   27.8239 C   0  0  0  0  0  0  0  0  0  0  0  0
    0.9922   -9.3232   16.5995 O   0  0  0  0  0  0  0  0  0  0  0  0
    1.5232   -7.6869   27.1182 C   0  0  0  0  0  0  0  0  0  0  0  0
    8.6878   -6.6715   27.7262 N   0  0  0  0  0  0  0  0  0  0  0  0
    6.9911   -8.2423   27.1808 C   0  0  0  0  0  0  0  0  0  0  0  0
    3.8436   -7.2758   16.0578 C   0  0  0  0  0  0  0  0  0  0  0  0
    3.1882   -9.7190   17.2566 C   0  0  0  0  0  0  0  0  0  0  0  0
    5.3488   -6.1737   26.5092 C   0  0  0  0  0  0  0  0  0  0  0  0
    7.4567   -6.9464   27.2858 C   0  0  0  0  0  0  0  0  0  0  0  0
    0.1921   -5.7592   27.1123 C   0  0  0  0  0  0  0  0  0  0  0  0
    3.5517   -7.7407   25.9711 C   0  0  0  0  0  0  0  0  0  0  0  0
  1  4  4  0
  1 22  4  0
  2 20  4  0
  2 27  4  0
  3 12  4  0
  3 23  4  0
  4 25  4  0
  4 28  1  0
  5  8  4  0
  5 17  4  0
  6  7  4  0
  6 16  4  0
  7 18  4  0
  8 27  4  0
  9 13  4  0
  9 23  4  0
 10 11  1  0
 11 14  2  0
 11 27  1  0
 12 19  1  0
 12 24  4  0
 13 24  4  0
 15 18  1  0
 16 25  4  0
 16 26  4  0
 17 20  4  0
 17 28  1  0
 18 21  4  0
 21 26  4  0
 22 26  4  0
M  END
$$$$

 Created by Python create_sdf_string function

 28 30  0  0  0  0  0  0  0  0999 V2000
    5.7174   -8.4529   26.7190 C   0  0  0  0  0  0  0  0  0  0  0  0
    0.3974   -7.0711   27.5149 C   0  0  0  0  0  0  0  0  0  0  0  0
    2.5338   -7.6891   16.0102 C   0  0  0  0  0  0  0  0  0  0  0  0
    4.8690   -7.4380   26.4151 C   0  0  0  0  0  0  0  0  0  0  0  0
    2.3021   -5.6726   26.0378 C   0  0  0  0  0  0  0  0  0  0  0  0
    7.0880   -4.6163   27.0010 C   0  0  0  0  0  0  0  0  0  0  0  0
    8.3117   -4.3698   27.4436 C   0  0  0  0  0  0  0  0  0  0  0  0
    1.1339   -5.0515   26.3541 C   0  0  0  0  0  0  0  0  0  0  0  0
    4.8080   -8.0362   16.7101 C   0  0  0  0  0  0  0  0  0  0  0  0
   -1.2173   -3.9294   26.9717 O   0  0  0  0  0  0  0  0  0  0  0  0
   -1.0025   -5.0942   27.4586 C   0  0  0  0  0  0  0  0  0  0  0  0
    2.2474   -8.9123   16.6273 C   0  0  0  0  0  0  0  0  0  0  0  0
    4.4957   -9.2636   17.3041 C   0  0  0  0  0  0  0  0  0  0  0  0
   -1.8070   -5.6086   28.1920 O   0  0  0  0  0  0  0  0  0  0  0  0
   10.4296   -5.1799   28.3140 C   0  0  0  0  0  0  0  0  0  0  0  0
    6.6017   -5.9004   26.9187 C   0  0  0  0  0  0  0  0  0  0  0  0
    2.4761   -6.9940   26.4111 N   0  0  0  0  0  0  0  0  0  0  0  0
    9.1353   -5.4053   27.8239 C   0  0  0  0  0  0  0  0  0  0  0  0
    0.9922   -9.3232   16.5995 O   0  0  0  0  0  0  0  0  0  0  0  0
    1.5232   -7.6869   27.1182 C   0  0  0  0  0  0  0  0  0  0  0  0
    8.6878   -6.6715   27.7262 N   0  0  0  0  0  0  0  0  0  0  0  0
    6.9911   -8.2423   27.1808 C   0  0  0  0  0  0  0  0  0  0  0  0
    3.8436   -7.2758   16.0578 C   0  0  0  0  0  0  0  0  0  0  0  0
    3.1882   -9.7190   17.2566 C   0  0  0  0  0  0  0  0  0  0  0  0
    5.3488   -6.1737   26.5092 C   0  0  0  0  0  0  0  0  0  0  0  0
    7.4567   -6.9464   27.2858 C   0  0  0  0  0  0  0  0  0  0  0  0
    0.1921   -5.7592   27.1123 C   0  0  0  0  0  0  0  0  0  0  0  0
    3.5517   -7.7407   25.9711 C   0  0  0  0  0  0  0  0  0  0  0  0
  1  4  4  0
  1 22  4  0
  2 20  4  0
  2 27  4  0
  3 12  4  0
  3 23  4  0
  4 25  4  0
  4 28  1  0
  5  8  4  0
  5 17  4  0
  6  7  4  0
  6 16  4  0
  7 18  4  0
  8 27  4  0
  9 13  4  0
  9 23  4  0
 10 11  1  0
 11 14  2  0
 11 27  1  0
 12 19  1  0
 12 24  4  0
 13 24  4  0
 15 18  1  0
 16 25  4  0
 16 26  4  0
 17 20  4  0
 17 28  1  0
 18 21  4  0
 21 26  4  0
 22 26  4  0
M  END
$$$$

 Created by Python create_sdf_string function

 28 30  0  0  0  0  0  0  0  0999 V2000
    5.7174   -8.4529   26.7190 C   0  0  0  0  0  0  0  0  0  0  0  0
    0.3974   -7.0711   27.5149 C   0  0  0  0  0  0  0  0  0  0  0  0
    2.5338   -7.6891   16.0102 C   0  0  0  0  0  0  0  0  0  0  0  0
    4.8690   -7.4380   26.4151 C   0  0  0  0  0  0  0  0  0  0  0  0
    2.3021   -5.6726   26.0378 C   0  0  0  0  0  0  0  0  0  0  0  0
    7.0880   -4.6163   27.0010 C   0  0  0  0  0  0  0  0  0  0  0  0
    8.3117   -4.3698   27.4436 C   0  0  0  0  0  0  0  0  0  0  0  0
    1.1339   -5.0515   26.3541 C   0  0  0  0  0  0  0  0  0  0  0  0
    4.8080   -8.0362   16.7101 C   0  0  0  0  0  0  0  0  0  0  0  0
   -1.2173   -3.9294   26.9717 O   0  0  0  0  0  0  0  0  0  0  0  0
   -1.0025   -5.0942   27.4586 C   0  0  0  0  0  0  0  0  0  0  0  0
    2.2474   -8.9123   16.6273 C   0  0  0  0  0  0  0  0  0  0  0  0
    4.4957   -9.2636   17.3041 C   0  0  0  0  0  0  0  0  0  0  0  0
   -1.8070   -5.6086   28.1920 O   0  0  0  0  0  0  0  0  0  0  0  0
   10.4296   -5.1799   28.3140 C   0  0  0  0  0  0  0  0  0  0  0  0
    6.6017   -5.9004   26.9187 C   0  0  0  0  0  0  0  0  0  0  0  0
    2.4761   -6.9940   26.4111 N   0  0  0  0  0  0  0  0  0  0  0  0
    9.1353   -5.4053   27.8239 C   0  0  0  0  0  0  0  0  0  0  0  0
    0.9922   -9.3232   16.5995 O   0  0  0  0  0  0  0  0  0  0  0  0
    1.5232   -7.6869   27.1182 C   0  0  0  0  0  0  0  0  0  0  0  0
    8.6878   -6.6715   27.7262 N   0  0  0  0  0  0  0  0  0  0  0  0
    6.9911   -8.2423   27.1808 C   0  0  0  0  0  0  0  0  0  0  0  0
    3.8436   -7.2758   16.0578 C   0  0  0  0  0  0  0  0  0  0  0  0
    3.1882   -9.7190   17.2566 C   0  0  0  0  0  0  0  0  0  0  0  0
    5.3488   -6.1737   26.5092 C   0  0  0  0  0  0  0  0  0  0  0  0
    7.4567   -6.9464   27.2858 C   0  0  0  0  0  0  0  0  0  0  0  0
    0.1921   -5.7592   27.1123 C   0  0  0  0  0  0  0  0  0  0  0  0
    3.5517   -7.7407   25.9711 C   0  0  0  0  0  0  0  0  0  0  0  0
  1  4  4  0
  1 22  4  0
  2 20  4  0
  2 27  4  0
  3 12  4  0
  3 23  4  0
  4 25  4  0
  4 28  1  0
  5  8  4  0
  5 17  4  0
  6  7  4  0
  6 16  4  0
  7 18  4  0
  8 27  4  0
  9 13  4  0
  9 23  4  0
 10 11  1  0
 11 14  2  0
 11 27  1  0
 12 19  1  0
 12 24  4  0
 13 24  4  0
 15 18  1  0
 16 25  4  0
 16 26  4  0
 17 20  4  0
 17 28  1  0
 18 21  4  0
 21 26  4  0
 22 26  4  0
M  END
$$$$

 Created by Python create_sdf_string function

 28 30  0  0  0  0  0  0  0  0999 V2000
    5.7174   -8.4529   26.7190 C   0  0  0  0  0  0  0  0  0  0  0  0
    0.3974   -7.0711   27.5149 C   0  0  0  0  0  0  0  0  0  0  0  0
    2.5338   -7.6891   16.0102 C   0  0  0  0  0  0  0  0  0  0  0  0
    4.8690   -7.4380   26.4151 C   0  0  0  0  0  0  0  0  0  0  0  0
    2.3021   -5.6726   26.0378 C   0  0  0  0  0  0  0  0  0  0  0  0
    7.0880   -4.6163   27.0010 C   0  0  0  0  0  0  0  0  0  0  0  0
    8.3117   -4.3698   27.4436 C   0  0  0  0  0  0  0  0  0  0  0  0
    1.1339   -5.0515   26.3541 C   0  0  0  0  0  0  0  0  0  0  0  0
    4.8080   -8.0362   16.7101 C   0  0  0  0  0  0  0  0  0  0  0  0
   -1.2173   -3.9294   26.9717 O   0  0  0  0  0  0  0  0  0  0  0  0
   -1.0025   -5.0942   27.4586 C   0  0  0  0  0  0  0  0  0  0  0  0
    2.2474   -8.9123   16.6273 C   0  0  0  0  0  0  0  0  0  0  0  0
    4.4957   -9.2636   17.3041 C   0  0  0  0  0  0  0  0  0  0  0  0
   -1.8070   -5.6086   28.1920 O   0  0  0  0  0  0  0  0  0  0  0  0
   10.4296   -5.1799   28.3140 C   0  0  0  0  0  0  0  0  0  0  0  0
    6.6017   -5.9004   26.9187 C   0  0  0  0  0  0  0  0  0  0  0  0
    2.4761   -6.9940   26.4111 N   0  0  0  0  0  0  0  0  0  0  0  0
    9.1353   -5.4053   27.8239 C   0  0  0  0  0  0  0  0  0  0  0  0
    0.9922   -9.3232   16.5995 O   0  0  0  0  0  0  0  0  0  0  0  0
    1.5232   -7.6869   27.1182 C   0  0  0  0  0  0  0  0  0  0  0  0
    8.6878   -6.6715   27.7262 N   0  0  0  0  0  0  0  0  0  0  0  0
    6.9911   -8.2423   27.1808 C   0  0  0  0  0  0  0  0  0  0  0  0
    3.8436   -7.2758   16.0578 C   0  0  0  0  0  0  0  0  0  0  0  0
    3.1882   -9.7190   17.2566 C   0  0  0  0  0  0  0  0  0  0  0  0
    5.3488   -6.1737   26.5092 C   0  0  0  0  0  0  0  0  0  0  0  0
    7.4567   -6.9464   27.2858 C   0  0  0  0  0  0  0  0  0  0  0  0
    0.1921   -5.7592   27.1123 C   0  0  0  0  0  0  0  0  0  0  0  0
    3.5517   -7.7407   25.9711 C   0  0  0  0  0  0  0  0  0  0  0  0
  1  4  4  0
  1 22  4  0
  2 20  4  0
  2 27  4  0
  3 12  4  0
  3 23  4  0
  4 25  4  0
  4 28  1  0
  5  8  4  0
  5 17  4  0
  6  7  4  0
  6 16  4  0
  7 18  4  0
  8 27  4  0
  9 13  4  0
  9 23  4  0
 10 11  1  0
 11 14  2  0
 11 27  1  0
 12 19  1  0
 12 24  4  0
 13 24  4  0
 15 18  1  0
 16 25  4  0
 16 26  4  0
 17 20  4  0
 17 28  1  0
 18 21  4  0
 21 26  4  0
 22 26  4  0
M  END
$$$$

 Created by Python create_sdf_string function

 28 30  0  0  0  0  0  0  0  0999 V2000
    5.7174   -8.4529   26.7190 C   0  0  0  0  0  0  0  0  0  0  0  0
    0.3974   -7.0711   27.5149 C   0  0  0  0  0  0  0  0  0  0  0  0
    2.5338   -7.6891   16.0102 C   0  0  0  0  0  0  0  0  0  0  0  0
    4.8690   -7.4380   26.4151 C   0  0  0  0  0  0  0  0  0  0  0  0
    2.3021   -5.6726   26.0378 C   0  0  0  0  0  0  0  0  0  0  0  0
    7.0880   -4.6163   27.0010 C   0  0  0  0  0  0  0  0  0  0  0  0
    8.3117   -4.3698   27.4436 C   0  0  0  0  0  0  0  0  0  0  0  0
    1.1339   -5.0515   26.3541 C   0  0  0  0  0  0  0  0  0  0  0  0
    4.8080   -8.0362   16.7101 C   0  0  0  0  0  0  0  0  0  0  0  0
   -1.2173   -3.9294   26.9717 O   0  0  0  0  0  0  0  0  0  0  0  0
   -1.0025   -5.0942   27.4586 C   0  0  0  0  0  0  0  0  0  0  0  0
    2.2474   -8.9123   16.6273 C   0  0  0  0  0  0  0  0  0  0  0  0
    4.4957   -9.2636   17.3041 C   0  0  0  0  0  0  0  0  0  0  0  0
   -1.8070   -5.6086   28.1920 O   0  0  0  0  0  0  0  0  0  0  0  0
   10.4296   -5.1799   28.3140 C   0  0  0  0  0  0  0  0  0  0  0  0
    6.6017   -5.9004   26.9187 C   0  0  0  0  0  0  0  0  0  0  0  0
    2.4761   -6.9940   26.4111 N   0  0  0  0  0  0  0  0  0  0  0  0
    9.1353   -5.4053   27.8239 C   0  0  0  0  0  0  0  0  0  0  0  0
    0.9922   -9.3232   16.5995 O   0  0  0  0  0  0  0  0  0  0  0  0
    1.5232   -7.6869   27.1182 C   0  0  0  0  0  0  0  0  0  0  0  0
    8.6878   -6.6715   27.7262 N   0  0  0  0  0  0  0  0  0  0  0  0
    6.9911   -8.2423   27.1808 C   0  0  0  0  0  0  0  0  0  0  0  0
    3.8436   -7.2758   16.0578 C   0  0  0  0  0  0  0  0  0  0  0  0
    3.1882   -9.7190   17.2566 C   0  0  0  0  0  0  0  0  0  0  0  0
    5.3488   -6.1737   26.5092 C   0  0  0  0  0  0  0  0  0  0  0  0
    7.4567   -6.9464   27.2858 C   0  0  0  0  0  0  0  0  0  0  0  0
    0.1921   -5.7592   27.1123 C   0  0  0  0  0  0  0  0  0  0  0  0
    3.5517   -7.7407   25.9711 C   0  0  0  0  0  0  0  0  0  0  0  0
  1  4  4  0
  1 22  4  0
  2 20  4  0
  2 27  4  0
  3 12  4  0
  3 23  4  0
  4 25  4  0
  4 28  1  0
  5  8  4  0
  5 17  4  0
  6  7  4  0
  6 16  4  0
  7 18  4  0
  8 27  4  0
  9 13  4  0
  9 23  4  0
 10 11  1  0
 11 14  2  0
 11 27  1  0
 12 19  1  0
 12 24  4  0
 13 24  4  0
 15 18  1  0
 16 25  4  0
 16 26  4  0
 17 20  4  0
 17 28  1  0
 18 21  4  0
 21 26  4  0
 22 26  4  0
M  END
$$$$

 Created by Python create_sdf_string function

 28 30  0  0  0  0  0  0  0  0999 V2000
    5.7174   -8.4529   26.7190 C   0  0  0  0  0  0  0  0  0  0  0  0
    0.3974   -7.0711   27.5149 C   0  0  0  0  0  0  0  0  0  0  0  0
    2.5338   -7.6891   16.0102 C   0  0  0  0  0  0  0  0  0  0  0  0
    4.8690   -7.4380   26.4151 C   0  0  0  0  0  0  0  0  0  0  0  0
    2.3021   -5.6726   26.0378 C   0  0  0  0  0  0  0  0  0  0  0  0
    7.0880   -4.6163   27.0010 C   0  0  0  0  0  0  0  0  0  0  0  0
    8.3117   -4.3698   27.4436 C   0  0  0  0  0  0  0  0  0  0  0  0
    1.1339   -5.0515   26.3541 C   0  0  0  0  0  0  0  0  0  0  0  0
    4.8080   -8.0362   16.7101 C   0  0  0  0  0  0  0  0  0  0  0  0
   -1.2173   -3.9294   26.9717 O   0  0  0  0  0  0  0  0  0  0  0  0
   -1.0025   -5.0942   27.4586 C   0  0  0  0  0  0  0  0  0  0  0  0
    2.2474   -8.9123   16.6273 C   0  0  0  0  0  0  0  0  0  0  0  0
    4.4957   -9.2636   17.3041 C   0  0  0  0  0  0  0  0  0  0  0  0
   -1.8070   -5.6086   28.1920 O   0  0  0  0  0  0  0  0  0  0  0  0
   10.4296   -5.1799   28.3140 C   0  0  0  0  0  0  0  0  0  0  0  0
    6.6017   -5.9004   26.9187 C   0  0  0  0  0  0  0  0  0  0  0  0
    2.4761   -6.9940   26.4111 N   0  0  0  0  0  0  0  0  0  0  0  0
    9.1353   -5.4053   27.8239 C   0  0  0  0  0  0  0  0  0  0  0  0
    0.9922   -9.3232   16.5995 O   0  0  0  0  0  0  0  0  0  0  0  0
    1.5232   -7.6869   27.1182 C   0  0  0  0  0  0  0  0  0  0  0  0
    8.6878   -6.6715   27.7262 N   0  0  0  0  0  0  0  0  0  0  0  0
    6.9911   -8.2423   27.1808 C   0  0  0  0  0  0  0  0  0  0  0  0
    3.8436   -7.2758   16.0578 C   0  0  0  0  0  0  0  0  0  0  0  0
    3.1882   -9.7190   17.2566 C   0  0  0  0  0  0  0  0  0  0  0  0
    5.3488   -6.1737   26.5092 C   0  0  0  0  0  0  0  0  0  0  0  0
    7.4567   -6.9464   27.2858 C   0  0  0  0  0  0  0  0  0  0  0  0
    0.1921   -5.7592   27.1123 C   0  0  0  0  0  0  0  0  0  0  0  0
    3.5517   -7.7407   25.9711 C   0  0  0  0  0  0  0  0  0  0  0  0
  1  4  4  0
  1 22  4  0
  2 20  4  0
  2 27  4  0
  3 12  4  0
  3 23  4  0
  4 25  4  0
  4 28  1  0
  5  8  4  0
  5 17  4  0
  6  7  4  0
  6 16  4  0
  7 18  4  0
  8 27  4  0
  9 13  4  0
  9 23  4  0
 10 11  1  0
 11 14  2  0
 11 27  1  0
 12 19  1  0
 12 24  4  0
 13 24  4  0
 15 18  1  0
 16 25  4  0
 16 26  4  0
 17 20  4  0
 17 28  1  0
 18 21  4  0
 21 26  4  0
 22 26  4  0
M  END
$$$$

 Created by Python create_sdf_string function

 28 30  0  0  0  0  0  0  0  0999 V2000
    5.7174   -8.4529   26.7190 C   0  0  0  0  0  0  0  0  0  0  0  0
    0.3974   -7.0711   27.5149 C   0  0  0  0  0  0  0  0  0  0  0  0
    2.5338   -7.6891   16.0102 C   0  0  0  0  0  0  0  0  0  0  0  0
    4.8690   -7.4380   26.4151 C   0  0  0  0  0  0  0  0  0  0  0  0
    2.3021   -5.6726   26.0378 C   0  0  0  0  0  0  0  0  0  0  0  0
    7.0880   -4.6163   27.0010 C   0  0  0  0  0  0  0  0  0  0  0  0
    8.3117   -4.3698   27.4436 C   0  0  0  0  0  0  0  0  0  0  0  0
    1.1339   -5.0515   26.3541 C   0  0  0  0  0  0  0  0  0  0  0  0
    4.8080   -8.0362   16.7101 C   0  0  0  0  0  0  0  0  0  0  0  0
   -1.2173   -3.9294   26.9717 O   0  0  0  0  0  0  0  0  0  0  0  0
   -1.0025   -5.0942   27.4586 C   0  0  0  0  0  0  0  0  0  0  0  0
    2.2474   -8.9123   16.6273 C   0  0  0  0  0  0  0  0  0  0  0  0
    4.4957   -9.2636   17.3041 C   0  0  0  0  0  0  0  0  0  0  0  0
   -1.8070   -5.6086   28.1920 O   0  0  0  0  0  0  0  0  0  0  0  0
   10.4296   -5.1799   28.3140 C   0  0  0  0  0  0  0  0  0  0  0  0
    6.6017   -5.9004   26.9187 C   0  0  0  0  0  0  0  0  0  0  0  0
    2.4761   -6.9940   26.4111 N   0  0  0  0  0  0  0  0  0  0  0  0
    9.1353   -5.4053   27.8239 C   0  0  0  0  0  0  0  0  0  0  0  0
    0.9922   -9.3232   16.5995 O   0  0  0  0  0  0  0  0  0  0  0  0
    1.5232   -7.6869   27.1182 C   0  0  0  0  0  0  0  0  0  0  0  0
    8.6878   -6.6715   27.7262 N   0  0  0  0  0  0  0  0  0  0  0  0
    6.9911   -8.2423   27.1808 C   0  0  0  0  0  0  0  0  0  0  0  0
    3.8436   -7.2758   16.0578 C   0  0  0  0  0  0  0  0  0  0  0  0
    3.1882   -9.7190   17.2566 C   0  0  0  0  0  0  0  0  0  0  0  0
    5.3488   -6.1737   26.5092 C   0  0  0  0  0  0  0  0  0  0  0  0
    7.4567   -6.9464   27.2858 C   0  0  0  0  0  0  0  0  0  0  0  0
    0.1921   -5.7592   27.1123 C   0  0  0  0  0  0  0  0  0  0  0  0
    3.5517   -7.7407   25.9711 C   0  0  0  0  0  0  0  0  0  0  0  0
  1  4  4  0
  1 22  4  0
  2 20  4  0
  2 27  4  0
  3 12  4  0
  3 23  4  0
  4 25  4  0
  4 28  1  0
  5  8  4  0
  5 17  4  0
  6  7  4  0
  6 16  4  0
  7 18  4  0
  8 27  4  0
  9 13  4  0
  9 23  4  0
 10 11  1  0
 11 14  2  0
 11 27  1  0
 12 19  1  0
 12 24  4  0
 13 24  4  0
 15 18  1  0
 16 25  4  0
 16 26  4  0
 17 20  4  0
 17 28  1  0
 18 21  4  0
 21 26  4  0
 22 26  4  0
M  END
$$$$

 Created by Python create_sdf_string function

 28 30  0  0  0  0  0  0  0  0999 V2000
    5.7174   -8.4529   26.7190 C   0  0  0  0  0  0  0  0  0  0  0  0
    0.3974   -7.0711   27.5149 C   0  0  0  0  0  0  0  0  0  0  0  0
    2.5338   -7.6891   16.0102 C   0  0  0  0  0  0  0  0  0  0  0  0
    4.8690   -7.4380   26.4151 C   0  0  0  0  0  0  0  0  0  0  0  0
    2.3021   -5.6726   26.0378 C   0  0  0  0  0  0  0  0  0  0  0  0
    7.0880   -4.6163   27.0010 C   0  0  0  0  0  0  0  0  0  0  0  0
    8.3117   -4.3698   27.4436 C   0  0  0  0  0  0  0  0  0  0  0  0
    1.1339   -5.0515   26.3541 C   0  0  0  0  0  0  0  0  0  0  0  0
    4.8080   -8.0362   16.7101 C   0  0  0  0  0  0  0  0  0  0  0  0
   -1.2173   -3.9294   26.9717 O   0  0  0  0  0  0  0  0  0  0  0  0
   -1.0025   -5.0942   27.4586 C   0  0  0  0  0  0  0  0  0  0  0  0
    2.2474   -8.9123   16.6273 C   0  0  0  0  0  0  0  0  0  0  0  0
    4.4957   -9.2636   17.3041 C   0  0  0  0  0  0  0  0  0  0  0  0
   -1.8070   -5.6086   28.1920 O   0  0  0  0  0  0  0  0  0  0  0  0
   10.4296   -5.1799   28.3140 C   0  0  0  0  0  0  0  0  0  0  0  0
    6.6017   -5.9004   26.9187 C   0  0  0  0  0  0  0  0  0  0  0  0
    2.4761   -6.9940   26.4111 N   0  0  0  0  0  0  0  0  0  0  0  0
    9.1353   -5.4053   27.8239 C   0  0  0  0  0  0  0  0  0  0  0  0
    0.9922   -9.3232   16.5995 O   0  0  0  0  0  0  0  0  0  0  0  0
    1.5232   -7.6869   27.1182 C   0  0  0  0  0  0  0  0  0  0  0  0
    8.6878   -6.6715   27.7262 N   0  0  0  0  0  0  0  0  0  0  0  0
    6.9911   -8.2423   27.1808 C   0  0  0  0  0  0  0  0  0  0  0  0
    3.8436   -7.2758   16.0578 C   0  0  0  0  0  0  0  0  0  0  0  0
    3.1882   -9.7190   17.2566 C   0  0  0  0  0  0  0  0  0  0  0  0
    5.3488   -6.1737   26.5092 C   0  0  0  0  0  0  0  0  0  0  0  0
    7.4567   -6.9464   27.2858 C   0  0  0  0  0  0  0  0  0  0  0  0
    0.1921   -5.7592   27.1123 C   0  0  0  0  0  0  0  0  0  0  0  0
    3.5517   -7.7407   25.9711 C   0  0  0  0  0  0  0  0  0  0  0  0
  1  4  4  0
  1 22  4  0
  2 20  4  0
  2 27  4  0
  3 12  4  0
  3 23  4  0
  4 25  4  0
  4 28  1  0
  5  8  4  0
  5 17  4  0
  6  7  4  0
  6 16  4  0
  7 18  4  0
  8 27  4  0
  9 13  4  0
  9 23  4  0
 10 11  1  0
 11 14  2  0
 11 27  1  0
 12 19  1  0
 12 24  4  0
 13 24  4  0
 15 18  1  0
 16 25  4  0
 16 26  4  0
 17 20  4  0
 17 28  1  0
 18 21  4  0
 21 26  4  0
 22 26  4  0
M  END
$$$$

 Created by Python create_sdf_string function

 28 30  0  0  0  0  0  0  0  0999 V2000
    5.7174   -8.4529   26.7190 C   0  0  0  0  0  0  0  0  0  0  0  0
    0.3974   -7.0711   27.5149 C   0  0  0  0  0  0  0  0  0  0  0  0
    2.5338   -7.6891   16.0102 C   0  0  0  0  0  0  0  0  0  0  0  0
    4.8690   -7.4380   26.4151 C   0  0  0  0  0  0  0  0  0  0  0  0
    2.3021   -5.6726   26.0378 C   0  0  0  0  0  0  0  0  0  0  0  0
    7.0880   -4.6163   27.0010 C   0  0  0  0  0  0  0  0  0  0  0  0
    8.3117   -4.3698   27.4436 C   0  0  0  0  0  0  0  0  0  0  0  0
    1.1339   -5.0515   26.3541 C   0  0  0  0  0  0  0  0  0  0  0  0
    4.8080   -8.0362   16.7101 C   0  0  0  0  0  0  0  0  0  0  0  0
   -1.2173   -3.9294   26.9717 O   0  0  0  0  0  0  0  0  0  0  0  0
   -1.0025   -5.0942   27.4586 C   0  0  0  0  0  0  0  0  0  0  0  0
    2.2474   -8.9123   16.6273 C   0  0  0  0  0  0  0  0  0  0  0  0
    4.4957   -9.2636   17.3041 C   0  0  0  0  0  0  0  0  0  0  0  0
   -1.8070   -5.6086   28.1920 O   0  0  0  0  0  0  0  0  0  0  0  0
   10.4296   -5.1799   28.3140 C   0  0  0  0  0  0  0  0  0  0  0  0
    6.6017   -5.9004   26.9187 C   0  0  0  0  0  0  0  0  0  0  0  0
    2.4761   -6.9940   26.4111 N   0  0  0  0  0  0  0  0  0  0  0  0
    9.1353   -5.4053   27.8239 C   0  0  0  0  0  0  0  0  0  0  0  0
    0.9922   -9.3232   16.5995 O   0  0  0  0  0  0  0  0  0  0  0  0
    1.5232   -7.6869   27.1182 C   0  0  0  0  0  0  0  0  0  0  0  0
    8.6878   -6.6715   27.7262 N   0  0  0  0  0  0  0  0  0  0  0  0
    6.9911   -8.2423   27.1808 C   0  0  0  0  0  0  0  0  0  0  0  0
    3.8436   -7.2758   16.0578 C   0  0  0  0  0  0  0  0  0  0  0  0
    3.1882   -9.7190   17.2566 C   0  0  0  0  0  0  0  0  0  0  0  0
    5.3488   -6.1737   26.5092 C   0  0  0  0  0  0  0  0  0  0  0  0
    7.4567   -6.9464   27.2858 C   0  0  0  0  0  0  0  0  0  0  0  0
    0.1921   -5.7592   27.1123 C   0  0  0  0  0  0  0  0  0  0  0  0
    3.5517   -7.7407   25.9711 C   0  0  0  0  0  0  0  0  0  0  0  0
  1  4  4  0
  1 22  4  0
  2 20  4  0
  2 27  4  0
  3 12  4  0
  3 23  4  0
  4 25  4  0
  4 28  1  0
  5  8  4  0
  5 17  4  0
  6  7  4  0
  6 16  4  0
  7 18  4  0
  8 27  4  0
  9 13  4  0
  9 23  4  0
 10 11  1  0
 11 14  2  0
 11 27  1  0
 12 19  1  0
 12 24  4  0
 13 24  4  0
 15 18  1  0
 16 25  4  0
 16 26  4  0
 17 20  4  0
 17 28  1  0
 18 21  4  0
 21 26  4  0
 22 26  4  0
M  END
$$$$

 Created by Python create_sdf_string function

 28 30  0  0  0  0  0  0  0  0999 V2000
    5.7174   -8.4529   26.7190 C   0  0  0  0  0  0  0  0  0  0  0  0
    0.3974   -7.0711   27.5149 C   0  0  0  0  0  0  0  0  0  0  0  0
    2.5338   -7.6891   16.0102 C   0  0  0  0  0  0  0  0  0  0  0  0
    4.8690   -7.4380   26.4151 C   0  0  0  0  0  0  0  0  0  0  0  0
    2.3021   -5.6726   26.0378 C   0  0  0  0  0  0  0  0  0  0  0  0
    7.0880   -4.6163   27.0010 C   0  0  0  0  0  0  0  0  0  0  0  0
    8.3117   -4.3698   27.4436 C   0  0  0  0  0  0  0  0  0  0  0  0
    1.1339   -5.0515   26.3541 C   0  0  0  0  0  0  0  0  0  0  0  0
    4.8080   -8.0362   16.7101 C   0  0  0  0  0  0  0  0  0  0  0  0
   -1.2173   -3.9294   26.9717 O   0  0  0  0  0  0  0  0  0  0  0  0
   -1.0025   -5.0942   27.4586 C   0  0  0  0  0  0  0  0  0  0  0  0
    2.2474   -8.9123   16.6273 C   0  0  0  0  0  0  0  0  0  0  0  0
    4.4957   -9.2636   17.3041 C   0  0  0  0  0  0  0  0  0  0  0  0
   -1.8070   -5.6086   28.1920 O   0  0  0  0  0  0  0  0  0  0  0  0
   10.4296   -5.1799   28.3140 C   0  0  0  0  0  0  0  0  0  0  0  0
    6.6017   -5.9004   26.9187 C   0  0  0  0  0  0  0  0  0  0  0  0
    2.4761   -6.9940   26.4111 N   0  0  0  0  0  0  0  0  0  0  0  0
    9.1353   -5.4053   27.8239 C   0  0  0  0  0  0  0  0  0  0  0  0
    0.9922   -9.3232   16.5995 O   0  0  0  0  0  0  0  0  0  0  0  0
    1.5232   -7.6869   27.1182 C   0  0  0  0  0  0  0  0  0  0  0  0
    8.6878   -6.6715   27.7262 N   0  0  0  0  0  0  0  0  0  0  0  0
    6.9911   -8.2423   27.1808 C   0  0  0  0  0  0  0  0  0  0  0  0
    3.8436   -7.2758   16.0578 C   0  0  0  0  0  0  0  0  0  0  0  0
    3.1882   -9.7190   17.2566 C   0  0  0  0  0  0  0  0  0  0  0  0
    5.3488   -6.1737   26.5092 C   0  0  0  0  0  0  0  0  0  0  0  0
    7.4567   -6.9464   27.2858 C   0  0  0  0  0  0  0  0  0  0  0  0
    0.1921   -5.7592   27.1123 C   0  0  0  0  0  0  0  0  0  0  0  0
    3.5517   -7.7407   25.9711 C   0  0  0  0  0  0  0  0  0  0  0  0
  1  4  4  0
  1 22  4  0
  2 20  4  0
  2 27  4  0
  3 12  4  0
  3 23  4  0
  4 25  4  0
  4 28  1  0
  5  8  4  0
  5 17  4  0
  6  7  4  0
  6 16  4  0
  7 18  4  0
  8 27  4  0
  9 13  4  0
  9 23  4  0
 10 11  1  0
 11 14  2  0
 11 27  1  0
 12 19  1  0
 12 24  4  0
 13 24  4  0
 15 18  1  0
 16 25  4  0
 16 26  4  0
 17 20  4  0
 17 28  1  0
 18 21  4  0
 21 26  4  0
 22 26  4  0
M  END
$$$$

 Created by Python create_sdf_string function

 28 30  0  0  0  0  0  0  0  0999 V2000
    5.7174   -8.4529   26.7190 C   0  0  0  0  0  0  0  0  0  0  0  0
    0.3974   -7.0711   27.5149 C   0  0  0  0  0  0  0  0  0  0  0  0
    2.5338   -7.6891   16.0102 C   0  0  0  0  0  0  0  0  0  0  0  0
    4.8690   -7.4380   26.4151 C   0  0  0  0  0  0  0  0  0  0  0  0
    2.3021   -5.6726   26.0378 C   0  0  0  0  0  0  0  0  0  0  0  0
    7.0880   -4.6163   27.0010 C   0  0  0  0  0  0  0  0  0  0  0  0
    8.3117   -4.3698   27.4436 C   0  0  0  0  0  0  0  0  0  0  0  0
    1.1339   -5.0515   26.3541 C   0  0  0  0  0  0  0  0  0  0  0  0
    4.8080   -8.0362   16.7101 C   0  0  0  0  0  0  0  0  0  0  0  0
   -1.2173   -3.9294   26.9717 O   0  0  0  0  0  0  0  0  0  0  0  0
   -1.0025   -5.0942   27.4586 C   0  0  0  0  0  0  0  0  0  0  0  0
    2.2474   -8.9123   16.6273 C   0  0  0  0  0  0  0  0  0  0  0  0
    4.4957   -9.2636   17.3041 C   0  0  0  0  0  0  0  0  0  0  0  0
   -1.8070   -5.6086   28.1920 O   0  0  0  0  0  0  0  0  0  0  0  0
   10.4296   -5.1799   28.3140 C   0  0  0  0  0  0  0  0  0  0  0  0
    6.6017   -5.9004   26.9187 C   0  0  0  0  0  0  0  0  0  0  0  0
    2.4761   -6.9940   26.4111 N   0  0  0  0  0  0  0  0  0  0  0  0
    9.1353   -5.4053   27.8239 C   0  0  0  0  0  0  0  0  0  0  0  0
    0.9922   -9.3232   16.5995 O   0  0  0  0  0  0  0  0  0  0  0  0
    1.5232   -7.6869   27.1182 C   0  0  0  0  0  0  0  0  0  0  0  0
    8.6878   -6.6715   27.7262 N   0  0  0  0  0  0  0  0  0  0  0  0
    6.9911   -8.2423   27.1808 C   0  0  0  0  0  0  0  0  0  0  0  0
    3.8436   -7.2758   16.0578 C   0  0  0  0  0  0  0  0  0  0  0  0
    3.1882   -9.7190   17.2566 C   0  0  0  0  0  0  0  0  0  0  0  0
    5.3488   -6.1737   26.5092 C   0  0  0  0  0  0  0  0  0  0  0  0
    7.4567   -6.9464   27.2858 C   0  0  0  0  0  0  0  0  0  0  0  0
    0.1921   -5.7592   27.1123 C   0  0  0  0  0  0  0  0  0  0  0  0
    3.5517   -7.7407   25.9711 C   0  0  0  0  0  0  0  0  0  0  0  0
  1  4  4  0
  1 22  4  0
  2 20  4  0
  2 27  4  0
  3 12  4  0
  3 23  4  0
  4 25  4  0
  4 28  1  0
  5  8  4  0
  5 17  4  0
  6  7  4  0
  6 16  4  0
  7 18  4  0
  8 27  4  0
  9 13  4  0
  9 23  4  0
 10 11  1  0
 11 14  2  0
 11 27  1  0
 12 19  1  0
 12 24  4  0
 13 24  4  0
 15 18  1  0
 16 25  4  0
 16 26  4  0
 17 20  4  0
 17 28  1  0
 18 21  4  0
 21 26  4  0
 22 26  4  0
M  END
$$$$

 Created by Python create_sdf_string function

 28 30  0  0  0  0  0  0  0  0999 V2000
    5.7174   -8.4529   26.7190 C   0  0  0  0  0  0  0  0  0  0  0  0
    0.3974   -7.0711   27.5149 C   0  0  0  0  0  0  0  0  0  0  0  0
    2.5338   -7.6891   16.0102 C   0  0  0  0  0  0  0  0  0  0  0  0
    4.8690   -7.4380   26.4151 C   0  0  0  0  0  0  0  0  0  0  0  0
    2.3021   -5.6726   26.0378 C   0  0  0  0  0  0  0  0  0  0  0  0
    7.0880   -4.6163   27.0010 C   0  0  0  0  0  0  0  0  0  0  0  0
    8.3117   -4.3698   27.4436 C   0  0  0  0  0  0  0  0  0  0  0  0
    1.1339   -5.0515   26.3541 C   0  0  0  0  0  0  0  0  0  0  0  0
    4.8080   -8.0362   16.7101 C   0  0  0  0  0  0  0  0  0  0  0  0
   -1.2173   -3.9294   26.9717 O   0  0  0  0  0  0  0  0  0  0  0  0
   -1.0025   -5.0942   27.4586 C   0  0  0  0  0  0  0  0  0  0  0  0
    2.2474   -8.9123   16.6273 C   0  0  0  0  0  0  0  0  0  0  0  0
    4.4957   -9.2636   17.3041 C   0  0  0  0  0  0  0  0  0  0  0  0
   -1.8070   -5.6086   28.1920 O   0  0  0  0  0  0  0  0  0  0  0  0
   10.4296   -5.1799   28.3140 C   0  0  0  0  0  0  0  0  0  0  0  0
    6.6017   -5.9004   26.9187 C   0  0  0  0  0  0  0  0  0  0  0  0
    2.4761   -6.9940   26.4111 N   0  0  0  0  0  0  0  0  0  0  0  0
    9.1353   -5.4053   27.8239 C   0  0  0  0  0  0  0  0  0  0  0  0
    0.9922   -9.3232   16.5995 O   0  0  0  0  0  0  0  0  0  0  0  0
    1.5232   -7.6869   27.1182 C   0  0  0  0  0  0  0  0  0  0  0  0
    8.6878   -6.6715   27.7262 N   0  0  0  0  0  0  0  0  0  0  0  0
    6.9911   -8.2423   27.1808 C   0  0  0  0  0  0  0  0  0  0  0  0
    3.8436   -7.2758   16.0578 C   0  0  0  0  0  0  0  0  0  0  0  0
    3.1882   -9.7190   17.2566 C   0  0  0  0  0  0  0  0  0  0  0  0
    5.3488   -6.1737   26.5092 C   0  0  0  0  0  0  0  0  0  0  0  0
    7.4567   -6.9464   27.2858 C   0  0  0  0  0  0  0  0  0  0  0  0
    0.1921   -5.7592   27.1123 C   0  0  0  0  0  0  0  0  0  0  0  0
    3.5517   -7.7407   25.9711 C   0  0  0  0  0  0  0  0  0  0  0  0
  1  4  4  0
  1 22  4  0
  2 20  4  0
  2 27  4  0
  3 12  4  0
  3 23  4  0
  4 25  4  0
  4 28  1  0
  5  8  4  0
  5 17  4  0
  6  7  4  0
  6 16  4  0
  7 18  4  0
  8 27  4  0
  9 13  4  0
  9 23  4  0
 10 11  1  0
 11 14  2  0
 11 27  1  0
 12 19  1  0
 12 24  4  0
 13 24  4  0
 15 18  1  0
 16 25  4  0
 16 26  4  0
 17 20  4  0
 17 28  1  0
 18 21  4  0
 21 26  4  0
 22 26  4  0
M  END
$$$$

 Created by Python create_sdf_string function

 28 30  0  0  0  0  0  0  0  0999 V2000
    5.7174   -8.4529   26.7190 C   0  0  0  0  0  0  0  0  0  0  0  0
    0.3974   -7.0711   27.5149 C   0  0  0  0  0  0  0  0  0  0  0  0
    2.5338   -7.6891   16.0102 C   0  0  0  0  0  0  0  0  0  0  0  0
    4.8690   -7.4380   26.4151 C   0  0  0  0  0  0  0  0  0  0  0  0
    2.3021   -5.6726   26.0378 C   0  0  0  0  0  0  0  0  0  0  0  0
    7.0880   -4.6163   27.0010 C   0  0  0  0  0  0  0  0  0  0  0  0
    8.3117   -4.3698   27.4436 C   0  0  0  0  0  0  0  0  0  0  0  0
    1.1339   -5.0515   26.3541 C   0  0  0  0  0  0  0  0  0  0  0  0
    4.8080   -8.0362   16.7101 C   0  0  0  0  0  0  0  0  0  0  0  0
   -1.2173   -3.9294   26.9717 O   0  0  0  0  0  0  0  0  0  0  0  0
   -1.0025   -5.0942   27.4586 C   0  0  0  0  0  0  0  0  0  0  0  0
    2.2474   -8.9123   16.6273 C   0  0  0  0  0  0  0  0  0  0  0  0
    4.4957   -9.2636   17.3041 C   0  0  0  0  0  0  0  0  0  0  0  0
   -1.8070   -5.6086   28.1920 O   0  0  0  0  0  0  0  0  0  0  0  0
   10.4296   -5.1799   28.3140 C   0  0  0  0  0  0  0  0  0  0  0  0
    6.6017   -5.9004   26.9187 C   0  0  0  0  0  0  0  0  0  0  0  0
    2.4761   -6.9940   26.4111 N   0  0  0  0  0  0  0  0  0  0  0  0
    9.1353   -5.4053   27.8239 C   0  0  0  0  0  0  0  0  0  0  0  0
    0.9922   -9.3232   16.5995 O   0  0  0  0  0  0  0  0  0  0  0  0
    1.5232   -7.6869   27.1182 C   0  0  0  0  0  0  0  0  0  0  0  0
    8.6878   -6.6715   27.7262 N   0  0  0  0  0  0  0  0  0  0  0  0
    6.9911   -8.2423   27.1808 C   0  0  0  0  0  0  0  0  0  0  0  0
    3.8436   -7.2758   16.0578 C   0  0  0  0  0  0  0  0  0  0  0  0
    3.1882   -9.7190   17.2566 C   0  0  0  0  0  0  0  0  0  0  0  0
    5.3488   -6.1737   26.5092 C   0  0  0  0  0  0  0  0  0  0  0  0
    7.4567   -6.9464   27.2858 C   0  0  0  0  0  0  0  0  0  0  0  0
    0.1921   -5.7592   27.1123 C   0  0  0  0  0  0  0  0  0  0  0  0
    3.5517   -7.7407   25.9711 C   0  0  0  0  0  0  0  0  0  0  0  0
  1  4  4  0
  1 22  4  0
  2 20  4  0
  2 27  4  0
  3 12  4  0
  3 23  4  0
  4 25  4  0
  4 28  1  0
  5  8  4  0
  5 17  4  0
  6  7  4  0
  6 16  4  0
  7 18  4  0
  8 27  4  0
  9 13  4  0
  9 23  4  0
 10 11  1  0
 11 14  2  0
 11 27  1  0
 12 19  1  0
 12 24  4  0
 13 24  4  0
 15 18  1  0
 16 25  4  0
 16 26  4  0
 17 20  4  0
 17 28  1  0
 18 21  4  0
 21 26  4  0
 22 26  4  0
M  END
$$$$

 Created by Python create_sdf_string function

 28 30  0  0  0  0  0  0  0  0999 V2000
    5.7174   -8.4529   26.7190 C   0  0  0  0  0  0  0  0  0  0  0  0
    0.3974   -7.0711   27.5149 C   0  0  0  0  0  0  0  0  0  0  0  0
    2.5338   -7.6891   16.0102 C   0  0  0  0  0  0  0  0  0  0  0  0
    4.8690   -7.4380   26.4151 C   0  0  0  0  0  0  0  0  0  0  0  0
    2.3021   -5.6726   26.0378 C   0  0  0  0  0  0  0  0  0  0  0  0
    7.0880   -4.6163   27.0010 C   0  0  0  0  0  0  0  0  0  0  0  0
    8.3117   -4.3698   27.4436 C   0  0  0  0  0  0  0  0  0  0  0  0
    1.1339   -5.0515   26.3541 C   0  0  0  0  0  0  0  0  0  0  0  0
    4.8080   -8.0362   16.7101 C   0  0  0  0  0  0  0  0  0  0  0  0
   -1.2173   -3.9294   26.9717 O   0  0  0  0  0  0  0  0  0  0  0  0
   -1.0025   -5.0942   27.4586 C   0  0  0  0  0  0  0  0  0  0  0  0
    2.2474   -8.9123   16.6273 C   0  0  0  0  0  0  0  0  0  0  0  0
    4.4957   -9.2636   17.3041 C   0  0  0  0  0  0  0  0  0  0  0  0
   -1.8070   -5.6086   28.1920 O   0  0  0  0  0  0  0  0  0  0  0  0
   10.4296   -5.1799   28.3140 C   0  0  0  0  0  0  0  0  0  0  0  0
    6.6017   -5.9004   26.9187 C   0  0  0  0  0  0  0  0  0  0  0  0
    2.4761   -6.9940   26.4111 N   0  0  0  0  0  0  0  0  0  0  0  0
    9.1353   -5.4053   27.8239 C   0  0  0  0  0  0  0  0  0  0  0  0
    0.9922   -9.3232   16.5995 O   0  0  0  0  0  0  0  0  0  0  0  0
    1.5232   -7.6869   27.1182 C   0  0  0  0  0  0  0  0  0  0  0  0
    8.6878   -6.6715   27.7262 N   0  0  0  0  0  0  0  0  0  0  0  0
    6.9911   -8.2423   27.1808 C   0  0  0  0  0  0  0  0  0  0  0  0
    3.8436   -7.2758   16.0578 C   0  0  0  0  0  0  0  0  0  0  0  0
    3.1882   -9.7190   17.2566 C   0  0  0  0  0  0  0  0  0  0  0  0
    5.3488   -6.1737   26.5092 C   0  0  0  0  0  0  0  0  0  0  0  0
    7.4567   -6.9464   27.2858 C   0  0  0  0  0  0  0  0  0  0  0  0
    0.1921   -5.7592   27.1123 C   0  0  0  0  0  0  0  0  0  0  0  0
    3.5517   -7.7407   25.9711 C   0  0  0  0  0  0  0  0  0  0  0  0
  1  4  4  0
  1 22  4  0
  2 20  4  0
  2 27  4  0
  3 12  4  0
  3 23  4  0
  4 25  4  0
  4 28  1  0
  5  8  4  0
  5 17  4  0
  6  7  4  0
  6 16  4  0
  7 18  4  0
  8 27  4  0
  9 13  4  0
  9 23  4  0
 10 11  1  0
 11 14  2  0
 11 27  1  0
 12 19  1  0
 12 24  4  0
 13 24  4  0
 15 18  1  0
 16 25  4  0
 16 26  4  0
 17 20  4  0
 17 28  1  0
 18 21  4  0
 21 26  4  0
 22 26  4  0
M  END
$$$$

 Created by Python create_sdf_string function

 28 30  0  0  0  0  0  0  0  0999 V2000
    5.7174   -8.4529   26.7190 C   0  0  0  0  0  0  0  0  0  0  0  0
    0.3974   -7.0711   27.5149 C   0  0  0  0  0  0  0  0  0  0  0  0
    2.5338   -7.6891   16.0102 C   0  0  0  0  0  0  0  0  0  0  0  0
    4.8690   -7.4380   26.4151 C   0  0  0  0  0  0  0  0  0  0  0  0
    2.3021   -5.6726   26.0378 C   0  0  0  0  0  0  0  0  0  0  0  0
    7.0880   -4.6163   27.0010 C   0  0  0  0  0  0  0  0  0  0  0  0
    8.3117   -4.3698   27.4436 C   0  0  0  0  0  0  0  0  0  0  0  0
    1.1339   -5.0515   26.3541 C   0  0  0  0  0  0  0  0  0  0  0  0
    4.8080   -8.0362   16.7101 C   0  0  0  0  0  0  0  0  0  0  0  0
   -1.2173   -3.9294   26.9717 O   0  0  0  0  0  0  0  0  0  0  0  0
   -1.0025   -5.0942   27.4586 C   0  0  0  0  0  0  0  0  0  0  0  0
    2.2474   -8.9123   16.6273 C   0  0  0  0  0  0  0  0  0  0  0  0
    4.4957   -9.2636   17.3041 C   0  0  0  0  0  0  0  0  0  0  0  0
   -1.8070   -5.6086   28.1920 O   0  0  0  0  0  0  0  0  0  0  0  0
   10.4296   -5.1799   28.3140 C   0  0  0  0  0  0  0  0  0  0  0  0
    6.6017   -5.9004   26.9187 C   0  0  0  0  0  0  0  0  0  0  0  0
    2.4761   -6.9940   26.4111 N   0  0  0  0  0  0  0  0  0  0  0  0
    9.1353   -5.4053   27.8239 C   0  0  0  0  0  0  0  0  0  0  0  0
    0.9922   -9.3232   16.5995 O   0  0  0  0  0  0  0  0  0  0  0  0
    1.5232   -7.6869   27.1182 C   0  0  0  0  0  0  0  0  0  0  0  0
    8.6878   -6.6715   27.7262 N   0  0  0  0  0  0  0  0  0  0  0  0
    6.9911   -8.2423   27.1808 C   0  0  0  0  0  0  0  0  0  0  0  0
    3.8436   -7.2758   16.0578 C   0  0  0  0  0  0  0  0  0  0  0  0
    3.1882   -9.7190   17.2566 C   0  0  0  0  0  0  0  0  0  0  0  0
    5.3488   -6.1737   26.5092 C   0  0  0  0  0  0  0  0  0  0  0  0
    7.4567   -6.9464   27.2858 C   0  0  0  0  0  0  0  0  0  0  0  0
    0.1921   -5.7592   27.1123 C   0  0  0  0  0  0  0  0  0  0  0  0
    3.5517   -7.7407   25.9711 C   0  0  0  0  0  0  0  0  0  0  0  0
  1  4  4  0
  1 22  4  0
  2 20  4  0
  2 27  4  0
  3 12  4  0
  3 23  4  0
  4 25  4  0
  4 28  1  0
  5  8  4  0
  5 17  4  0
  6  7  4  0
  6 16  4  0
  7 18  4  0
  8 27  4  0
  9 13  4  0
  9 23  4  0
 10 11  1  0
 11 14  2  0
 11 27  1  0
 12 19  1  0
 12 24  4  0
 13 24  4  0
 15 18  1  0
 16 25  4  0
 16 26  4  0
 17 20  4  0
 17 28  1  0
 18 21  4  0
 21 26  4  0
 22 26  4  0
M  END
$$$$

 Created by Python create_sdf_string function

 28 30  0  0  0  0  0  0  0  0999 V2000
    5.7174   -8.4529   26.7190 C   0  0  0  0  0  0  0  0  0  0  0  0
    0.3974   -7.0711   27.5149 C   0  0  0  0  0  0  0  0  0  0  0  0
    2.5338   -7.6891   16.0102 C   0  0  0  0  0  0  0  0  0  0  0  0
    4.8690   -7.4380   26.4151 C   0  0  0  0  0  0  0  0  0  0  0  0
    2.3021   -5.6726   26.0378 C   0  0  0  0  0  0  0  0  0  0  0  0
    7.0880   -4.6163   27.0010 C   0  0  0  0  0  0  0  0  0  0  0  0
    8.3117   -4.3698   27.4436 C   0  0  0  0  0  0  0  0  0  0  0  0
    1.1339   -5.0515   26.3541 C   0  0  0  0  0  0  0  0  0  0  0  0
    4.8080   -8.0362   16.7101 C   0  0  0  0  0  0  0  0  0  0  0  0
   -1.2173   -3.9294   26.9717 O   0  0  0  0  0  0  0  0  0  0  0  0
   -1.0025   -5.0942   27.4586 C   0  0  0  0  0  0  0  0  0  0  0  0
    2.2474   -8.9123   16.6273 C   0  0  0  0  0  0  0  0  0  0  0  0
    4.4957   -9.2636   17.3041 C   0  0  0  0  0  0  0  0  0  0  0  0
   -1.8070   -5.6086   28.1920 O   0  0  0  0  0  0  0  0  0  0  0  0
   10.4296   -5.1799   28.3140 C   0  0  0  0  0  0  0  0  0  0  0  0
    6.6017   -5.9004   26.9187 C   0  0  0  0  0  0  0  0  0  0  0  0
    2.4761   -6.9940   26.4111 N   0  0  0  0  0  0  0  0  0  0  0  0
    9.1353   -5.4053   27.8239 C   0  0  0  0  0  0  0  0  0  0  0  0
    0.9922   -9.3232   16.5995 O   0  0  0  0  0  0  0  0  0  0  0  0
    1.5232   -7.6869   27.1182 C   0  0  0  0  0  0  0  0  0  0  0  0
    8.6878   -6.6715   27.7262 N   0  0  0  0  0  0  0  0  0  0  0  0
    6.9911   -8.2423   27.1808 C   0  0  0  0  0  0  0  0  0  0  0  0
    3.8436   -7.2758   16.0578 C   0  0  0  0  0  0  0  0  0  0  0  0
    3.1882   -9.7190   17.2566 C   0  0  0  0  0  0  0  0  0  0  0  0
    5.3488   -6.1737   26.5092 C   0  0  0  0  0  0  0  0  0  0  0  0
    7.4567   -6.9464   27.2858 C   0  0  0  0  0  0  0  0  0  0  0  0
    0.1921   -5.7592   27.1123 C   0  0  0  0  0  0  0  0  0  0  0  0
    3.5517   -7.7407   25.9711 C   0  0  0  0  0  0  0  0  0  0  0  0
  1  4  4  0
  1 22  4  0
  2 20  4  0
  2 27  4  0
  3 12  4  0
  3 23  4  0
  4 25  4  0
  4 28  1  0
  5  8  4  0
  5 17  4  0
  6  7  4  0
  6 16  4  0
  7 18  4  0
  8 27  4  0
  9 13  4  0
  9 23  4  0
 10 11  1  0
 11 14  2  0
 11 27  1  0
 12 19  1  0
 12 24  4  0
 13 24  4  0
 15 18  1  0
 16 25  4  0
 16 26  4  0
 17 20  4  0
 17 28  1  0
 18 21  4  0
 21 26  4  0
 22 26  4  0
M  END
$$$$

 Created by Python create_sdf_string function

 28 30  0  0  0  0  0  0  0  0999 V2000
    5.7174   -8.4529   26.7190 C   0  0  0  0  0  0  0  0  0  0  0  0
    0.3974   -7.0711   27.5149 C   0  0  0  0  0  0  0  0  0  0  0  0
    2.5338   -7.6891   16.0102 C   0  0  0  0  0  0  0  0  0  0  0  0
    4.8690   -7.4380   26.4151 C   0  0  0  0  0  0  0  0  0  0  0  0
    2.3021   -5.6726   26.0378 C   0  0  0  0  0  0  0  0  0  0  0  0
    7.0880   -4.6163   27.0010 C   0  0  0  0  0  0  0  0  0  0  0  0
    8.3117   -4.3698   27.4436 C   0  0  0  0  0  0  0  0  0  0  0  0
    1.1339   -5.0515   26.3541 C   0  0  0  0  0  0  0  0  0  0  0  0
    4.8080   -8.0362   16.7101 C   0  0  0  0  0  0  0  0  0  0  0  0
   -1.2173   -3.9294   26.9717 O   0  0  0  0  0  0  0  0  0  0  0  0
   -1.0025   -5.0942   27.4586 C   0  0  0  0  0  0  0  0  0  0  0  0
    2.2474   -8.9123   16.6273 C   0  0  0  0  0  0  0  0  0  0  0  0
    4.4957   -9.2636   17.3041 C   0  0  0  0  0  0  0  0  0  0  0  0
   -1.8070   -5.6086   28.1920 O   0  0  0  0  0  0  0  0  0  0  0  0
   10.4296   -5.1799   28.3140 C   0  0  0  0  0  0  0  0  0  0  0  0
    6.6017   -5.9004   26.9187 C   0  0  0  0  0  0  0  0  0  0  0  0
    2.4761   -6.9940   26.4111 N   0  0  0  0  0  0  0  0  0  0  0  0
    9.1353   -5.4053   27.8239 C   0  0  0  0  0  0  0  0  0  0  0  0
    0.9922   -9.3232   16.5995 O   0  0  0  0  0  0  0  0  0  0  0  0
    1.5232   -7.6869   27.1182 C   0  0  0  0  0  0  0  0  0  0  0  0
    8.6878   -6.6715   27.7262 N   0  0  0  0  0  0  0  0  0  0  0  0
    6.9911   -8.2423   27.1808 C   0  0  0  0  0  0  0  0  0  0  0  0
    3.8436   -7.2758   16.0578 C   0  0  0  0  0  0  0  0  0  0  0  0
    3.1882   -9.7190   17.2566 C   0  0  0  0  0  0  0  0  0  0  0  0
    5.3488   -6.1737   26.5092 C   0  0  0  0  0  0  0  0  0  0  0  0
    7.4567   -6.9464   27.2858 C   0  0  0  0  0  0  0  0  0  0  0  0
    0.1921   -5.7592   27.1123 C   0  0  0  0  0  0  0  0  0  0  0  0
    3.5517   -7.7407   25.9711 C   0  0  0  0  0  0  0  0  0  0  0  0
  1  4  4  0
  1 22  4  0
  2 20  4  0
  2 27  4  0
  3 12  4  0
  3 23  4  0
  4 25  4  0
  4 28  1  0
  5  8  4  0
  5 17  4  0
  6  7  4  0
  6 16  4  0
  7 18  4  0
  8 27  4  0
  9 13  4  0
  9 23  4  0
 10 11  1  0
 11 14  2  0
 11 27  1  0
 12 19  1  0
 12 24  4  0
 13 24  4  0
 15 18  1  0
 16 25  4  0
 16 26  4  0
 17 20  4  0
 17 28  1  0
 18 21  4  0
 21 26  4  0
 22 26  4  0
M  END
$$$$

 Created by Python create_sdf_string function

 28 30  0  0  0  0  0  0  0  0999 V2000
    5.7174   -8.4529   26.7190 C   0  0  0  0  0  0  0  0  0  0  0  0
    0.3974   -7.0711   27.5149 C   0  0  0  0  0  0  0  0  0  0  0  0
    2.5338   -7.6891   16.0102 C   0  0  0  0  0  0  0  0  0  0  0  0
    4.8690   -7.4380   26.4151 C   0  0  0  0  0  0  0  0  0  0  0  0
    2.3021   -5.6726   26.0378 C   0  0  0  0  0  0  0  0  0  0  0  0
    7.0880   -4.6163   27.0010 C   0  0  0  0  0  0  0  0  0  0  0  0
    8.3117   -4.3698   27.4436 C   0  0  0  0  0  0  0  0  0  0  0  0
    1.1339   -5.0515   26.3541 C   0  0  0  0  0  0  0  0  0  0  0  0
    4.8080   -8.0362   16.7101 C   0  0  0  0  0  0  0  0  0  0  0  0
   -1.2173   -3.9294   26.9717 O   0  0  0  0  0  0  0  0  0  0  0  0
   -1.0025   -5.0942   27.4586 C   0  0  0  0  0  0  0  0  0  0  0  0
    2.2474   -8.9123   16.6273 C   0  0  0  0  0  0  0  0  0  0  0  0
    4.4957   -9.2636   17.3041 C   0  0  0  0  0  0  0  0  0  0  0  0
   -1.8070   -5.6086   28.1920 O   0  0  0  0  0  0  0  0  0  0  0  0
   10.4296   -5.1799   28.3140 C   0  0  0  0  0  0  0  0  0  0  0  0
    6.6017   -5.9004   26.9187 C   0  0  0  0  0  0  0  0  0  0  0  0
    2.4761   -6.9940   26.4111 N   0  0  0  0  0  0  0  0  0  0  0  0
    9.1353   -5.4053   27.8239 C   0  0  0  0  0  0  0  0  0  0  0  0
    0.9922   -9.3232   16.5995 O   0  0  0  0  0  0  0  0  0  0  0  0
    1.5232   -7.6869   27.1182 C   0  0  0  0  0  0  0  0  0  0  0  0
    8.6878   -6.6715   27.7262 N   0  0  0  0  0  0  0  0  0  0  0  0
    6.9911   -8.2423   27.1808 C   0  0  0  0  0  0  0  0  0  0  0  0
    3.8436   -7.2758   16.0578 C   0  0  0  0  0  0  0  0  0  0  0  0
    3.1882   -9.7190   17.2566 C   0  0  0  0  0  0  0  0  0  0  0  0
    5.3488   -6.1737   26.5092 C   0  0  0  0  0  0  0  0  0  0  0  0
    7.4567   -6.9464   27.2858 C   0  0  0  0  0  0  0  0  0  0  0  0
    0.1921   -5.7592   27.1123 C   0  0  0  0  0  0  0  0  0  0  0  0
    3.5517   -7.7407   25.9711 C   0  0  0  0  0  0  0  0  0  0  0  0
  1  4  4  0
  1 22  4  0
  2 20  4  0
  2 27  4  0
  3 12  4  0
  3 23  4  0
  4 25  4  0
  4 28  1  0
  5  8  4  0
  5 17  4  0
  6  7  4  0
  6 16  4  0
  7 18  4  0
  8 27  4  0
  9 13  4  0
  9 23  4  0
 10 11  1  0
 11 14  2  0
 11 27  1  0
 12 19  1  0
 12 24  4  0
 13 24  4  0
 15 18  1  0
 16 25  4  0
 16 26  4  0
 17 20  4  0
 17 28  1  0
 18 21  4  0
 21 26  4  0
 22 26  4  0
M  END
$$$$

 Created by Python create_sdf_string function

 28 30  0  0  0  0  0  0  0  0999 V2000
    5.7174   -8.4529   26.7190 C   0  0  0  0  0  0  0  0  0  0  0  0
    0.3974   -7.0711   27.5149 C   0  0  0  0  0  0  0  0  0  0  0  0
    2.5338   -7.6891   16.0102 C   0  0  0  0  0  0  0  0  0  0  0  0
    4.8690   -7.4380   26.4151 C   0  0  0  0  0  0  0  0  0  0  0  0
    2.3021   -5.6726   26.0378 C   0  0  0  0  0  0  0  0  0  0  0  0
    7.0880   -4.6163   27.0010 C   0  0  0  0  0  0  0  0  0  0  0  0
    8.3117   -4.3698   27.4436 C   0  0  0  0  0  0  0  0  0  0  0  0
    1.1339   -5.0515   26.3541 C   0  0  0  0  0  0  0  0  0  0  0  0
    4.8080   -8.0362   16.7101 C   0  0  0  0  0  0  0  0  0  0  0  0
   -1.2173   -3.9294   26.9717 O   0  0  0  0  0  0  0  0  0  0  0  0
   -1.0025   -5.0942   27.4586 C   0  0  0  0  0  0  0  0  0  0  0  0
    2.2474   -8.9123   16.6273 C   0  0  0  0  0  0  0  0  0  0  0  0
    4.4957   -9.2636   17.3041 C   0  0  0  0  0  0  0  0  0  0  0  0
   -1.8070   -5.6086   28.1920 O   0  0  0  0  0  0  0  0  0  0  0  0
   10.4296   -5.1799   28.3140 C   0  0  0  0  0  0  0  0  0  0  0  0
    6.6017   -5.9004   26.9187 C   0  0  0  0  0  0  0  0  0  0  0  0
    2.4761   -6.9940   26.4111 N   0  0  0  0  0  0  0  0  0  0  0  0
    9.1353   -5.4053   27.8239 C   0  0  0  0  0  0  0  0  0  0  0  0
    0.9922   -9.3232   16.5995 O   0  0  0  0  0  0  0  0  0  0  0  0
    1.5232   -7.6869   27.1182 C   0  0  0  0  0  0  0  0  0  0  0  0
    8.6878   -6.6715   27.7262 N   0  0  0  0  0  0  0  0  0  0  0  0
    6.9911   -8.2423   27.1808 C   0  0  0  0  0  0  0  0  0  0  0  0
    3.8436   -7.2758   16.0578 C   0  0  0  0  0  0  0  0  0  0  0  0
    3.1882   -9.7190   17.2566 C   0  0  0  0  0  0  0  0  0  0  0  0
    5.3488   -6.1737   26.5092 C   0  0  0  0  0  0  0  0  0  0  0  0
    7.4567   -6.9464   27.2858 C   0  0  0  0  0  0  0  0  0  0  0  0
    0.1921   -5.7592   27.1123 C   0  0  0  0  0  0  0  0  0  0  0  0
    3.5517   -7.7407   25.9711 C   0  0  0  0  0  0  0  0  0  0  0  0
  1  4  4  0
  1 22  4  0
  2 20  4  0
  2 27  4  0
  3 12  4  0
  3 23  4  0
  4 25  4  0
  4 28  1  0
  5  8  4  0
  5 17  4  0
  6  7  4  0
  6 16  4  0
  7 18  4  0
  8 27  4  0
  9 13  4  0
  9 23  4  0
 10 11  1  0
 11 14  2  0
 11 27  1  0
 12 19  1  0
 12 24  4  0
 13 24  4  0
 15 18  1  0
 16 25  4  0
 16 26  4  0
 17 20  4  0
 17 28  1  0
 18 21  4  0
 21 26  4  0
 22 26  4  0
M  END
$$$$

 Created by Python create_sdf_string function

 28 30  0  0  0  0  0  0  0  0999 V2000
    5.7174   -8.4529   26.7190 C   0  0  0  0  0  0  0  0  0  0  0  0
    0.3974   -7.0711   27.5149 C   0  0  0  0  0  0  0  0  0  0  0  0
    2.5338   -7.6891   16.0102 C   0  0  0  0  0  0  0  0  0  0  0  0
    4.8690   -7.4380   26.4151 C   0  0  0  0  0  0  0  0  0  0  0  0
    2.3021   -5.6726   26.0378 C   0  0  0  0  0  0  0  0  0  0  0  0
    7.0880   -4.6163   27.0010 C   0  0  0  0  0  0  0  0  0  0  0  0
    8.3117   -4.3698   27.4436 C   0  0  0  0  0  0  0  0  0  0  0  0
    1.1339   -5.0515   26.3541 C   0  0  0  0  0  0  0  0  0  0  0  0
    4.8080   -8.0362   16.7101 C   0  0  0  0  0  0  0  0  0  0  0  0
   -1.2173   -3.9294   26.9717 O   0  0  0  0  0  0  0  0  0  0  0  0
   -1.0025   -5.0942   27.4586 C   0  0  0  0  0  0  0  0  0  0  0  0
    2.2474   -8.9123   16.6273 C   0  0  0  0  0  0  0  0  0  0  0  0
    4.4957   -9.2636   17.3041 C   0  0  0  0  0  0  0  0  0  0  0  0
   -1.8070   -5.6086   28.1920 O   0  0  0  0  0  0  0  0  0  0  0  0
   10.4296   -5.1799   28.3140 C   0  0  0  0  0  0  0  0  0  0  0  0
    6.6017   -5.9004   26.9187 C   0  0  0  0  0  0  0  0  0  0  0  0
    2.4761   -6.9940   26.4111 N   0  0  0  0  0  0  0  0  0  0  0  0
    9.1353   -5.4053   27.8239 C   0  0  0  0  0  0  0  0  0  0  0  0
    0.9922   -9.3232   16.5995 O   0  0  0  0  0  0  0  0  0  0  0  0
    1.5232   -7.6869   27.1182 C   0  0  0  0  0  0  0  0  0  0  0  0
    8.6878   -6.6715   27.7262 N   0  0  0  0  0  0  0  0  0  0  0  0
    6.9911   -8.2423   27.1808 C   0  0  0  0  0  0  0  0  0  0  0  0
    3.8436   -7.2758   16.0578 C   0  0  0  0  0  0  0  0  0  0  0  0
    3.1882   -9.7190   17.2566 C   0  0  0  0  0  0  0  0  0  0  0  0
    5.3488   -6.1737   26.5092 C   0  0  0  0  0  0  0  0  0  0  0  0
    7.4567   -6.9464   27.2858 C   0  0  0  0  0  0  0  0  0  0  0  0
    0.1921   -5.7592   27.1123 C   0  0  0  0  0  0  0  0  0  0  0  0
    3.5517   -7.7407   25.9711 C   0  0  0  0  0  0  0  0  0  0  0  0
  1  4  4  0
  1 22  4  0
  2 20  4  0
  2 27  4  0
  3 12  4  0
  3 23  4  0
  4 25  4  0
  4 28  1  0
  5  8  4  0
  5 17  4  0
  6  7  4  0
  6 16  4  0
  7 18  4  0
  8 27  4  0
  9 13  4  0
  9 23  4  0
 10 11  1  0
 11 14  2  0
 11 27  1  0
 12 19  1  0
 12 24  4  0
 13 24  4  0
 15 18  1  0
 16 25  4  0
 16 26  4  0
 17 20  4  0
 17 28  1  0
 18 21  4  0
 21 26  4  0
 22 26  4  0
M  END
$$$$

 Created by Python create_sdf_string function

 28 30  0  0  0  0  0  0  0  0999 V2000
    5.7174   -8.4529   26.7190 C   0  0  0  0  0  0  0  0  0  0  0  0
    0.3974   -7.0711   27.5149 C   0  0  0  0  0  0  0  0  0  0  0  0
    2.5338   -7.6891   16.0102 C   0  0  0  0  0  0  0  0  0  0  0  0
    4.8690   -7.4380   26.4151 C   0  0  0  0  0  0  0  0  0  0  0  0
    2.3021   -5.6726   26.0378 C   0  0  0  0  0  0  0  0  0  0  0  0
    7.0880   -4.6163   27.0010 C   0  0  0  0  0  0  0  0  0  0  0  0
    8.3117   -4.3698   27.4436 C   0  0  0  0  0  0  0  0  0  0  0  0
    1.1339   -5.0515   26.3541 C   0  0  0  0  0  0  0  0  0  0  0  0
    4.8080   -8.0362   16.7101 C   0  0  0  0  0  0  0  0  0  0  0  0
   -1.2173   -3.9294   26.9717 O   0  0  0  0  0  0  0  0  0  0  0  0
   -1.0025   -5.0942   27.4586 C   0  0  0  0  0  0  0  0  0  0  0  0
    2.2474   -8.9123   16.6273 C   0  0  0  0  0  0  0  0  0  0  0  0
    4.4957   -9.2636   17.3041 C   0  0  0  0  0  0  0  0  0  0  0  0
   -1.8070   -5.6086   28.1920 O   0  0  0  0  0  0  0  0  0  0  0  0
   10.4296   -5.1799   28.3140 C   0  0  0  0  0  0  0  0  0  0  0  0
    6.6017   -5.9004   26.9187 C   0  0  0  0  0  0  0  0  0  0  0  0
    2.4761   -6.9940   26.4111 N   0  0  0  0  0  0  0  0  0  0  0  0
    9.1353   -5.4053   27.8239 C   0  0  0  0  0  0  0  0  0  0  0  0
    0.9922   -9.3232   16.5995 O   0  0  0  0  0  0  0  0  0  0  0  0
    1.5232   -7.6869   27.1182 C   0  0  0  0  0  0  0  0  0  0  0  0
    8.6878   -6.6715   27.7262 N   0  0  0  0  0  0  0  0  0  0  0  0
    6.9911   -8.2423   27.1808 C   0  0  0  0  0  0  0  0  0  0  0  0
    3.8436   -7.2758   16.0578 C   0  0  0  0  0  0  0  0  0  0  0  0
    3.1882   -9.7190   17.2566 C   0  0  0  0  0  0  0  0  0  0  0  0
    5.3488   -6.1737   26.5092 C   0  0  0  0  0  0  0  0  0  0  0  0
    7.4567   -6.9464   27.2858 C   0  0  0  0  0  0  0  0  0  0  0  0
    0.1921   -5.7592   27.1123 C   0  0  0  0  0  0  0  0  0  0  0  0
    3.5517   -7.7407   25.9711 C   0  0  0  0  0  0  0  0  0  0  0  0
  1  4  4  0
  1 22  4  0
  2 20  4  0
  2 27  4  0
  3 12  4  0
  3 23  4  0
  4 25  4  0
  4 28  1  0
  5  8  4  0
  5 17  4  0
  6  7  4  0
  6 16  4  0
  7 18  4  0
  8 27  4  0
  9 13  4  0
  9 23  4  0
 10 11  1  0
 11 14  2  0
 11 27  1  0
 12 19  1  0
 12 24  4  0
 13 24  4  0
 15 18  1  0
 16 25  4  0
 16 26  4  0
 17 20  4  0
 17 28  1  0
 18 21  4  0
 21 26  4  0
 22 26  4  0
M  END
$$$$

 Created by Python create_sdf_string function

 28 30  0  0  0  0  0  0  0  0999 V2000
    5.7174   -8.4529   26.7190 C   0  0  0  0  0  0  0  0  0  0  0  0
    0.3974   -7.0711   27.5149 C   0  0  0  0  0  0  0  0  0  0  0  0
    2.5338   -7.6891   16.0102 C   0  0  0  0  0  0  0  0  0  0  0  0
    4.8690   -7.4380   26.4151 C   0  0  0  0  0  0  0  0  0  0  0  0
    2.3021   -5.6726   26.0378 C   0  0  0  0  0  0  0  0  0  0  0  0
    7.0880   -4.6163   27.0010 C   0  0  0  0  0  0  0  0  0  0  0  0
    8.3117   -4.3698   27.4436 C   0  0  0  0  0  0  0  0  0  0  0  0
    1.1339   -5.0515   26.3541 C   0  0  0  0  0  0  0  0  0  0  0  0
    4.8080   -8.0362   16.7101 C   0  0  0  0  0  0  0  0  0  0  0  0
   -1.2173   -3.9294   26.9717 O   0  0  0  0  0  0  0  0  0  0  0  0
   -1.0025   -5.0942   27.4586 C   0  0  0  0  0  0  0  0  0  0  0  0
    2.2474   -8.9123   16.6273 C   0  0  0  0  0  0  0  0  0  0  0  0
    4.4957   -9.2636   17.3041 C   0  0  0  0  0  0  0  0  0  0  0  0
   -1.8070   -5.6086   28.1920 O   0  0  0  0  0  0  0  0  0  0  0  0
   10.4296   -5.1799   28.3140 C   0  0  0  0  0  0  0  0  0  0  0  0
    6.6017   -5.9004   26.9187 C   0  0  0  0  0  0  0  0  0  0  0  0
    2.4761   -6.9940   26.4111 N   0  0  0  0  0  0  0  0  0  0  0  0
    9.1353   -5.4053   27.8239 C   0  0  0  0  0  0  0  0  0  0  0  0
    0.9922   -9.3232   16.5995 O   0  0  0  0  0  0  0  0  0  0  0  0
    1.5232   -7.6869   27.1182 C   0  0  0  0  0  0  0  0  0  0  0  0
    8.6878   -6.6715   27.7262 N   0  0  0  0  0  0  0  0  0  0  0  0
    6.9911   -8.2423   27.1808 C   0  0  0  0  0  0  0  0  0  0  0  0
    3.8436   -7.2758   16.0578 C   0  0  0  0  0  0  0  0  0  0  0  0
    3.1882   -9.7190   17.2566 C   0  0  0  0  0  0  0  0  0  0  0  0
    5.3488   -6.1737   26.5092 C   0  0  0  0  0  0  0  0  0  0  0  0
    7.4567   -6.9464   27.2858 C   0  0  0  0  0  0  0  0  0  0  0  0
    0.1921   -5.7592   27.1123 C   0  0  0  0  0  0  0  0  0  0  0  0
    3.5517   -7.7407   25.9711 C   0  0  0  0  0  0  0  0  0  0  0  0
  1  4  4  0
  1 22  4  0
  2 20  4  0
  2 27  4  0
  3 12  4  0
  3 23  4  0
  4 25  4  0
  4 28  1  0
  5  8  4  0
  5 17  4  0
  6  7  4  0
  6 16  4  0
  7 18  4  0
  8 27  4  0
  9 13  4  0
  9 23  4  0
 10 11  1  0
 11 14  2  0
 11 27  1  0
 12 19  1  0
 12 24  4  0
 13 24  4  0
 15 18  1  0
 16 25  4  0
 16 26  4  0
 17 20  4  0
 17 28  1  0
 18 21  4  0
 21 26  4  0
 22 26  4  0
M  END
$$$$

 Created by Python create_sdf_string function

 28 30  0  0  0  0  0  0  0  0999 V2000
    5.7174   -8.4529   26.7190 C   0  0  0  0  0  0  0  0  0  0  0  0
    0.3974   -7.0711   27.5149 C   0  0  0  0  0  0  0  0  0  0  0  0
    2.5338   -7.6891   16.0102 C   0  0  0  0  0  0  0  0  0  0  0  0
    4.8690   -7.4380   26.4151 C   0  0  0  0  0  0  0  0  0  0  0  0
    2.3021   -5.6726   26.0378 C   0  0  0  0  0  0  0  0  0  0  0  0
    7.0880   -4.6163   27.0010 C   0  0  0  0  0  0  0  0  0  0  0  0
    8.3117   -4.3698   27.4436 C   0  0  0  0  0  0  0  0  0  0  0  0
    1.1339   -5.0515   26.3541 C   0  0  0  0  0  0  0  0  0  0  0  0
    4.8080   -8.0362   16.7101 C   0  0  0  0  0  0  0  0  0  0  0  0
   -1.2173   -3.9294   26.9717 O   0  0  0  0  0  0  0  0  0  0  0  0
   -1.0025   -5.0942   27.4586 C   0  0  0  0  0  0  0  0  0  0  0  0
    2.2474   -8.9123   16.6273 C   0  0  0  0  0  0  0  0  0  0  0  0
    4.4957   -9.2636   17.3041 C   0  0  0  0  0  0  0  0  0  0  0  0
   -1.8070   -5.6086   28.1920 O   0  0  0  0  0  0  0  0  0  0  0  0
   10.4296   -5.1799   28.3140 C   0  0  0  0  0  0  0  0  0  0  0  0
    6.6017   -5.9004   26.9187 C   0  0  0  0  0  0  0  0  0  0  0  0
    2.4761   -6.9940   26.4111 N   0  0  0  0  0  0  0  0  0  0  0  0
    9.1353   -5.4053   27.8239 C   0  0  0  0  0  0  0  0  0  0  0  0
    0.9922   -9.3232   16.5995 O   0  0  0  0  0  0  0  0  0  0  0  0
    1.5232   -7.6869   27.1182 C   0  0  0  0  0  0  0  0  0  0  0  0
    8.6878   -6.6715   27.7262 N   0  0  0  0  0  0  0  0  0  0  0  0
    6.9911   -8.2423   27.1808 C   0  0  0  0  0  0  0  0  0  0  0  0
    3.8436   -7.2758   16.0578 C   0  0  0  0  0  0  0  0  0  0  0  0
    3.1882   -9.7190   17.2566 C   0  0  0  0  0  0  0  0  0  0  0  0
    5.3488   -6.1737   26.5092 C   0  0  0  0  0  0  0  0  0  0  0  0
    7.4567   -6.9464   27.2858 C   0  0  0  0  0  0  0  0  0  0  0  0
    0.1921   -5.7592   27.1123 C   0  0  0  0  0  0  0  0  0  0  0  0
    3.5517   -7.7407   25.9711 C   0  0  0  0  0  0  0  0  0  0  0  0
  1  4  4  0
  1 22  4  0
  2 20  4  0
  2 27  4  0
  3 12  4  0
  3 23  4  0
  4 25  4  0
  4 28  1  0
  5  8  4  0
  5 17  4  0
  6  7  4  0
  6 16  4  0
  7 18  4  0
  8 27  4  0
  9 13  4  0
  9 23  4  0
 10 11  1  0
 11 14  2  0
 11 27  1  0
 12 19  1  0
 12 24  4  0
 13 24  4  0
 15 18  1  0
 16 25  4  0
 16 26  4  0
 17 20  4  0
 17 28  1  0
 18 21  4  0
 21 26  4  0
 22 26  4  0
M  END
$$$$

 Created by Python create_sdf_string function

 28 30  0  0  0  0  0  0  0  0999 V2000
    5.7174   -8.4529   26.7190 C   0  0  0  0  0  0  0  0  0  0  0  0
    0.3974   -7.0711   27.5149 C   0  0  0  0  0  0  0  0  0  0  0  0
    2.5338   -7.6891   16.0102 C   0  0  0  0  0  0  0  0  0  0  0  0
    4.8690   -7.4380   26.4151 C   0  0  0  0  0  0  0  0  0  0  0  0
    2.3021   -5.6726   26.0378 C   0  0  0  0  0  0  0  0  0  0  0  0
    7.0880   -4.6163   27.0010 C   0  0  0  0  0  0  0  0  0  0  0  0
    8.3117   -4.3698   27.4436 C   0  0  0  0  0  0  0  0  0  0  0  0
    1.1339   -5.0515   26.3541 C   0  0  0  0  0  0  0  0  0  0  0  0
    4.8080   -8.0362   16.7101 C   0  0  0  0  0  0  0  0  0  0  0  0
   -1.2173   -3.9294   26.9717 O   0  0  0  0  0  0  0  0  0  0  0  0
   -1.0025   -5.0942   27.4586 C   0  0  0  0  0  0  0  0  0  0  0  0
    2.2474   -8.9123   16.6273 C   0  0  0  0  0  0  0  0  0  0  0  0
    4.4957   -9.2636   17.3041 C   0  0  0  0  0  0  0  0  0  0  0  0
   -1.8070   -5.6086   28.1920 O   0  0  0  0  0  0  0  0  0  0  0  0
   10.4296   -5.1799   28.3140 C   0  0  0  0  0  0  0  0  0  0  0  0
    6.6017   -5.9004   26.9187 C   0  0  0  0  0  0  0  0  0  0  0  0
    2.4761   -6.9940   26.4111 N   0  0  0  0  0  0  0  0  0  0  0  0
    9.1353   -5.4053   27.8239 C   0  0  0  0  0  0  0  0  0  0  0  0
    0.9922   -9.3232   16.5995 O   0  0  0  0  0  0  0  0  0  0  0  0
    1.5232   -7.6869   27.1182 C   0  0  0  0  0  0  0  0  0  0  0  0
    8.6878   -6.6715   27.7262 N   0  0  0  0  0  0  0  0  0  0  0  0
    6.9911   -8.2423   27.1808 C   0  0  0  0  0  0  0  0  0  0  0  0
    3.8436   -7.2758   16.0578 C   0  0  0  0  0  0  0  0  0  0  0  0
    3.1882   -9.7190   17.2566 C   0  0  0  0  0  0  0  0  0  0  0  0
    5.3488   -6.1737   26.5092 C   0  0  0  0  0  0  0  0  0  0  0  0
    7.4567   -6.9464   27.2858 C   0  0  0  0  0  0  0  0  0  0  0  0
    0.1921   -5.7592   27.1123 C   0  0  0  0  0  0  0  0  0  0  0  0
    3.5517   -7.7407   25.9711 C   0  0  0  0  0  0  0  0  0  0  0  0
  1  4  4  0
  1 22  4  0
  2 20  4  0
  2 27  4  0
  3 12  4  0
  3 23  4  0
  4 25  4  0
  4 28  1  0
  5  8  4  0
  5 17  4  0
  6  7  4  0
  6 16  4  0
  7 18  4  0
  8 27  4  0
  9 13  4  0
  9 23  4  0
 10 11  1  0
 11 14  2  0
 11 27  1  0
 12 19  1  0
 12 24  4  0
 13 24  4  0
 15 18  1  0
 16 25  4  0
 16 26  4  0
 17 20  4  0
 17 28  1  0
 18 21  4  0
 21 26  4  0
 22 26  4  0
M  END
$$$$

 Created by Python create_sdf_string function

 28 30  0  0  0  0  0  0  0  0999 V2000
    5.7174   -8.4529   26.7190 C   0  0  0  0  0  0  0  0  0  0  0  0
    0.3974   -7.0711   27.5149 C   0  0  0  0  0  0  0  0  0  0  0  0
    2.5338   -7.6891   16.0102 C   0  0  0  0  0  0  0  0  0  0  0  0
    4.8690   -7.4380   26.4151 C   0  0  0  0  0  0  0  0  0  0  0  0
    2.3021   -5.6726   26.0378 C   0  0  0  0  0  0  0  0  0  0  0  0
    7.0880   -4.6163   27.0010 C   0  0  0  0  0  0  0  0  0  0  0  0
    8.3117   -4.3698   27.4436 C   0  0  0  0  0  0  0  0  0  0  0  0
    1.1339   -5.0515   26.3541 C   0  0  0  0  0  0  0  0  0  0  0  0
    4.8080   -8.0362   16.7101 C   0  0  0  0  0  0  0  0  0  0  0  0
   -1.2173   -3.9294   26.9717 O   0  0  0  0  0  0  0  0  0  0  0  0
   -1.0025   -5.0942   27.4586 C   0  0  0  0  0  0  0  0  0  0  0  0
    2.2474   -8.9123   16.6273 C   0  0  0  0  0  0  0  0  0  0  0  0
    4.4957   -9.2636   17.3041 C   0  0  0  0  0  0  0  0  0  0  0  0
   -1.8070   -5.6086   28.1920 O   0  0  0  0  0  0  0  0  0  0  0  0
   10.4296   -5.1799   28.3140 C   0  0  0  0  0  0  0  0  0  0  0  0
    6.6017   -5.9004   26.9187 C   0  0  0  0  0  0  0  0  0  0  0  0
    2.4761   -6.9940   26.4111 N   0  0  0  0  0  0  0  0  0  0  0  0
    9.1353   -5.4053   27.8239 C   0  0  0  0  0  0  0  0  0  0  0  0
    0.9922   -9.3232   16.5995 O   0  0  0  0  0  0  0  0  0  0  0  0
    1.5232   -7.6869   27.1182 C   0  0  0  0  0  0  0  0  0  0  0  0
    8.6878   -6.6715   27.7262 N   0  0  0  0  0  0  0  0  0  0  0  0
    6.9911   -8.2423   27.1808 C   0  0  0  0  0  0  0  0  0  0  0  0
    3.8436   -7.2758   16.0578 C   0  0  0  0  0  0  0  0  0  0  0  0
    3.1882   -9.7190   17.2566 C   0  0  0  0  0  0  0  0  0  0  0  0
    5.3488   -6.1737   26.5092 C   0  0  0  0  0  0  0  0  0  0  0  0
    7.4567   -6.9464   27.2858 C   0  0  0  0  0  0  0  0  0  0  0  0
    0.1921   -5.7592   27.1123 C   0  0  0  0  0  0  0  0  0  0  0  0
    3.5517   -7.7407   25.9711 C   0  0  0  0  0  0  0  0  0  0  0  0
  1  4  4  0
  1 22  4  0
  2 20  4  0
  2 27  4  0
  3 12  4  0
  3 23  4  0
  4 25  4  0
  4 28  1  0
  5  8  4  0
  5 17  4  0
  6  7  4  0
  6 16  4  0
  7 18  4  0
  8 27  4  0
  9 13  4  0
  9 23  4  0
 10 11  1  0
 11 14  2  0
 11 27  1  0
 12 19  1  0
 12 24  4  0
 13 24  4  0
 15 18  1  0
 16 25  4  0
 16 26  4  0
 17 20  4  0
 17 28  1  0
 18 21  4  0
 21 26  4  0
 22 26  4  0
M  END
$$$$

 Created by Python create_sdf_string function

 28 30  0  0  0  0  0  0  0  0999 V2000
    5.7174   -8.4529   26.7190 C   0  0  0  0  0  0  0  0  0  0  0  0
    0.3974   -7.0711   27.5149 C   0  0  0  0  0  0  0  0  0  0  0  0
    2.5338   -7.6891   16.0102 C   0  0  0  0  0  0  0  0  0  0  0  0
    4.8690   -7.4380   26.4151 C   0  0  0  0  0  0  0  0  0  0  0  0
    2.3021   -5.6726   26.0378 C   0  0  0  0  0  0  0  0  0  0  0  0
    7.0880   -4.6163   27.0010 C   0  0  0  0  0  0  0  0  0  0  0  0
    8.3117   -4.3698   27.4436 C   0  0  0  0  0  0  0  0  0  0  0  0
    1.1339   -5.0515   26.3541 C   0  0  0  0  0  0  0  0  0  0  0  0
    4.8080   -8.0362   16.7101 C   0  0  0  0  0  0  0  0  0  0  0  0
   -1.2173   -3.9294   26.9717 O   0  0  0  0  0  0  0  0  0  0  0  0
   -1.0025   -5.0942   27.4586 C   0  0  0  0  0  0  0  0  0  0  0  0
    2.2474   -8.9123   16.6273 C   0  0  0  0  0  0  0  0  0  0  0  0
    4.4957   -9.2636   17.3041 C   0  0  0  0  0  0  0  0  0  0  0  0
   -1.8070   -5.6086   28.1920 O   0  0  0  0  0  0  0  0  0  0  0  0
   10.4296   -5.1799   28.3140 C   0  0  0  0  0  0  0  0  0  0  0  0
    6.6017   -5.9004   26.9187 C   0  0  0  0  0  0  0  0  0  0  0  0
    2.4761   -6.9940   26.4111 N   0  0  0  0  0  0  0  0  0  0  0  0
    9.1353   -5.4053   27.8239 C   0  0  0  0  0  0  0  0  0  0  0  0
    0.9922   -9.3232   16.5995 O   0  0  0  0  0  0  0  0  0  0  0  0
    1.5232   -7.6869   27.1182 C   0  0  0  0  0  0  0  0  0  0  0  0
    8.6878   -6.6715   27.7262 N   0  0  0  0  0  0  0  0  0  0  0  0
    6.9911   -8.2423   27.1808 C   0  0  0  0  0  0  0  0  0  0  0  0
    3.8436   -7.2758   16.0578 C   0  0  0  0  0  0  0  0  0  0  0  0
    3.1882   -9.7190   17.2566 C   0  0  0  0  0  0  0  0  0  0  0  0
    5.3488   -6.1737   26.5092 C   0  0  0  0  0  0  0  0  0  0  0  0
    7.4567   -6.9464   27.2858 C   0  0  0  0  0  0  0  0  0  0  0  0
    0.1921   -5.7592   27.1123 C   0  0  0  0  0  0  0  0  0  0  0  0
    3.5517   -7.7407   25.9711 C   0  0  0  0  0  0  0  0  0  0  0  0
  1  4  4  0
  1 22  4  0
  2 20  4  0
  2 27  4  0
  3 12  4  0
  3 23  4  0
  4 25  4  0
  4 28  1  0
  5  8  4  0
  5 17  4  0
  6  7  4  0
  6 16  4  0
  7 18  4  0
  8 27  4  0
  9 13  4  0
  9 23  4  0
 10 11  1  0
 11 14  2  0
 11 27  1  0
 12 19  1  0
 12 24  4  0
 13 24  4  0
 15 18  1  0
 16 25  4  0
 16 26  4  0
 17 20  4  0
 17 28  1  0
 18 21  4  0
 21 26  4  0
 22 26  4  0
M  END
$$$$

 Created by Python create_sdf_string function

 28 30  0  0  0  0  0  0  0  0999 V2000
    5.7174   -8.4529   26.7190 C   0  0  0  0  0  0  0  0  0  0  0  0
    0.3974   -7.0711   27.5149 C   0  0  0  0  0  0  0  0  0  0  0  0
    2.5338   -7.6891   16.0102 C   0  0  0  0  0  0  0  0  0  0  0  0
    4.8690   -7.4380   26.4151 C   0  0  0  0  0  0  0  0  0  0  0  0
    2.3021   -5.6726   26.0378 C   0  0  0  0  0  0  0  0  0  0  0  0
    7.0880   -4.6163   27.0010 C   0  0  0  0  0  0  0  0  0  0  0  0
    8.3117   -4.3698   27.4436 C   0  0  0  0  0  0  0  0  0  0  0  0
    1.1339   -5.0515   26.3541 C   0  0  0  0  0  0  0  0  0  0  0  0
    4.8080   -8.0362   16.7101 C   0  0  0  0  0  0  0  0  0  0  0  0
   -1.2173   -3.9294   26.9717 O   0  0  0  0  0  0  0  0  0  0  0  0
   -1.0025   -5.0942   27.4586 C   0  0  0  0  0  0  0  0  0  0  0  0
    2.2474   -8.9123   16.6273 C   0  0  0  0  0  0  0  0  0  0  0  0
    4.4957   -9.2636   17.3041 C   0  0  0  0  0  0  0  0  0  0  0  0
   -1.8070   -5.6086   28.1920 O   0  0  0  0  0  0  0  0  0  0  0  0
   10.4296   -5.1799   28.3140 C   0  0  0  0  0  0  0  0  0  0  0  0
    6.6017   -5.9004   26.9187 C   0  0  0  0  0  0  0  0  0  0  0  0
    2.4761   -6.9940   26.4111 N   0  0  0  0  0  0  0  0  0  0  0  0
    9.1353   -5.4053   27.8239 C   0  0  0  0  0  0  0  0  0  0  0  0
    0.9922   -9.3232   16.5995 O   0  0  0  0  0  0  0  0  0  0  0  0
    1.5232   -7.6869   27.1182 C   0  0  0  0  0  0  0  0  0  0  0  0
    8.6878   -6.6715   27.7262 N   0  0  0  0  0  0  0  0  0  0  0  0
    6.9911   -8.2423   27.1808 C   0  0  0  0  0  0  0  0  0  0  0  0
    3.8436   -7.2758   16.0578 C   0  0  0  0  0  0  0  0  0  0  0  0
    3.1882   -9.7190   17.2566 C   0  0  0  0  0  0  0  0  0  0  0  0
    5.3488   -6.1737   26.5092 C   0  0  0  0  0  0  0  0  0  0  0  0
    7.4567   -6.9464   27.2858 C   0  0  0  0  0  0  0  0  0  0  0  0
    0.1921   -5.7592   27.1123 C   0  0  0  0  0  0  0  0  0  0  0  0
    3.5517   -7.7407   25.9711 C   0  0  0  0  0  0  0  0  0  0  0  0
  1  4  4  0
  1 22  4  0
  2 20  4  0
  2 27  4  0
  3 12  4  0
  3 23  4  0
  4 25  4  0
  4 28  1  0
  5  8  4  0
  5 17  4  0
  6  7  4  0
  6 16  4  0
  7 18  4  0
  8 27  4  0
  9 13  4  0
  9 23  4  0
 10 11  1  0
 11 14  2  0
 11 27  1  0
 12 19  1  0
 12 24  4  0
 13 24  4  0
 15 18  1  0
 16 25  4  0
 16 26  4  0
 17 20  4  0
 17 28  1  0
 18 21  4  0
 21 26  4  0
 22 26  4  0
M  END
$$$$

 Created by Python create_sdf_string function

 28 30  0  0  0  0  0  0  0  0999 V2000
    5.7174   -8.4529   26.7190 C   0  0  0  0  0  0  0  0  0  0  0  0
    0.3974   -7.0711   27.5149 C   0  0  0  0  0  0  0  0  0  0  0  0
    2.5338   -7.6891   16.0102 C   0  0  0  0  0  0  0  0  0  0  0  0
    4.8690   -7.4380   26.4151 C   0  0  0  0  0  0  0  0  0  0  0  0
    2.3021   -5.6726   26.0378 C   0  0  0  0  0  0  0  0  0  0  0  0
    7.0880   -4.6163   27.0010 C   0  0  0  0  0  0  0  0  0  0  0  0
    8.3117   -4.3698   27.4436 C   0  0  0  0  0  0  0  0  0  0  0  0
    1.1339   -5.0515   26.3541 C   0  0  0  0  0  0  0  0  0  0  0  0
    4.8080   -8.0362   16.7101 C   0  0  0  0  0  0  0  0  0  0  0  0
   -1.2173   -3.9294   26.9717 O   0  0  0  0  0  0  0  0  0  0  0  0
   -1.0025   -5.0942   27.4586 C   0  0  0  0  0  0  0  0  0  0  0  0
    2.2474   -8.9123   16.6273 C   0  0  0  0  0  0  0  0  0  0  0  0
    4.4957   -9.2636   17.3041 C   0  0  0  0  0  0  0  0  0  0  0  0
   -1.8070   -5.6086   28.1920 O   0  0  0  0  0  0  0  0  0  0  0  0
   10.4296   -5.1799   28.3140 C   0  0  0  0  0  0  0  0  0  0  0  0
    6.6017   -5.9004   26.9187 C   0  0  0  0  0  0  0  0  0  0  0  0
    2.4761   -6.9940   26.4111 N   0  0  0  0  0  0  0  0  0  0  0  0
    9.1353   -5.4053   27.8239 C   0  0  0  0  0  0  0  0  0  0  0  0
    0.9922   -9.3232   16.5995 O   0  0  0  0  0  0  0  0  0  0  0  0
    1.5232   -7.6869   27.1182 C   0  0  0  0  0  0  0  0  0  0  0  0
    8.6878   -6.6715   27.7262 N   0  0  0  0  0  0  0  0  0  0  0  0
    6.9911   -8.2423   27.1808 C   0  0  0  0  0  0  0  0  0  0  0  0
    3.8436   -7.2758   16.0578 C   0  0  0  0  0  0  0  0  0  0  0  0
    3.1882   -9.7190   17.2566 C   0  0  0  0  0  0  0  0  0  0  0  0
    5.3488   -6.1737   26.5092 C   0  0  0  0  0  0  0  0  0  0  0  0
    7.4567   -6.9464   27.2858 C   0  0  0  0  0  0  0  0  0  0  0  0
    0.1921   -5.7592   27.1123 C   0  0  0  0  0  0  0  0  0  0  0  0
    3.5517   -7.7407   25.9711 C   0  0  0  0  0  0  0  0  0  0  0  0
  1  4  4  0
  1 22  4  0
  2 20  4  0
  2 27  4  0
  3 12  4  0
  3 23  4  0
  4 25  4  0
  4 28  1  0
  5  8  4  0
  5 17  4  0
  6  7  4  0
  6 16  4  0
  7 18  4  0
  8 27  4  0
  9 13  4  0
  9 23  4  0
 10 11  1  0
 11 14  2  0
 11 27  1  0
 12 19  1  0
 12 24  4  0
 13 24  4  0
 15 18  1  0
 16 25  4  0
 16 26  4  0
 17 20  4  0
 17 28  1  0
 18 21  4  0
 21 26  4  0
 22 26  4  0
M  END
$$$$

 Created by Python create_sdf_string function

 28 30  0  0  0  0  0  0  0  0999 V2000
    5.7174   -8.4529   26.7190 C   0  0  0  0  0  0  0  0  0  0  0  0
    0.3974   -7.0711   27.5149 C   0  0  0  0  0  0  0  0  0  0  0  0
    2.5338   -7.6891   16.0102 C   0  0  0  0  0  0  0  0  0  0  0  0
    4.8690   -7.4380   26.4151 C   0  0  0  0  0  0  0  0  0  0  0  0
    2.3021   -5.6726   26.0378 C   0  0  0  0  0  0  0  0  0  0  0  0
    7.0880   -4.6163   27.0010 C   0  0  0  0  0  0  0  0  0  0  0  0
    8.3117   -4.3698   27.4436 C   0  0  0  0  0  0  0  0  0  0  0  0
    1.1339   -5.0515   26.3541 C   0  0  0  0  0  0  0  0  0  0  0  0
    4.8080   -8.0362   16.7101 C   0  0  0  0  0  0  0  0  0  0  0  0
   -1.2173   -3.9294   26.9717 O   0  0  0  0  0  0  0  0  0  0  0  0
   -1.0025   -5.0942   27.4586 C   0  0  0  0  0  0  0  0  0  0  0  0
    2.2474   -8.9123   16.6273 C   0  0  0  0  0  0  0  0  0  0  0  0
    4.4957   -9.2636   17.3041 C   0  0  0  0  0  0  0  0  0  0  0  0
   -1.8070   -5.6086   28.1920 O   0  0  0  0  0  0  0  0  0  0  0  0
   10.4296   -5.1799   28.3140 C   0  0  0  0  0  0  0  0  0  0  0  0
    6.6017   -5.9004   26.9187 C   0  0  0  0  0  0  0  0  0  0  0  0
    2.4761   -6.9940   26.4111 N   0  0  0  0  0  0  0  0  0  0  0  0
    9.1353   -5.4053   27.8239 C   0  0  0  0  0  0  0  0  0  0  0  0
    0.9922   -9.3232   16.5995 O   0  0  0  0  0  0  0  0  0  0  0  0
    1.5232   -7.6869   27.1182 C   0  0  0  0  0  0  0  0  0  0  0  0
    8.6878   -6.6715   27.7262 N   0  0  0  0  0  0  0  0  0  0  0  0
    6.9911   -8.2423   27.1808 C   0  0  0  0  0  0  0  0  0  0  0  0
    3.8436   -7.2758   16.0578 C   0  0  0  0  0  0  0  0  0  0  0  0
    3.1882   -9.7190   17.2566 C   0  0  0  0  0  0  0  0  0  0  0  0
    5.3488   -6.1737   26.5092 C   0  0  0  0  0  0  0  0  0  0  0  0
    7.4567   -6.9464   27.2858 C   0  0  0  0  0  0  0  0  0  0  0  0
    0.1921   -5.7592   27.1123 C   0  0  0  0  0  0  0  0  0  0  0  0
    3.5517   -7.7407   25.9711 C   0  0  0  0  0  0  0  0  0  0  0  0
  1  4  4  0
  1 22  4  0
  2 20  4  0
  2 27  4  0
  3 12  4  0
  3 23  4  0
  4 25  4  0
  4 28  1  0
  5  8  4  0
  5 17  4  0
  6  7  4  0
  6 16  4  0
  7 18  4  0
  8 27  4  0
  9 13  4  0
  9 23  4  0
 10 11  1  0
 11 14  2  0
 11 27  1  0
 12 19  1  0
 12 24  4  0
 13 24  4  0
 15 18  1  0
 16 25  4  0
 16 26  4  0
 17 20  4  0
 17 28  1  0
 18 21  4  0
 21 26  4  0
 22 26  4  0
M  END
$$$$

 Created by Python create_sdf_string function

 28 30  0  0  0  0  0  0  0  0999 V2000
    5.7174   -8.4529   26.7190 C   0  0  0  0  0  0  0  0  0  0  0  0
    0.3974   -7.0711   27.5149 C   0  0  0  0  0  0  0  0  0  0  0  0
    2.5338   -7.6891   16.0102 C   0  0  0  0  0  0  0  0  0  0  0  0
    4.8690   -7.4380   26.4151 C   0  0  0  0  0  0  0  0  0  0  0  0
    2.3021   -5.6726   26.0378 C   0  0  0  0  0  0  0  0  0  0  0  0
    7.0880   -4.6163   27.0010 C   0  0  0  0  0  0  0  0  0  0  0  0
    8.3117   -4.3698   27.4436 C   0  0  0  0  0  0  0  0  0  0  0  0
    1.1339   -5.0515   26.3541 C   0  0  0  0  0  0  0  0  0  0  0  0
    4.8080   -8.0362   16.7101 C   0  0  0  0  0  0  0  0  0  0  0  0
   -1.2173   -3.9294   26.9717 O   0  0  0  0  0  0  0  0  0  0  0  0
   -1.0025   -5.0942   27.4586 C   0  0  0  0  0  0  0  0  0  0  0  0
    2.2474   -8.9123   16.6273 C   0  0  0  0  0  0  0  0  0  0  0  0
    4.4957   -9.2636   17.3041 C   0  0  0  0  0  0  0  0  0  0  0  0
   -1.8070   -5.6086   28.1920 O   0  0  0  0  0  0  0  0  0  0  0  0
   10.4296   -5.1799   28.3140 C   0  0  0  0  0  0  0  0  0  0  0  0
    6.6017   -5.9004   26.9187 C   0  0  0  0  0  0  0  0  0  0  0  0
    2.4761   -6.9940   26.4111 N   0  0  0  0  0  0  0  0  0  0  0  0
    9.1353   -5.4053   27.8239 C   0  0  0  0  0  0  0  0  0  0  0  0
    0.9922   -9.3232   16.5995 O   0  0  0  0  0  0  0  0  0  0  0  0
    1.5232   -7.6869   27.1182 C   0  0  0  0  0  0  0  0  0  0  0  0
    8.6878   -6.6715   27.7262 N   0  0  0  0  0  0  0  0  0  0  0  0
    6.9911   -8.2423   27.1808 C   0  0  0  0  0  0  0  0  0  0  0  0
    3.8436   -7.2758   16.0578 C   0  0  0  0  0  0  0  0  0  0  0  0
    3.1882   -9.7190   17.2566 C   0  0  0  0  0  0  0  0  0  0  0  0
    5.3488   -6.1737   26.5092 C   0  0  0  0  0  0  0  0  0  0  0  0
    7.4567   -6.9464   27.2858 C   0  0  0  0  0  0  0  0  0  0  0  0
    0.1921   -5.7592   27.1123 C   0  0  0  0  0  0  0  0  0  0  0  0
    3.5517   -7.7407   25.9711 C   0  0  0  0  0  0  0  0  0  0  0  0
  1  4  4  0
  1 22  4  0
  2 20  4  0
  2 27  4  0
  3 12  4  0
  3 23  4  0
  4 25  4  0
  4 28  1  0
  5  8  4  0
  5 17  4  0
  6  7  4  0
  6 16  4  0
  7 18  4  0
  8 27  4  0
  9 13  4  0
  9 23  4  0
 10 11  1  0
 11 14  2  0
 11 27  1  0
 12 19  1  0
 12 24  4  0
 13 24  4  0
 15 18  1  0
 16 25  4  0
 16 26  4  0
 17 20  4  0
 17 28  1  0
 18 21  4  0
 21 26  4  0
 22 26  4  0
M  END
$$$$

 Created by Python create_sdf_string function

 28 30  0  0  0  0  0  0  0  0999 V2000
    5.7174   -8.4529   26.7190 C   0  0  0  0  0  0  0  0  0  0  0  0
    0.3974   -7.0711   27.5149 C   0  0  0  0  0  0  0  0  0  0  0  0
    2.5338   -7.6891   16.0102 C   0  0  0  0  0  0  0  0  0  0  0  0
    4.8690   -7.4380   26.4151 C   0  0  0  0  0  0  0  0  0  0  0  0
    2.3021   -5.6726   26.0378 C   0  0  0  0  0  0  0  0  0  0  0  0
    7.0880   -4.6163   27.0010 C   0  0  0  0  0  0  0  0  0  0  0  0
    8.3117   -4.3698   27.4436 C   0  0  0  0  0  0  0  0  0  0  0  0
    1.1339   -5.0515   26.3541 C   0  0  0  0  0  0  0  0  0  0  0  0
    4.8080   -8.0362   16.7101 C   0  0  0  0  0  0  0  0  0  0  0  0
   -1.2173   -3.9294   26.9717 O   0  0  0  0  0  0  0  0  0  0  0  0
   -1.0025   -5.0942   27.4586 C   0  0  0  0  0  0  0  0  0  0  0  0
    2.2474   -8.9123   16.6273 C   0  0  0  0  0  0  0  0  0  0  0  0
    4.4957   -9.2636   17.3041 C   0  0  0  0  0  0  0  0  0  0  0  0
   -1.8070   -5.6086   28.1920 O   0  0  0  0  0  0  0  0  0  0  0  0
   10.4296   -5.1799   28.3140 C   0  0  0  0  0  0  0  0  0  0  0  0
    6.6017   -5.9004   26.9187 C   0  0  0  0  0  0  0  0  0  0  0  0
    2.4761   -6.9940   26.4111 N   0  0  0  0  0  0  0  0  0  0  0  0
    9.1353   -5.4053   27.8239 C   0  0  0  0  0  0  0  0  0  0  0  0
    0.9922   -9.3232   16.5995 O   0  0  0  0  0  0  0  0  0  0  0  0
    1.5232   -7.6869   27.1182 C   0  0  0  0  0  0  0  0  0  0  0  0
    8.6878   -6.6715   27.7262 N   0  0  0  0  0  0  0  0  0  0  0  0
    6.9911   -8.2423   27.1808 C   0  0  0  0  0  0  0  0  0  0  0  0
    3.8436   -7.2758   16.0578 C   0  0  0  0  0  0  0  0  0  0  0  0
    3.1882   -9.7190   17.2566 C   0  0  0  0  0  0  0  0  0  0  0  0
    5.3488   -6.1737   26.5092 C   0  0  0  0  0  0  0  0  0  0  0  0
    7.4567   -6.9464   27.2858 C   0  0  0  0  0  0  0  0  0  0  0  0
    0.1921   -5.7592   27.1123 C   0  0  0  0  0  0  0  0  0  0  0  0
    3.5517   -7.7407   25.9711 C   0  0  0  0  0  0  0  0  0  0  0  0
  1  4  4  0
  1 22  4  0
  2 20  4  0
  2 27  4  0
  3 12  4  0
  3 23  4  0
  4 25  4  0
  4 28  1  0
  5  8  4  0
  5 17  4  0
  6  7  4  0
  6 16  4  0
  7 18  4  0
  8 27  4  0
  9 13  4  0
  9 23  4  0
 10 11  1  0
 11 14  2  0
 11 27  1  0
 12 19  1  0
 12 24  4  0
 13 24  4  0
 15 18  1  0
 16 25  4  0
 16 26  4  0
 17 20  4  0
 17 28  1  0
 18 21  4  0
 21 26  4  0
 22 26  4  0
M  END
$$$$

 Created by Python create_sdf_string function

 28 30  0  0  0  0  0  0  0  0999 V2000
    5.7174   -8.4529   26.7190 C   0  0  0  0  0  0  0  0  0  0  0  0
    0.3974   -7.0711   27.5149 C   0  0  0  0  0  0  0  0  0  0  0  0
    2.5338   -7.6891   16.0102 C   0  0  0  0  0  0  0  0  0  0  0  0
    4.8690   -7.4380   26.4151 C   0  0  0  0  0  0  0  0  0  0  0  0
    2.3021   -5.6726   26.0378 C   0  0  0  0  0  0  0  0  0  0  0  0
    7.0880   -4.6163   27.0010 C   0  0  0  0  0  0  0  0  0  0  0  0
    8.3117   -4.3698   27.4436 C   0  0  0  0  0  0  0  0  0  0  0  0
    1.1339   -5.0515   26.3541 C   0  0  0  0  0  0  0  0  0  0  0  0
    4.8080   -8.0362   16.7101 C   0  0  0  0  0  0  0  0  0  0  0  0
   -1.2173   -3.9294   26.9717 O   0  0  0  0  0  0  0  0  0  0  0  0
   -1.0025   -5.0942   27.4586 C   0  0  0  0  0  0  0  0  0  0  0  0
    2.2474   -8.9123   16.6273 C   0  0  0  0  0  0  0  0  0  0  0  0
    4.4957   -9.2636   17.3041 C   0  0  0  0  0  0  0  0  0  0  0  0
   -1.8070   -5.6086   28.1920 O   0  0  0  0  0  0  0  0  0  0  0  0
   10.4296   -5.1799   28.3140 C   0  0  0  0  0  0  0  0  0  0  0  0
    6.6017   -5.9004   26.9187 C   0  0  0  0  0  0  0  0  0  0  0  0
    2.4761   -6.9940   26.4111 N   0  0  0  0  0  0  0  0  0  0  0  0
    9.1353   -5.4053   27.8239 C   0  0  0  0  0  0  0  0  0  0  0  0
    0.9922   -9.3232   16.5995 O   0  0  0  0  0  0  0  0  0  0  0  0
    1.5232   -7.6869   27.1182 C   0  0  0  0  0  0  0  0  0  0  0  0
    8.6878   -6.6715   27.7262 N   0  0  0  0  0  0  0  0  0  0  0  0
    6.9911   -8.2423   27.1808 C   0  0  0  0  0  0  0  0  0  0  0  0
    3.8436   -7.2758   16.0578 C   0  0  0  0  0  0  0  0  0  0  0  0
    3.1882   -9.7190   17.2566 C   0  0  0  0  0  0  0  0  0  0  0  0
    5.3488   -6.1737   26.5092 C   0  0  0  0  0  0  0  0  0  0  0  0
    7.4567   -6.9464   27.2858 C   0  0  0  0  0  0  0  0  0  0  0  0
    0.1921   -5.7592   27.1123 C   0  0  0  0  0  0  0  0  0  0  0  0
    3.5517   -7.7407   25.9711 C   0  0  0  0  0  0  0  0  0  0  0  0
  1  4  4  0
  1 22  4  0
  2 20  4  0
  2 27  4  0
  3 12  4  0
  3 23  4  0
  4 25  4  0
  4 28  1  0
  5  8  4  0
  5 17  4  0
  6  7  4  0
  6 16  4  0
  7 18  4  0
  8 27  4  0
  9 13  4  0
  9 23  4  0
 10 11  1  0
 11 14  2  0
 11 27  1  0
 12 19  1  0
 12 24  4  0
 13 24  4  0
 15 18  1  0
 16 25  4  0
 16 26  4  0
 17 20  4  0
 17 28  1  0
 18 21  4  0
 21 26  4  0
 22 26  4  0
M  END
$$$$

 Created by Python create_sdf_string function

 28 30  0  0  0  0  0  0  0  0999 V2000
    5.7174   -8.4529   26.7190 C   0  0  0  0  0  0  0  0  0  0  0  0
    0.3974   -7.0711   27.5149 C   0  0  0  0  0  0  0  0  0  0  0  0
    2.5338   -7.6891   16.0102 C   0  0  0  0  0  0  0  0  0  0  0  0
    4.8690   -7.4380   26.4151 C   0  0  0  0  0  0  0  0  0  0  0  0
    2.3021   -5.6726   26.0378 C   0  0  0  0  0  0  0  0  0  0  0  0
    7.0880   -4.6163   27.0010 C   0  0  0  0  0  0  0  0  0  0  0  0
    8.3117   -4.3698   27.4436 C   0  0  0  0  0  0  0  0  0  0  0  0
    1.1339   -5.0515   26.3541 C   0  0  0  0  0  0  0  0  0  0  0  0
    4.8080   -8.0362   16.7101 C   0  0  0  0  0  0  0  0  0  0  0  0
   -1.2173   -3.9294   26.9717 O   0  0  0  0  0  0  0  0  0  0  0  0
   -1.0025   -5.0942   27.4586 C   0  0  0  0  0  0  0  0  0  0  0  0
    2.2474   -8.9123   16.6273 C   0  0  0  0  0  0  0  0  0  0  0  0
    4.4957   -9.2636   17.3041 C   0  0  0  0  0  0  0  0  0  0  0  0
   -1.8070   -5.6086   28.1920 O   0  0  0  0  0  0  0  0  0  0  0  0
   10.4296   -5.1799   28.3140 C   0  0  0  0  0  0  0  0  0  0  0  0
    6.6017   -5.9004   26.9187 C   0  0  0  0  0  0  0  0  0  0  0  0
    2.4761   -6.9940   26.4111 N   0  0  0  0  0  0  0  0  0  0  0  0
    9.1353   -5.4053   27.8239 C   0  0  0  0  0  0  0  0  0  0  0  0
    0.9922   -9.3232   16.5995 O   0  0  0  0  0  0  0  0  0  0  0  0
    1.5232   -7.6869   27.1182 C   0  0  0  0  0  0  0  0  0  0  0  0
    8.6878   -6.6715   27.7262 N   0  0  0  0  0  0  0  0  0  0  0  0
    6.9911   -8.2423   27.1808 C   0  0  0  0  0  0  0  0  0  0  0  0
    3.8436   -7.2758   16.0578 C   0  0  0  0  0  0  0  0  0  0  0  0
    3.1882   -9.7190   17.2566 C   0  0  0  0  0  0  0  0  0  0  0  0
    5.3488   -6.1737   26.5092 C   0  0  0  0  0  0  0  0  0  0  0  0
    7.4567   -6.9464   27.2858 C   0  0  0  0  0  0  0  0  0  0  0  0
    0.1921   -5.7592   27.1123 C   0  0  0  0  0  0  0  0  0  0  0  0
    3.5517   -7.7407   25.9711 C   0  0  0  0  0  0  0  0  0  0  0  0
  1  4  4  0
  1 22  4  0
  2 20  4  0
  2 27  4  0
  3 12  4  0
  3 23  4  0
  4 25  4  0
  4 28  1  0
  5  8  4  0
  5 17  4  0
  6  7  4  0
  6 16  4  0
  7 18  4  0
  8 27  4  0
  9 13  4  0
  9 23  4  0
 10 11  1  0
 11 14  2  0
 11 27  1  0
 12 19  1  0
 12 24  4  0
 13 24  4  0
 15 18  1  0
 16 25  4  0
 16 26  4  0
 17 20  4  0
 17 28  1  0
 18 21  4  0
 21 26  4  0
 22 26  4  0
M  END
$$$$

 Created by Python create_sdf_string function

 28 30  0  0  0  0  0  0  0  0999 V2000
    5.7174   -8.4529   26.7190 C   0  0  0  0  0  0  0  0  0  0  0  0
    0.3974   -7.0711   27.5149 C   0  0  0  0  0  0  0  0  0  0  0  0
    2.5338   -7.6891   16.0102 C   0  0  0  0  0  0  0  0  0  0  0  0
    4.8690   -7.4380   26.4151 C   0  0  0  0  0  0  0  0  0  0  0  0
    2.3021   -5.6726   26.0378 C   0  0  0  0  0  0  0  0  0  0  0  0
    7.0880   -4.6163   27.0010 C   0  0  0  0  0  0  0  0  0  0  0  0
    8.3117   -4.3698   27.4436 C   0  0  0  0  0  0  0  0  0  0  0  0
    1.1339   -5.0515   26.3541 C   0  0  0  0  0  0  0  0  0  0  0  0
    4.8080   -8.0362   16.7101 C   0  0  0  0  0  0  0  0  0  0  0  0
   -1.2173   -3.9294   26.9717 O   0  0  0  0  0  0  0  0  0  0  0  0
   -1.0025   -5.0942   27.4586 C   0  0  0  0  0  0  0  0  0  0  0  0
    2.2474   -8.9123   16.6273 C   0  0  0  0  0  0  0  0  0  0  0  0
    4.4957   -9.2636   17.3041 C   0  0  0  0  0  0  0  0  0  0  0  0
   -1.8070   -5.6086   28.1920 O   0  0  0  0  0  0  0  0  0  0  0  0
   10.4296   -5.1799   28.3140 C   0  0  0  0  0  0  0  0  0  0  0  0
    6.6017   -5.9004   26.9187 C   0  0  0  0  0  0  0  0  0  0  0  0
    2.4761   -6.9940   26.4111 N   0  0  0  0  0  0  0  0  0  0  0  0
    9.1353   -5.4053   27.8239 C   0  0  0  0  0  0  0  0  0  0  0  0
    0.9922   -9.3232   16.5995 O   0  0  0  0  0  0  0  0  0  0  0  0
    1.5232   -7.6869   27.1182 C   0  0  0  0  0  0  0  0  0  0  0  0
    8.6878   -6.6715   27.7262 N   0  0  0  0  0  0  0  0  0  0  0  0
    6.9911   -8.2423   27.1808 C   0  0  0  0  0  0  0  0  0  0  0  0
    3.8436   -7.2758   16.0578 C   0  0  0  0  0  0  0  0  0  0  0  0
    3.1882   -9.7190   17.2566 C   0  0  0  0  0  0  0  0  0  0  0  0
    5.3488   -6.1737   26.5092 C   0  0  0  0  0  0  0  0  0  0  0  0
    7.4567   -6.9464   27.2858 C   0  0  0  0  0  0  0  0  0  0  0  0
    0.1921   -5.7592   27.1123 C   0  0  0  0  0  0  0  0  0  0  0  0
    3.5517   -7.7407   25.9711 C   0  0  0  0  0  0  0  0  0  0  0  0
  1  4  4  0
  1 22  4  0
  2 20  4  0
  2 27  4  0
  3 12  4  0
  3 23  4  0
  4 25  4  0
  4 28  1  0
  5  8  4  0
  5 17  4  0
  6  7  4  0
  6 16  4  0
  7 18  4  0
  8 27  4  0
  9 13  4  0
  9 23  4  0
 10 11  1  0
 11 14  2  0
 11 27  1  0
 12 19  1  0
 12 24  4  0
 13 24  4  0
 15 18  1  0
 16 25  4  0
 16 26  4  0
 17 20  4  0
 17 28  1  0
 18 21  4  0
 21 26  4  0
 22 26  4  0
M  END
$$$$

 Created by Python create_sdf_string function

 28 30  0  0  0  0  0  0  0  0999 V2000
    5.7174   -8.4529   26.7190 C   0  0  0  0  0  0  0  0  0  0  0  0
    0.3974   -7.0711   27.5149 C   0  0  0  0  0  0  0  0  0  0  0  0
    2.5338   -7.6891   16.0102 C   0  0  0  0  0  0  0  0  0  0  0  0
    4.8690   -7.4380   26.4151 C   0  0  0  0  0  0  0  0  0  0  0  0
    2.3021   -5.6726   26.0378 C   0  0  0  0  0  0  0  0  0  0  0  0
    7.0880   -4.6163   27.0010 C   0  0  0  0  0  0  0  0  0  0  0  0
    8.3117   -4.3698   27.4436 C   0  0  0  0  0  0  0  0  0  0  0  0
    1.1339   -5.0515   26.3541 C   0  0  0  0  0  0  0  0  0  0  0  0
    4.8080   -8.0362   16.7101 C   0  0  0  0  0  0  0  0  0  0  0  0
   -1.2173   -3.9294   26.9717 O   0  0  0  0  0  0  0  0  0  0  0  0
   -1.0025   -5.0942   27.4586 C   0  0  0  0  0  0  0  0  0  0  0  0
    2.2474   -8.9123   16.6273 C   0  0  0  0  0  0  0  0  0  0  0  0
    4.4957   -9.2636   17.3041 C   0  0  0  0  0  0  0  0  0  0  0  0
   -1.8070   -5.6086   28.1920 O   0  0  0  0  0  0  0  0  0  0  0  0
   10.4296   -5.1799   28.3140 C   0  0  0  0  0  0  0  0  0  0  0  0
    6.6017   -5.9004   26.9187 C   0  0  0  0  0  0  0  0  0  0  0  0
    2.4761   -6.9940   26.4111 N   0  0  0  0  0  0  0  0  0  0  0  0
    9.1353   -5.4053   27.8239 C   0  0  0  0  0  0  0  0  0  0  0  0
    0.9922   -9.3232   16.5995 O   0  0  0  0  0  0  0  0  0  0  0  0
    1.5232   -7.6869   27.1182 C   0  0  0  0  0  0  0  0  0  0  0  0
    8.6878   -6.6715   27.7262 N   0  0  0  0  0  0  0  0  0  0  0  0
    6.9911   -8.2423   27.1808 C   0  0  0  0  0  0  0  0  0  0  0  0
    3.8436   -7.2758   16.0578 C   0  0  0  0  0  0  0  0  0  0  0  0
    3.1882   -9.7190   17.2566 C   0  0  0  0  0  0  0  0  0  0  0  0
    5.3488   -6.1737   26.5092 C   0  0  0  0  0  0  0  0  0  0  0  0
    7.4567   -6.9464   27.2858 C   0  0  0  0  0  0  0  0  0  0  0  0
    0.1921   -5.7592   27.1123 C   0  0  0  0  0  0  0  0  0  0  0  0
    3.5517   -7.7407   25.9711 C   0  0  0  0  0  0  0  0  0  0  0  0
  1  4  4  0
  1 22  4  0
  2 20  4  0
  2 27  4  0
  3 12  4  0
  3 23  4  0
  4 25  4  0
  4 28  1  0
  5  8  4  0
  5 17  4  0
  6  7  4  0
  6 16  4  0
  7 18  4  0
  8 27  4  0
  9 13  4  0
  9 23  4  0
 10 11  1  0
 11 14  2  0
 11 27  1  0
 12 19  1  0
 12 24  4  0
 13 24  4  0
 15 18  1  0
 16 25  4  0
 16 26  4  0
 17 20  4  0
 17 28  1  0
 18 21  4  0
 21 26  4  0
 22 26  4  0
M  END
$$$$

 Created by Python create_sdf_string function

 28 30  0  0  0  0  0  0  0  0999 V2000
    5.7174   -8.4529   26.7190 C   0  0  0  0  0  0  0  0  0  0  0  0
    0.3974   -7.0711   27.5149 C   0  0  0  0  0  0  0  0  0  0  0  0
    2.5338   -7.6891   16.0102 C   0  0  0  0  0  0  0  0  0  0  0  0
    4.8690   -7.4380   26.4151 C   0  0  0  0  0  0  0  0  0  0  0  0
    2.3021   -5.6726   26.0378 C   0  0  0  0  0  0  0  0  0  0  0  0
    7.0880   -4.6163   27.0010 C   0  0  0  0  0  0  0  0  0  0  0  0
    8.3117   -4.3698   27.4436 C   0  0  0  0  0  0  0  0  0  0  0  0
    1.1339   -5.0515   26.3541 C   0  0  0  0  0  0  0  0  0  0  0  0
    4.8080   -8.0362   16.7101 C   0  0  0  0  0  0  0  0  0  0  0  0
   -1.2173   -3.9294   26.9717 O   0  0  0  0  0  0  0  0  0  0  0  0
   -1.0025   -5.0942   27.4586 C   0  0  0  0  0  0  0  0  0  0  0  0
    2.2474   -8.9123   16.6273 C   0  0  0  0  0  0  0  0  0  0  0  0
    4.4957   -9.2636   17.3041 C   0  0  0  0  0  0  0  0  0  0  0  0
   -1.8070   -5.6086   28.1920 O   0  0  0  0  0  0  0  0  0  0  0  0
   10.4296   -5.1799   28.3140 C   0  0  0  0  0  0  0  0  0  0  0  0
    6.6017   -5.9004   26.9187 C   0  0  0  0  0  0  0  0  0  0  0  0
    2.4761   -6.9940   26.4111 N   0  0  0  0  0  0  0  0  0  0  0  0
    9.1353   -5.4053   27.8239 C   0  0  0  0  0  0  0  0  0  0  0  0
    0.9922   -9.3232   16.5995 O   0  0  0  0  0  0  0  0  0  0  0  0
    1.5232   -7.6869   27.1182 C   0  0  0  0  0  0  0  0  0  0  0  0
    8.6878   -6.6715   27.7262 N   0  0  0  0  0  0  0  0  0  0  0  0
    6.9911   -8.2423   27.1808 C   0  0  0  0  0  0  0  0  0  0  0  0
    3.8436   -7.2758   16.0578 C   0  0  0  0  0  0  0  0  0  0  0  0
    3.1882   -9.7190   17.2566 C   0  0  0  0  0  0  0  0  0  0  0  0
    5.3488   -6.1737   26.5092 C   0  0  0  0  0  0  0  0  0  0  0  0
    7.4567   -6.9464   27.2858 C   0  0  0  0  0  0  0  0  0  0  0  0
    0.1921   -5.7592   27.1123 C   0  0  0  0  0  0  0  0  0  0  0  0
    3.5517   -7.7407   25.9711 C   0  0  0  0  0  0  0  0  0  0  0  0
  1  4  4  0
  1 22  4  0
  2 20  4  0
  2 27  4  0
  3 12  4  0
  3 23  4  0
  4 25  4  0
  4 28  1  0
  5  8  4  0
  5 17  4  0
  6  7  4  0
  6 16  4  0
  7 18  4  0
  8 27  4  0
  9 13  4  0
  9 23  4  0
 10 11  1  0
 11 14  2  0
 11 27  1  0
 12 19  1  0
 12 24  4  0
 13 24  4  0
 15 18  1  0
 16 25  4  0
 16 26  4  0
 17 20  4  0
 17 28  1  0
 18 21  4  0
 21 26  4  0
 22 26  4  0
M  END
$$$$

 Created by Python create_sdf_string function

 28 30  0  0  0  0  0  0  0  0999 V2000
    5.7174   -8.4529   26.7190 C   0  0  0  0  0  0  0  0  0  0  0  0
    0.3974   -7.0711   27.5149 C   0  0  0  0  0  0  0  0  0  0  0  0
    2.5338   -7.6891   16.0102 C   0  0  0  0  0  0  0  0  0  0  0  0
    4.8690   -7.4380   26.4151 C   0  0  0  0  0  0  0  0  0  0  0  0
    2.3021   -5.6726   26.0378 C   0  0  0  0  0  0  0  0  0  0  0  0
    7.0880   -4.6163   27.0010 C   0  0  0  0  0  0  0  0  0  0  0  0
    8.3117   -4.3698   27.4436 C   0  0  0  0  0  0  0  0  0  0  0  0
    1.1339   -5.0515   26.3541 C   0  0  0  0  0  0  0  0  0  0  0  0
    4.8080   -8.0362   16.7101 C   0  0  0  0  0  0  0  0  0  0  0  0
   -1.2173   -3.9294   26.9717 O   0  0  0  0  0  0  0  0  0  0  0  0
   -1.0025   -5.0942   27.4586 C   0  0  0  0  0  0  0  0  0  0  0  0
    2.2474   -8.9123   16.6273 C   0  0  0  0  0  0  0  0  0  0  0  0
    4.4957   -9.2636   17.3041 C   0  0  0  0  0  0  0  0  0  0  0  0
   -1.8070   -5.6086   28.1920 O   0  0  0  0  0  0  0  0  0  0  0  0
   10.4296   -5.1799   28.3140 C   0  0  0  0  0  0  0  0  0  0  0  0
    6.6017   -5.9004   26.9187 C   0  0  0  0  0  0  0  0  0  0  0  0
    2.4761   -6.9940   26.4111 N   0  0  0  0  0  0  0  0  0  0  0  0
    9.1353   -5.4053   27.8239 C   0  0  0  0  0  0  0  0  0  0  0  0
    0.9922   -9.3232   16.5995 O   0  0  0  0  0  0  0  0  0  0  0  0
    1.5232   -7.6869   27.1182 C   0  0  0  0  0  0  0  0  0  0  0  0
    8.6878   -6.6715   27.7262 N   0  0  0  0  0  0  0  0  0  0  0  0
    6.9911   -8.2423   27.1808 C   0  0  0  0  0  0  0  0  0  0  0  0
    3.8436   -7.2758   16.0578 C   0  0  0  0  0  0  0  0  0  0  0  0
    3.1882   -9.7190   17.2566 C   0  0  0  0  0  0  0  0  0  0  0  0
    5.3488   -6.1737   26.5092 C   0  0  0  0  0  0  0  0  0  0  0  0
    7.4567   -6.9464   27.2858 C   0  0  0  0  0  0  0  0  0  0  0  0
    0.1921   -5.7592   27.1123 C   0  0  0  0  0  0  0  0  0  0  0  0
    3.5517   -7.7407   25.9711 C   0  0  0  0  0  0  0  0  0  0  0  0
  1  4  4  0
  1 22  4  0
  2 20  4  0
  2 27  4  0
  3 12  4  0
  3 23  4  0
  4 25  4  0
  4 28  1  0
  5  8  4  0
  5 17  4  0
  6  7  4  0
  6 16  4  0
  7 18  4  0
  8 27  4  0
  9 13  4  0
  9 23  4  0
 10 11  1  0
 11 14  2  0
 11 27  1  0
 12 19  1  0
 12 24  4  0
 13 24  4  0
 15 18  1  0
 16 25  4  0
 16 26  4  0
 17 20  4  0
 17 28  1  0
 18 21  4  0
 21 26  4  0
 22 26  4  0
M  END
$$$$

 Created by Python create_sdf_string function

 28 30  0  0  0  0  0  0  0  0999 V2000
    5.7174   -8.4529   26.7190 C   0  0  0  0  0  0  0  0  0  0  0  0
    0.3974   -7.0711   27.5149 C   0  0  0  0  0  0  0  0  0  0  0  0
    2.5338   -7.6891   16.0102 C   0  0  0  0  0  0  0  0  0  0  0  0
    4.8690   -7.4380   26.4151 C   0  0  0  0  0  0  0  0  0  0  0  0
    2.3021   -5.6726   26.0378 C   0  0  0  0  0  0  0  0  0  0  0  0
    7.0880   -4.6163   27.0010 C   0  0  0  0  0  0  0  0  0  0  0  0
    8.3117   -4.3698   27.4436 C   0  0  0  0  0  0  0  0  0  0  0  0
    1.1339   -5.0515   26.3541 C   0  0  0  0  0  0  0  0  0  0  0  0
    4.8080   -8.0362   16.7101 C   0  0  0  0  0  0  0  0  0  0  0  0
   -1.2173   -3.9294   26.9717 O   0  0  0  0  0  0  0  0  0  0  0  0
   -1.0025   -5.0942   27.4586 C   0  0  0  0  0  0  0  0  0  0  0  0
    2.2474   -8.9123   16.6273 C   0  0  0  0  0  0  0  0  0  0  0  0
    4.4957   -9.2636   17.3041 C   0  0  0  0  0  0  0  0  0  0  0  0
   -1.8070   -5.6086   28.1920 O   0  0  0  0  0  0  0  0  0  0  0  0
   10.4296   -5.1799   28.3140 C   0  0  0  0  0  0  0  0  0  0  0  0
    6.6017   -5.9004   26.9187 C   0  0  0  0  0  0  0  0  0  0  0  0
    2.4761   -6.9940   26.4111 N   0  0  0  0  0  0  0  0  0  0  0  0
    9.1353   -5.4053   27.8239 C   0  0  0  0  0  0  0  0  0  0  0  0
    0.9922   -9.3232   16.5995 O   0  0  0  0  0  0  0  0  0  0  0  0
    1.5232   -7.6869   27.1182 C   0  0  0  0  0  0  0  0  0  0  0  0
    8.6878   -6.6715   27.7262 N   0  0  0  0  0  0  0  0  0  0  0  0
    6.9911   -8.2423   27.1808 C   0  0  0  0  0  0  0  0  0  0  0  0
    3.8436   -7.2758   16.0578 C   0  0  0  0  0  0  0  0  0  0  0  0
    3.1882   -9.7190   17.2566 C   0  0  0  0  0  0  0  0  0  0  0  0
    5.3488   -6.1737   26.5092 C   0  0  0  0  0  0  0  0  0  0  0  0
    7.4567   -6.9464   27.2858 C   0  0  0  0  0  0  0  0  0  0  0  0
    0.1921   -5.7592   27.1123 C   0  0  0  0  0  0  0  0  0  0  0  0
    3.5517   -7.7407   25.9711 C   0  0  0  0  0  0  0  0  0  0  0  0
  1  4  4  0
  1 22  4  0
  2 20  4  0
  2 27  4  0
  3 12  4  0
  3 23  4  0
  4 25  4  0
  4 28  1  0
  5  8  4  0
  5 17  4  0
  6  7  4  0
  6 16  4  0
  7 18  4  0
  8 27  4  0
  9 13  4  0
  9 23  4  0
 10 11  1  0
 11 14  2  0
 11 27  1  0
 12 19  1  0
 12 24  4  0
 13 24  4  0
 15 18  1  0
 16 25  4  0
 16 26  4  0
 17 20  4  0
 17 28  1  0
 18 21  4  0
 21 26  4  0
 22 26  4  0
M  END
$$$$

 Created by Python create_sdf_string function

 28 30  0  0  0  0  0  0  0  0999 V2000
    5.7174   -8.4529   26.7190 C   0  0  0  0  0  0  0  0  0  0  0  0
    0.3974   -7.0711   27.5149 C   0  0  0  0  0  0  0  0  0  0  0  0
    2.5338   -7.6891   16.0102 C   0  0  0  0  0  0  0  0  0  0  0  0
    4.8690   -7.4380   26.4151 C   0  0  0  0  0  0  0  0  0  0  0  0
    2.3021   -5.6726   26.0378 C   0  0  0  0  0  0  0  0  0  0  0  0
    7.0880   -4.6163   27.0010 C   0  0  0  0  0  0  0  0  0  0  0  0
    8.3117   -4.3698   27.4436 C   0  0  0  0  0  0  0  0  0  0  0  0
    1.1339   -5.0515   26.3541 C   0  0  0  0  0  0  0  0  0  0  0  0
    4.8080   -8.0362   16.7101 C   0  0  0  0  0  0  0  0  0  0  0  0
   -1.2173   -3.9294   26.9717 O   0  0  0  0  0  0  0  0  0  0  0  0
   -1.0025   -5.0942   27.4586 C   0  0  0  0  0  0  0  0  0  0  0  0
    2.2474   -8.9123   16.6273 C   0  0  0  0  0  0  0  0  0  0  0  0
    4.4957   -9.2636   17.3041 C   0  0  0  0  0  0  0  0  0  0  0  0
   -1.8070   -5.6086   28.1920 O   0  0  0  0  0  0  0  0  0  0  0  0
   10.4296   -5.1799   28.3140 C   0  0  0  0  0  0  0  0  0  0  0  0
    6.6017   -5.9004   26.9187 C   0  0  0  0  0  0  0  0  0  0  0  0
    2.4761   -6.9940   26.4111 N   0  0  0  0  0  0  0  0  0  0  0  0
    9.1353   -5.4053   27.8239 C   0  0  0  0  0  0  0  0  0  0  0  0
    0.9922   -9.3232   16.5995 O   0  0  0  0  0  0  0  0  0  0  0  0
    1.5232   -7.6869   27.1182 C   0  0  0  0  0  0  0  0  0  0  0  0
    8.6878   -6.6715   27.7262 N   0  0  0  0  0  0  0  0  0  0  0  0
    6.9911   -8.2423   27.1808 C   0  0  0  0  0  0  0  0  0  0  0  0
    3.8436   -7.2758   16.0578 C   0  0  0  0  0  0  0  0  0  0  0  0
    3.1882   -9.7190   17.2566 C   0  0  0  0  0  0  0  0  0  0  0  0
    5.3488   -6.1737   26.5092 C   0  0  0  0  0  0  0  0  0  0  0  0
    7.4567   -6.9464   27.2858 C   0  0  0  0  0  0  0  0  0  0  0  0
    0.1921   -5.7592   27.1123 C   0  0  0  0  0  0  0  0  0  0  0  0
    3.5517   -7.7407   25.9711 C   0  0  0  0  0  0  0  0  0  0  0  0
  1  4  4  0
  1 22  4  0
  2 20  4  0
  2 27  4  0
  3 12  4  0
  3 23  4  0
  4 25  4  0
  4 28  1  0
  5  8  4  0
  5 17  4  0
  6  7  4  0
  6 16  4  0
  7 18  4  0
  8 27  4  0
  9 13  4  0
  9 23  4  0
 10 11  1  0
 11 14  2  0
 11 27  1  0
 12 19  1  0
 12 24  4  0
 13 24  4  0
 15 18  1  0
 16 25  4  0
 16 26  4  0
 17 20  4  0
 17 28  1  0
 18 21  4  0
 21 26  4  0
 22 26  4  0
M  END
$$$$

 Created by Python create_sdf_string function

 28 30  0  0  0  0  0  0  0  0999 V2000
    5.7174   -8.4529   26.7190 C   0  0  0  0  0  0  0  0  0  0  0  0
    0.3974   -7.0711   27.5149 C   0  0  0  0  0  0  0  0  0  0  0  0
    2.5338   -7.6891   16.0102 C   0  0  0  0  0  0  0  0  0  0  0  0
    4.8690   -7.4380   26.4151 C   0  0  0  0  0  0  0  0  0  0  0  0
    2.3021   -5.6726   26.0378 C   0  0  0  0  0  0  0  0  0  0  0  0
    7.0880   -4.6163   27.0010 C   0  0  0  0  0  0  0  0  0  0  0  0
    8.3117   -4.3698   27.4436 C   0  0  0  0  0  0  0  0  0  0  0  0
    1.1339   -5.0515   26.3541 C   0  0  0  0  0  0  0  0  0  0  0  0
    4.8080   -8.0362   16.7101 C   0  0  0  0  0  0  0  0  0  0  0  0
   -1.2173   -3.9294   26.9717 O   0  0  0  0  0  0  0  0  0  0  0  0
   -1.0025   -5.0942   27.4586 C   0  0  0  0  0  0  0  0  0  0  0  0
    2.2474   -8.9123   16.6273 C   0  0  0  0  0  0  0  0  0  0  0  0
    4.4957   -9.2636   17.3041 C   0  0  0  0  0  0  0  0  0  0  0  0
   -1.8070   -5.6086   28.1920 O   0  0  0  0  0  0  0  0  0  0  0  0
   10.4296   -5.1799   28.3140 C   0  0  0  0  0  0  0  0  0  0  0  0
    6.6017   -5.9004   26.9187 C   0  0  0  0  0  0  0  0  0  0  0  0
    2.4761   -6.9940   26.4111 N   0  0  0  0  0  0  0  0  0  0  0  0
    9.1353   -5.4053   27.8239 C   0  0  0  0  0  0  0  0  0  0  0  0
    0.9922   -9.3232   16.5995 O   0  0  0  0  0  0  0  0  0  0  0  0
    1.5232   -7.6869   27.1182 C   0  0  0  0  0  0  0  0  0  0  0  0
    8.6878   -6.6715   27.7262 N   0  0  0  0  0  0  0  0  0  0  0  0
    6.9911   -8.2423   27.1808 C   0  0  0  0  0  0  0  0  0  0  0  0
    3.8436   -7.2758   16.0578 C   0  0  0  0  0  0  0  0  0  0  0  0
    3.1882   -9.7190   17.2566 C   0  0  0  0  0  0  0  0  0  0  0  0
    5.3488   -6.1737   26.5092 C   0  0  0  0  0  0  0  0  0  0  0  0
    7.4567   -6.9464   27.2858 C   0  0  0  0  0  0  0  0  0  0  0  0
    0.1921   -5.7592   27.1123 C   0  0  0  0  0  0  0  0  0  0  0  0
    3.5517   -7.7407   25.9711 C   0  0  0  0  0  0  0  0  0  0  0  0
  1  4  4  0
  1 22  4  0
  2 20  4  0
  2 27  4  0
  3 12  4  0
  3 23  4  0
  4 25  4  0
  4 28  1  0
  5  8  4  0
  5 17  4  0
  6  7  4  0
  6 16  4  0
  7 18  4  0
  8 27  4  0
  9 13  4  0
  9 23  4  0
 10 11  1  0
 11 14  2  0
 11 27  1  0
 12 19  1  0
 12 24  4  0
 13 24  4  0
 15 18  1  0
 16 25  4  0
 16 26  4  0
 17 20  4  0
 17 28  1  0
 18 21  4  0
 21 26  4  0
 22 26  4  0
M  END
$$$$

 Created by Python create_sdf_string function

 28 30  0  0  0  0  0  0  0  0999 V2000
    5.7174   -8.4529   26.7190 C   0  0  0  0  0  0  0  0  0  0  0  0
    0.3974   -7.0711   27.5149 C   0  0  0  0  0  0  0  0  0  0  0  0
    2.5338   -7.6891   16.0102 C   0  0  0  0  0  0  0  0  0  0  0  0
    4.8690   -7.4380   26.4151 C   0  0  0  0  0  0  0  0  0  0  0  0
    2.3021   -5.6726   26.0378 C   0  0  0  0  0  0  0  0  0  0  0  0
    7.0880   -4.6163   27.0010 C   0  0  0  0  0  0  0  0  0  0  0  0
    8.3117   -4.3698   27.4436 C   0  0  0  0  0  0  0  0  0  0  0  0
    1.1339   -5.0515   26.3541 C   0  0  0  0  0  0  0  0  0  0  0  0
    4.8080   -8.0362   16.7101 C   0  0  0  0  0  0  0  0  0  0  0  0
   -1.2173   -3.9294   26.9717 O   0  0  0  0  0  0  0  0  0  0  0  0
   -1.0025   -5.0942   27.4586 C   0  0  0  0  0  0  0  0  0  0  0  0
    2.2474   -8.9123   16.6273 C   0  0  0  0  0  0  0  0  0  0  0  0
    4.4957   -9.2636   17.3041 C   0  0  0  0  0  0  0  0  0  0  0  0
   -1.8070   -5.6086   28.1920 O   0  0  0  0  0  0  0  0  0  0  0  0
   10.4296   -5.1799   28.3140 C   0  0  0  0  0  0  0  0  0  0  0  0
    6.6017   -5.9004   26.9187 C   0  0  0  0  0  0  0  0  0  0  0  0
    2.4761   -6.9940   26.4111 N   0  0  0  0  0  0  0  0  0  0  0  0
    9.1353   -5.4053   27.8239 C   0  0  0  0  0  0  0  0  0  0  0  0
    0.9922   -9.3232   16.5995 O   0  0  0  0  0  0  0  0  0  0  0  0
    1.5232   -7.6869   27.1182 C   0  0  0  0  0  0  0  0  0  0  0  0
    8.6878   -6.6715   27.7262 N   0  0  0  0  0  0  0  0  0  0  0  0
    6.9911   -8.2423   27.1808 C   0  0  0  0  0  0  0  0  0  0  0  0
    3.8436   -7.2758   16.0578 C   0  0  0  0  0  0  0  0  0  0  0  0
    3.1882   -9.7190   17.2566 C   0  0  0  0  0  0  0  0  0  0  0  0
    5.3488   -6.1737   26.5092 C   0  0  0  0  0  0  0  0  0  0  0  0
    7.4567   -6.9464   27.2858 C   0  0  0  0  0  0  0  0  0  0  0  0
    0.1921   -5.7592   27.1123 C   0  0  0  0  0  0  0  0  0  0  0  0
    3.5517   -7.7407   25.9711 C   0  0  0  0  0  0  0  0  0  0  0  0
  1  4  4  0
  1 22  4  0
  2 20  4  0
  2 27  4  0
  3 12  4  0
  3 23  4  0
  4 25  4  0
  4 28  1  0
  5  8  4  0
  5 17  4  0
  6  7  4  0
  6 16  4  0
  7 18  4  0
  8 27  4  0
  9 13  4  0
  9 23  4  0
 10 11  1  0
 11 14  2  0
 11 27  1  0
 12 19  1  0
 12 24  4  0
 13 24  4  0
 15 18  1  0
 16 25  4  0
 16 26  4  0
 17 20  4  0
 17 28  1  0
 18 21  4  0
 21 26  4  0
 22 26  4  0
M  END
$$$$

 Created by Python create_sdf_string function

 28 30  0  0  0  0  0  0  0  0999 V2000
    5.7174   -8.4529   26.7190 C   0  0  0  0  0  0  0  0  0  0  0  0
    0.3974   -7.0711   27.5149 C   0  0  0  0  0  0  0  0  0  0  0  0
    2.5338   -7.6891   16.0102 C   0  0  0  0  0  0  0  0  0  0  0  0
    4.8690   -7.4380   26.4151 C   0  0  0  0  0  0  0  0  0  0  0  0
    2.3021   -5.6726   26.0378 C   0  0  0  0  0  0  0  0  0  0  0  0
    7.0880   -4.6163   27.0010 C   0  0  0  0  0  0  0  0  0  0  0  0
    8.3117   -4.3698   27.4436 C   0  0  0  0  0  0  0  0  0  0  0  0
    1.1339   -5.0515   26.3541 C   0  0  0  0  0  0  0  0  0  0  0  0
    4.8080   -8.0362   16.7101 C   0  0  0  0  0  0  0  0  0  0  0  0
   -1.2173   -3.9294   26.9717 O   0  0  0  0  0  0  0  0  0  0  0  0
   -1.0025   -5.0942   27.4586 C   0  0  0  0  0  0  0  0  0  0  0  0
    2.2474   -8.9123   16.6273 C   0  0  0  0  0  0  0  0  0  0  0  0
    4.4957   -9.2636   17.3041 C   0  0  0  0  0  0  0  0  0  0  0  0
   -1.8070   -5.6086   28.1920 O   0  0  0  0  0  0  0  0  0  0  0  0
   10.4296   -5.1799   28.3140 C   0  0  0  0  0  0  0  0  0  0  0  0
    6.6017   -5.9004   26.9187 C   0  0  0  0  0  0  0  0  0  0  0  0
    2.4761   -6.9940   26.4111 N   0  0  0  0  0  0  0  0  0  0  0  0
    9.1353   -5.4053   27.8239 C   0  0  0  0  0  0  0  0  0  0  0  0
    0.9922   -9.3232   16.5995 O   0  0  0  0  0  0  0  0  0  0  0  0
    1.5232   -7.6869   27.1182 C   0  0  0  0  0  0  0  0  0  0  0  0
    8.6878   -6.6715   27.7262 N   0  0  0  0  0  0  0  0  0  0  0  0
    6.9911   -8.2423   27.1808 C   0  0  0  0  0  0  0  0  0  0  0  0
    3.8436   -7.2758   16.0578 C   0  0  0  0  0  0  0  0  0  0  0  0
    3.1882   -9.7190   17.2566 C   0  0  0  0  0  0  0  0  0  0  0  0
    5.3488   -6.1737   26.5092 C   0  0  0  0  0  0  0  0  0  0  0  0
    7.4567   -6.9464   27.2858 C   0  0  0  0  0  0  0  0  0  0  0  0
    0.1921   -5.7592   27.1123 C   0  0  0  0  0  0  0  0  0  0  0  0
    3.5517   -7.7407   25.9711 C   0  0  0  0  0  0  0  0  0  0  0  0
  1  4  4  0
  1 22  4  0
  2 20  4  0
  2 27  4  0
  3 12  4  0
  3 23  4  0
  4 25  4  0
  4 28  1  0
  5  8  4  0
  5 17  4  0
  6  7  4  0
  6 16  4  0
  7 18  4  0
  8 27  4  0
  9 13  4  0
  9 23  4  0
 10 11  1  0
 11 14  2  0
 11 27  1  0
 12 19  1  0
 12 24  4  0
 13 24  4  0
 15 18  1  0
 16 25  4  0
 16 26  4  0
 17 20  4  0
 17 28  1  0
 18 21  4  0
 21 26  4  0
 22 26  4  0
M  END
$$$$

 Created by Python create_sdf_string function

 28 30  0  0  0  0  0  0  0  0999 V2000
    5.7174   -8.4529   26.7190 C   0  0  0  0  0  0  0  0  0  0  0  0
    0.3974   -7.0711   27.5149 C   0  0  0  0  0  0  0  0  0  0  0  0
    2.5338   -7.6891   16.0102 C   0  0  0  0  0  0  0  0  0  0  0  0
    4.8690   -7.4380   26.4151 C   0  0  0  0  0  0  0  0  0  0  0  0
    2.3021   -5.6726   26.0378 C   0  0  0  0  0  0  0  0  0  0  0  0
    7.0880   -4.6163   27.0010 C   0  0  0  0  0  0  0  0  0  0  0  0
    8.3117   -4.3698   27.4436 C   0  0  0  0  0  0  0  0  0  0  0  0
    1.1339   -5.0515   26.3541 C   0  0  0  0  0  0  0  0  0  0  0  0
    4.8080   -8.0362   16.7101 C   0  0  0  0  0  0  0  0  0  0  0  0
   -1.2173   -3.9294   26.9717 O   0  0  0  0  0  0  0  0  0  0  0  0
   -1.0025   -5.0942   27.4586 C   0  0  0  0  0  0  0  0  0  0  0  0
    2.2474   -8.9123   16.6273 C   0  0  0  0  0  0  0  0  0  0  0  0
    4.4957   -9.2636   17.3041 C   0  0  0  0  0  0  0  0  0  0  0  0
   -1.8070   -5.6086   28.1920 O   0  0  0  0  0  0  0  0  0  0  0  0
   10.4296   -5.1799   28.3140 C   0  0  0  0  0  0  0  0  0  0  0  0
    6.6017   -5.9004   26.9187 C   0  0  0  0  0  0  0  0  0  0  0  0
    2.4761   -6.9940   26.4111 N   0  0  0  0  0  0  0  0  0  0  0  0
    9.1353   -5.4053   27.8239 C   0  0  0  0  0  0  0  0  0  0  0  0
    0.9922   -9.3232   16.5995 O   0  0  0  0  0  0  0  0  0  0  0  0
    1.5232   -7.6869   27.1182 C   0  0  0  0  0  0  0  0  0  0  0  0
    8.6878   -6.6715   27.7262 N   0  0  0  0  0  0  0  0  0  0  0  0
    6.9911   -8.2423   27.1808 C   0  0  0  0  0  0  0  0  0  0  0  0
    3.8436   -7.2758   16.0578 C   0  0  0  0  0  0  0  0  0  0  0  0
    3.1882   -9.7190   17.2566 C   0  0  0  0  0  0  0  0  0  0  0  0
    5.3488   -6.1737   26.5092 C   0  0  0  0  0  0  0  0  0  0  0  0
    7.4567   -6.9464   27.2858 C   0  0  0  0  0  0  0  0  0  0  0  0
    0.1921   -5.7592   27.1123 C   0  0  0  0  0  0  0  0  0  0  0  0
    3.5517   -7.7407   25.9711 C   0  0  0  0  0  0  0  0  0  0  0  0
  1  4  4  0
  1 22  4  0
  2 20  4  0
  2 27  4  0
  3 12  4  0
  3 23  4  0
  4 25  4  0
  4 28  1  0
  5  8  4  0
  5 17  4  0
  6  7  4  0
  6 16  4  0
  7 18  4  0
  8 27  4  0
  9 13  4  0
  9 23  4  0
 10 11  1  0
 11 14  2  0
 11 27  1  0
 12 19  1  0
 12 24  4  0
 13 24  4  0
 15 18  1  0
 16 25  4  0
 16 26  4  0
 17 20  4  0
 17 28  1  0
 18 21  4  0
 21 26  4  0
 22 26  4  0
M  END
$$$$

 Created by Python create_sdf_string function

 28 30  0  0  0  0  0  0  0  0999 V2000
    5.7174   -8.4529   26.7190 C   0  0  0  0  0  0  0  0  0  0  0  0
    0.3974   -7.0711   27.5149 C   0  0  0  0  0  0  0  0  0  0  0  0
    2.5338   -7.6891   16.0102 C   0  0  0  0  0  0  0  0  0  0  0  0
    4.8690   -7.4380   26.4151 C   0  0  0  0  0  0  0  0  0  0  0  0
    2.3021   -5.6726   26.0378 C   0  0  0  0  0  0  0  0  0  0  0  0
    7.0880   -4.6163   27.0010 C   0  0  0  0  0  0  0  0  0  0  0  0
    8.3117   -4.3698   27.4436 C   0  0  0  0  0  0  0  0  0  0  0  0
    1.1339   -5.0515   26.3541 C   0  0  0  0  0  0  0  0  0  0  0  0
    4.8080   -8.0362   16.7101 C   0  0  0  0  0  0  0  0  0  0  0  0
   -1.2173   -3.9294   26.9717 O   0  0  0  0  0  0  0  0  0  0  0  0
   -1.0025   -5.0942   27.4586 C   0  0  0  0  0  0  0  0  0  0  0  0
    2.2474   -8.9123   16.6273 C   0  0  0  0  0  0  0  0  0  0  0  0
    4.4957   -9.2636   17.3041 C   0  0  0  0  0  0  0  0  0  0  0  0
   -1.8070   -5.6086   28.1920 O   0  0  0  0  0  0  0  0  0  0  0  0
   10.4296   -5.1799   28.3140 C   0  0  0  0  0  0  0  0  0  0  0  0
    6.6017   -5.9004   26.9187 C   0  0  0  0  0  0  0  0  0  0  0  0
    2.4761   -6.9940   26.4111 N   0  0  0  0  0  0  0  0  0  0  0  0
    9.1353   -5.4053   27.8239 C   0  0  0  0  0  0  0  0  0  0  0  0
    0.9922   -9.3232   16.5995 O   0  0  0  0  0  0  0  0  0  0  0  0
    1.5232   -7.6869   27.1182 C   0  0  0  0  0  0  0  0  0  0  0  0
    8.6878   -6.6715   27.7262 N   0  0  0  0  0  0  0  0  0  0  0  0
    6.9911   -8.2423   27.1808 C   0  0  0  0  0  0  0  0  0  0  0  0
    3.8436   -7.2758   16.0578 C   0  0  0  0  0  0  0  0  0  0  0  0
    3.1882   -9.7190   17.2566 C   0  0  0  0  0  0  0  0  0  0  0  0
    5.3488   -6.1737   26.5092 C   0  0  0  0  0  0  0  0  0  0  0  0
    7.4567   -6.9464   27.2858 C   0  0  0  0  0  0  0  0  0  0  0  0
    0.1921   -5.7592   27.1123 C   0  0  0  0  0  0  0  0  0  0  0  0
    3.5517   -7.7407   25.9711 C   0  0  0  0  0  0  0  0  0  0  0  0
  1  4  4  0
  1 22  4  0
  2 20  4  0
  2 27  4  0
  3 12  4  0
  3 23  4  0
  4 25  4  0
  4 28  1  0
  5  8  4  0
  5 17  4  0
  6  7  4  0
  6 16  4  0
  7 18  4  0
  8 27  4  0
  9 13  4  0
  9 23  4  0
 10 11  1  0
 11 14  2  0
 11 27  1  0
 12 19  1  0
 12 24  4  0
 13 24  4  0
 15 18  1  0
 16 25  4  0
 16 26  4  0
 17 20  4  0
 17 28  1  0
 18 21  4  0
 21 26  4  0
 22 26  4  0
M  END
$$$$

 Created by Python create_sdf_string function

 28 30  0  0  0  0  0  0  0  0999 V2000
    5.7174   -8.4529   26.7190 C   0  0  0  0  0  0  0  0  0  0  0  0
    0.3974   -7.0711   27.5149 C   0  0  0  0  0  0  0  0  0  0  0  0
    2.5338   -7.6891   16.0102 C   0  0  0  0  0  0  0  0  0  0  0  0
    4.8690   -7.4380   26.4151 C   0  0  0  0  0  0  0  0  0  0  0  0
    2.3021   -5.6726   26.0378 C   0  0  0  0  0  0  0  0  0  0  0  0
    7.0880   -4.6163   27.0010 C   0  0  0  0  0  0  0  0  0  0  0  0
    8.3117   -4.3698   27.4436 C   0  0  0  0  0  0  0  0  0  0  0  0
    1.1339   -5.0515   26.3541 C   0  0  0  0  0  0  0  0  0  0  0  0
    4.8080   -8.0362   16.7101 C   0  0  0  0  0  0  0  0  0  0  0  0
   -1.2173   -3.9294   26.9717 O   0  0  0  0  0  0  0  0  0  0  0  0
   -1.0025   -5.0942   27.4586 C   0  0  0  0  0  0  0  0  0  0  0  0
    2.2474   -8.9123   16.6273 C   0  0  0  0  0  0  0  0  0  0  0  0
    4.4957   -9.2636   17.3041 C   0  0  0  0  0  0  0  0  0  0  0  0
   -1.8070   -5.6086   28.1920 O   0  0  0  0  0  0  0  0  0  0  0  0
   10.4296   -5.1799   28.3140 C   0  0  0  0  0  0  0  0  0  0  0  0
    6.6017   -5.9004   26.9187 C   0  0  0  0  0  0  0  0  0  0  0  0
    2.4761   -6.9940   26.4111 N   0  0  0  0  0  0  0  0  0  0  0  0
    9.1353   -5.4053   27.8239 C   0  0  0  0  0  0  0  0  0  0  0  0
    0.9922   -9.3232   16.5995 O   0  0  0  0  0  0  0  0  0  0  0  0
    1.5232   -7.6869   27.1182 C   0  0  0  0  0  0  0  0  0  0  0  0
    8.6878   -6.6715   27.7262 N   0  0  0  0  0  0  0  0  0  0  0  0
    6.9911   -8.2423   27.1808 C   0  0  0  0  0  0  0  0  0  0  0  0
    3.8436   -7.2758   16.0578 C   0  0  0  0  0  0  0  0  0  0  0  0
    3.1882   -9.7190   17.2566 C   0  0  0  0  0  0  0  0  0  0  0  0
    5.3488   -6.1737   26.5092 C   0  0  0  0  0  0  0  0  0  0  0  0
    7.4567   -6.9464   27.2858 C   0  0  0  0  0  0  0  0  0  0  0  0
    0.1921   -5.7592   27.1123 C   0  0  0  0  0  0  0  0  0  0  0  0
    3.5517   -7.7407   25.9711 C   0  0  0  0  0  0  0  0  0  0  0  0
  1  4  4  0
  1 22  4  0
  2 20  4  0
  2 27  4  0
  3 12  4  0
  3 23  4  0
  4 25  4  0
  4 28  1  0
  5  8  4  0
  5 17  4  0
  6  7  4  0
  6 16  4  0
  7 18  4  0
  8 27  4  0
  9 13  4  0
  9 23  4  0
 10 11  1  0
 11 14  2  0
 11 27  1  0
 12 19  1  0
 12 24  4  0
 13 24  4  0
 15 18  1  0
 16 25  4  0
 16 26  4  0
 17 20  4  0
 17 28  1  0
 18 21  4  0
 21 26  4  0
 22 26  4  0
M  END
