
 Created by Python create_sdf_string function

 28 16  0  0  0  0  0  0  0  0999 V2000
    2.1357   -6.7263   22.9789 Cl  0  0  0  0  0  0  0  0  0  0  0  0
    2.3986   -6.6590   23.2046 N   0  0  0  0  0  0  0  0  0  0  0  0
    2.6434   -7.7758   22.8765 O   0  0  0  0  0  0  0  0  0  0  0  0
    2.9424   -8.5412   22.2647 S   0  0  0  0  0  0  0  0  0  0  0  0
    2.8842   -9.6759   23.5044 O   0  0  0  0  0  0  0  0  0  0  0  0
    4.5401  -10.1575   22.7898 C   0  0  0  0  0  0  0  0  0  0  0  0
    3.1684   -7.7669   22.1798 C   0  0  0  0  0  0  0  0  0  0  0  0
    4.8371   -7.4834   23.3207 O   0  0  0  0  0  0  0  0  0  0  0  0
    5.3108   -8.8019   20.7758 C   0  0  0  0  0  0  0  0  0  0  0  0
    4.1616   -8.9400   23.0981 F   0  0  0  0  0  0  0  0  0  0  0  0
    4.4353   -7.6907   24.2278 He  0  0  0  0  0  0  0  0  0  0  0  0
    2.7487   -9.6116   22.5749 He  0  0  0  0  0  0  0  0  0  0  0  0
    3.8139   -8.0425   22.4661 He  0  0  0  0  0  0  0  0  0  0  0  0
    3.6797   -7.0932   22.2577 He  0  0  0  0  0  0  0  0  0  0  0  0
    2.2383   -7.7859   22.3486 He  0  0  0  0  0  0  0  0  0  0  0  0
    5.3193   -8.3338   23.2553 He  0  0  0  0  0  0  0  0  0  0  0  0
    3.7468   -9.6985   23.7814 He  0  0  0  0  0  0  0  0  0  0  0  0
    3.4711   -6.5795   22.0592 He  0  0  0  0  0  0  0  0  0  0  0  0
    5.1019   -9.4214   22.2340 He  0  0  0  0  0  0  0  0  0  0  0  0
    3.1192   -8.1649   22.9534 He  0  0  0  0  0  0  0  0  0  0  0  0
    3.2174   -7.2324   22.8610 He  0  0  0  0  0  0  0  0  0  0  0  0
    2.7582   -8.6645   22.9312 He  0  0  0  0  0  0  0  0  0  0  0  0
    2.5257   -6.9843   23.7754 He  0  0  0  0  0  0  0  0  0  0  0  0
    2.9910   -8.8708   22.7220 He  0  0  0  0  0  0  0  0  0  0  0  0
    5.4030   -7.7058   23.2372 He  0  0  0  0  0  0  0  0  0  0  0  0
    3.2049   -9.5342   22.9385 He  0  0  0  0  0  0  0  0  0  0  0  0
    4.4488   -8.0634   25.0640 He  0  0  0  0  0  0  0  0  0  0  0  0
    4.1259   -7.8037   23.8097 He  0  0  0  0  0  0  0  0  0  0  0  0
  1  2  3  0
  1  7  3  0
  1  8  1  0
  1  9  2  0
  1 10  2  0
  2  4  2  0
  2  9  1  0
  3  4  3  0
  3  6  3  0
  4  5  1  0
  4  9  2  0
  5  7  1  0
  6  7  1  0
  6  9  2  0
  6 10  2  0
  7  9  2  0
M  END
$$$$

 Created by Python create_sdf_string function

 28 60  0  0  0  0  0  0  0  0999 V2000
    5.0930   -5.4083   26.5942 S   0  0  0  0  0  0  0  0  0  0  0  0
    2.5501  -10.1245   21.2662 Cl  0  0  0  0  0  0  0  0  0  0  0  0
    4.4541   -7.9927   23.9918 C   0  0  0  0  0  0  0  0  0  0  0  0
    2.4132   -8.1233   22.9191 Br  0  0  0  0  0  0  0  0  0  0  0  0
    1.8247   -8.6257   22.1593 N   0  0  0  0  0  0  0  0  0  0  0  0
    0.9931   -9.8604   22.2716 S   0  0  0  0  0  0  0  0  0  0  0  0
    4.4838   -9.7969   24.9568 F   0  0  0  0  0  0  0  0  0  0  0  0
    2.2323   -9.0861   22.0617 F   0  0  0  0  0  0  0  0  0  0  0  0
    3.4395   -8.7141   23.5785 C   0  0  0  0  0  0  0  0  0  0  0  0
    0.6842   -7.3826   24.0530 C   0  0  0  0  0  0  0  0  0  0  0  0
    2.3438   -6.4685   24.4779 O   0  0  0  0  0  0  0  0  0  0  0  0
    4.8963  -10.1133   20.7495 F   0  0  0  0  0  0  0  0  0  0  0  0
    1.6510   -7.6487   20.2084 F   0  0  0  0  0  0  0  0  0  0  0  0
    5.3463   -8.3117   24.0661 F   0  0  0  0  0  0  0  0  0  0  0  0
    5.0365   -8.6312   21.4313 C   0  0  0  0  0  0  0  0  0  0  0  0
    7.7547   -8.6127   22.1288 C   0  0  0  0  0  0  0  0  0  0  0  0
    2.7067   -8.0316   24.4357 N   0  0  0  0  0  0  0  0  0  0  0  0
    4.6580   -6.9844   27.0546 N   0  0  0  0  0  0  0  0  0  0  0  0
    5.4531   -6.6183   26.5564 P   0  0  0  0  0  0  0  0  0  0  0  0
    1.6025   -7.9081   21.9746 He  0  0  0  0  0  0  0  0  0  0  0  0
    1.5351   -8.0285   24.2979 He  0  0  0  0  0  0  0  0  0  0  0  0
    5.1884   -8.0268   23.0294 He  0  0  0  0  0  0  0  0  0  0  0  0
    3.7030   -5.8727   22.1509 He  0  0  0  0  0  0  0  0  0  0  0  0
    6.3378   -8.9754   20.0163 He  0  0  0  0  0  0  0  0  0  0  0  0
    1.9692   -8.9441   23.9058 He  0  0  0  0  0  0  0  0  0  0  0  0
    1.8099   -5.8362   23.3815 He  0  0  0  0  0  0  0  0  0  0  0  0
    2.5323   -9.5613   21.8824 He  0  0  0  0  0  0  0  0  0  0  0  0
    4.6305   -8.1972   23.6463 He  0  0  0  0  0  0  0  0  0  0  0  0
  1  6  2  0
  1 13  2  0
  1 14  4  0
  1 15  1  0
  1 18  2  0
  1 19  4  0
  2  7  2  0
  2 10  2  0
  2 15  4  0
  2 16  3  0
  2 17  4  0
  3  5  4  0
  3 11  4  0
  3 14  2  0
  3 17  3  0
  4  6  4  0
  4  7  4  0
  4  9  3  0
  4 10  1  0
  4 13  3  0
  4 16  4  0
  4 17  4  0
  5  9  2  0
  5 12  4  0
  5 13  3  0
  5 14  3  0
  5 15  1  0
  5 18  1  0
  6  7  2  0
  6  8  3  0
  6 10  2  0
  6 14  1  0
  6 15  2  0
  6 17  4  0
  8  9  3  0
  8 11  3  0
  8 12  1  0
  8 16  1  0
  8 17  3  0
  8 18  2  0
  8 19  2  0
  9 16  3  0
 10 16  4  0
 10 18  1  0
 10 19  1  0
 11 15  4  0
 11 16  2  0
 11 18  2  0
 11 19  2  0
 12 14  2  0
 12 15  4  0
 13 17  1  0
 13 19  1  0
 14 17  4  0
 14 18  3  0
 15 19  1  0
 16 17  4  0
 16 19  4  0
 17 19  1  0
 18 19  2  0
M  END
$$$$

 Created by Python create_sdf_string function

 28110  0  0  0  0  0  0  0  0999 V2000
    7.2289   -6.4243   27.5204 O   0  0  0  0  0  0  0  0  0  0  0  0
    2.7536   -8.7512   24.2699 P   0  0  0  0  0  0  0  0  0  0  0  0
    5.6982   -8.8340   25.4753 C   0  0  0  0  0  0  0  0  0  0  0  0
    3.4679   -7.5263   23.5575 F   0  0  0  0  0  0  0  0  0  0  0  0
    0.8004   -8.3816   21.5461 Cl  0  0  0  0  0  0  0  0  0  0  0  0
    3.1289   -7.2630   23.5725 C   0  0  0  0  0  0  0  0  0  0  0  0
    1.1385  -10.5324   22.2917 N   0  0  0  0  0  0  0  0  0  0  0  0
    5.6879   -9.1239   23.0539 C   0  0  0  0  0  0  0  0  0  0  0  0
    5.5662   -9.0680   24.6313 C   0  0  0  0  0  0  0  0  0  0  0  0
    5.5051   -8.8112   20.9930 Br  0  0  0  0  0  0  0  0  0  0  0  0
    2.5925   -7.0317   25.8360 F   0  0  0  0  0  0  0  0  0  0  0  0
    0.8897   -7.3379   24.8631 N   0  0  0  0  0  0  0  0  0  0  0  0
    2.5034   -6.6426   26.9717 P   0  0  0  0  0  0  0  0  0  0  0  0
    4.1098   -8.5615   19.3024 F   0  0  0  0  0  0  0  0  0  0  0  0
    2.8066   -8.9829   20.8795 F   0  0  0  0  0  0  0  0  0  0  0  0
    6.9302   -8.0885   24.2741 P   0  0  0  0  0  0  0  0  0  0  0  0
    5.5820   -9.5877   20.7373 C   0  0  0  0  0  0  0  0  0  0  0  0
    1.3365   -7.5351   20.7930 S   0  0  0  0  0  0  0  0  0  0  0  0
    6.2340   -6.4486   21.1992 F   0  0  0  0  0  0  0  0  0  0  0  0
    2.7692   -6.8041   26.0287 C   0  0  0  0  0  0  0  0  0  0  0  0
    4.0586   -9.3867   24.7240 N   0  0  0  0  0  0  0  0  0  0  0  0
    5.6637   -5.9505   28.0421 C   0  0  0  0  0  0  0  0  0  0  0  0
    6.5766   -7.2066   28.7528 F   0  0  0  0  0  0  0  0  0  0  0  0
    2.9782  -10.5481   20.3200 He  0  0  0  0  0  0  0  0  0  0  0  0
    4.3860   -6.9992   23.2173 He  0  0  0  0  0  0  0  0  0  0  0  0
    3.7656   -9.3261   19.4309 He  0  0  0  0  0  0  0  0  0  0  0  0
    1.9338   -7.9252   25.5269 He  0  0  0  0  0  0  0  0  0  0  0  0
    4.0137   -8.4123   24.9177 He  0  0  0  0  0  0  0  0  0  0  0  0
  1  3  2  0
  1  4  3  0
  1  7  4  0
  1 10  3  0
  1 11  4  0
  1 12  3  0
  1 13  3  0
  1 14  4  0
  1 16  1  0
  1 20  1  0
  1 22  4  0
  1 23  2  0
  2  3  4  0
  2  7  1  0
  2 12  3  0
  2 13  1  0
  2 14  2  0
  2 18  2  0
  2 19  3  0
  2 21  3  0
  3  4  2  0
  3  5  2  0
  3 10  4  0
  3 13  1  0
  3 14  4  0
  3 16  1  0
  3 17  3  0
  3 23  2  0
  4 13  3  0
  4 15  1  0
  4 17  2  0
  4 18  3  0
  4 21  2  0
  4 22  4  0
  5  6  4  0
  5  7  2  0
  5 10  4  0
  5 15  2  0
  5 19  3  0
  6  7  3  0
  6 11  4  0
  6 16  4  0
  6 22  4  0
  7  8  3  0
  7  9  3  0
  7 13  3  0
  7 14  1  0
  7 15  2  0
  7 16  2  0
  7 17  4  0
  7 18  1  0
  7 19  4  0
  7 21  1  0
  7 22  3  0
  8 13  3  0
  8 14  3  0
  8 17  3  0
  8 18  3  0
  8 19  2  0
  8 20  4  0
  8 22  4  0
  8 23  2  0
  9 14  4  0
  9 17  4  0
  9 18  3  0
  9 19  2  0
  9 22  1  0
 10 11  4  0
 10 13  3  0
 10 14  1  0
 10 15  2  0
 10 16  1  0
 10 20  2  0
 10 22  3  0
 10 23  1  0
 11 12  3  0
 11 14  2  0
 11 15  3  0
 11 18  1  0
 11 19  3  0
 12 13  3  0
 12 14  4  0
 12 15  2  0
 12 16  1  0
 12 17  3  0
 12 19  3  0
 12 21  2  0
 13 19  4  0
 13 20  3  0
 13 21  3  0
 14 15  1  0
 14 20  4  0
 14 21  4  0
 15 18  4  0
 15 19  3  0
 15 20  2  0
 15 21  4  0
 15 22  4  0
 15 23  1  0
 16 17  3  0
 16 21  4  0
 16 22  2  0
 17 19  4  0
 18 19  1  0
 18 21  4  0
 18 22  2  0
 19 20  1  0
 19 21  1  0
 20 21  4  0
 21 23  2  0
M  END
$$$$

 Created by Python create_sdf_string function

 28 36  0  0  0  0  0  0  0  0999 V2000
    7.1942   -6.6803   29.3105 Br  0  0  0  0  0  0  0  0  0  0  0  0
    1.9583   -8.3259   23.8244 N   0  0  0  0  0  0  0  0  0  0  0  0
    5.2358   -7.4843   26.5921 C   0  0  0  0  0  0  0  0  0  0  0  0
    1.5737   -7.8705   21.4916 C   0  0  0  0  0  0  0  0  0  0  0  0
    3.8953   -7.7523   23.6609 O   0  0  0  0  0  0  0  0  0  0  0  0
    6.2126   -8.3876   20.1838 N   0  0  0  0  0  0  0  0  0  0  0  0
    4.4935   -7.2856   26.4042 O   0  0  0  0  0  0  0  0  0  0  0  0
    3.3790   -7.4341   27.0316 Cl  0  0  0  0  0  0  0  0  0  0  0  0
    5.7363   -8.9742   26.1357 I   0  0  0  0  0  0  0  0  0  0  0  0
    3.7857   -9.1959   22.0703 P   0  0  0  0  0  0  0  0  0  0  0  0
    2.3002   -9.5606   20.3503 C   0  0  0  0  0  0  0  0  0  0  0  0
    4.0992   -8.6107   25.8866 P   0  0  0  0  0  0  0  0  0  0  0  0
    7.0795   -7.1765   27.9247 N   0  0  0  0  0  0  0  0  0  0  0  0
    1.6973  -10.3870   18.5086 He  0  0  0  0  0  0  0  0  0  0  0  0
    3.5572   -6.7456   24.4756 He  0  0  0  0  0  0  0  0  0  0  0  0
    4.9784   -6.2831   24.0730 He  0  0  0  0  0  0  0  0  0  0  0  0
    4.8020   -8.0278   24.1479 He  0  0  0  0  0  0  0  0  0  0  0  0
    6.1223   -8.0625   25.1303 He  0  0  0  0  0  0  0  0  0  0  0  0
    3.5763   -8.6333   22.0709 He  0  0  0  0  0  0  0  0  0  0  0  0
    2.8895   -9.3146   19.9847 He  0  0  0  0  0  0  0  0  0  0  0  0
    0.5064   -7.6555   26.5817 He  0  0  0  0  0  0  0  0  0  0  0  0
    1.9097   -6.3737   25.7423 He  0  0  0  0  0  0  0  0  0  0  0  0
    0.6268   -6.8709   29.4317 He  0  0  0  0  0  0  0  0  0  0  0  0
    5.2634   -9.1455   19.0219 He  0  0  0  0  0  0  0  0  0  0  0  0
    2.9216  -10.8601   23.0871 He  0  0  0  0  0  0  0  0  0  0  0  0
    4.3334   -6.8699   21.9366 He  0  0  0  0  0  0  0  0  0  0  0  0
    0.2185   -7.4049   27.1596 He  0  0  0  0  0  0  0  0  0  0  0  0
    6.3106   -7.5250   28.2557 He  0  0  0  0  0  0  0  0  0  0  0  0
  1  2  3  0
  1  4  3  0
  1  9  4  0
  1 11  3  0
  1 12  3  0
  2  4  1  0
  2  6  2  0
  2  7  2  0
  2  8  2  0
  2 12  2  0
  3  5  1  0
  3  6  2  0
  3  7  2  0
  3  9  4  0
  3 12  1  0
  4  5  2  0
  4  6  4  0
  4  7  1  0
  4  8  1  0
  4 12  1  0
  5  6  1  0
  5  7  1  0
  5  8  3  0
  5 10  2  0
  6  7  4  0
  6  8  2  0
  6 10  1  0
  6 11  2  0
  7  8  4  0
  7 12  3  0
  7 13  4  0
  8  9  2  0
  9 12  4  0
  9 13  4  0
 10 11  2  0
 10 12  1  0
M  END
$$$$

 Created by Python create_sdf_string function

 28 45  0  0  0  0  0  0  0  0999 V2000
    4.4717   -5.9886   26.6213 O   0  0  0  0  0  0  0  0  0  0  0  0
    2.0655   -8.7469   25.0088 N   0  0  0  0  0  0  0  0  0  0  0  0
    2.8811  -10.1244   20.3624 N   0  0  0  0  0  0  0  0  0  0  0  0
    4.8168   -7.8244   26.8324 F   0  0  0  0  0  0  0  0  0  0  0  0
    3.4353   -6.5101   23.6258 F   0  0  0  0  0  0  0  0  0  0  0  0
    4.6047   -7.8489   25.1029 F   0  0  0  0  0  0  0  0  0  0  0  0
    2.7967   -9.5690   18.5571 B   0  0  0  0  0  0  0  0  0  0  0  0
    3.9712   -7.5616   27.0654 O   0  0  0  0  0  0  0  0  0  0  0  0
    2.5608   -6.9713   26.3591 C   0  0  0  0  0  0  0  0  0  0  0  0
    7.8142  -10.2388   19.2171 O   0  0  0  0  0  0  0  0  0  0  0  0
    5.8630   -7.9928   23.2362 N   0  0  0  0  0  0  0  0  0  0  0  0
    5.6100   -8.5370   20.9387 C   0  0  0  0  0  0  0  0  0  0  0  0
   -0.2772   -6.0394   28.7935 B   0  0  0  0  0  0  0  0  0  0  0  0
    4.9070   -7.6964   26.8132 N   0  0  0  0  0  0  0  0  0  0  0  0
    7.4456   -5.9520   28.7877 O   0  0  0  0  0  0  0  0  0  0  0  0
    6.7139   -7.8127   29.1523 F   0  0  0  0  0  0  0  0  0  0  0  0
    7.1656   -7.5433   28.1651 He  0  0  0  0  0  0  0  0  0  0  0  0
    2.3818   -9.1792   24.6561 He  0  0  0  0  0  0  0  0  0  0  0  0
    2.1084  -10.7301   18.2581 He  0  0  0  0  0  0  0  0  0  0  0  0
    5.2715   -8.7248   19.1648 He  0  0  0  0  0  0  0  0  0  0  0  0
    4.0841   -6.2758   24.9950 He  0  0  0  0  0  0  0  0  0  0  0  0
    2.4422  -10.8559   20.3784 He  0  0  0  0  0  0  0  0  0  0  0  0
    1.2359   -8.5854   26.6999 He  0  0  0  0  0  0  0  0  0  0  0  0
    3.3097   -7.5094   27.0478 He  0  0  0  0  0  0  0  0  0  0  0  0
    0.3199   -7.3968   29.1662 He  0  0  0  0  0  0  0  0  0  0  0  0
    2.1346   -8.6973   21.1446 He  0  0  0  0  0  0  0  0  0  0  0  0
    6.5022   -8.8848   28.4280 He  0  0  0  0  0  0  0  0  0  0  0  0
    1.4420   -8.0831   21.5005 He  0  0  0  0  0  0  0  0  0  0  0  0
  1  2  2  0
  1  6  2  0
  1  9  3  0
  1 11  3  0
  1 13  1  0
  1 14  4  0
  1 15  1  0
  2  3  4  0
  2  6  2  0
  2 10  2  0
  2 12  1  0
  2 14  4  0
  2 15  3  0
  2 16  3  0
  3  6  1  0
  3  7  1  0
  3 10  2  0
  3 11  1  0
  3 12  2  0
  3 14  3  0
  3 15  4  0
  3 16  3  0
  4 13  4  0
  4 16  1  0
  5 12  4  0
  5 13  1  0
  5 15  4  0
  6  7  1  0
  6  9  2  0
  6 10  1  0
  7  9  1  0
  7 10  1  0
  7 12  4  0
  7 13  1  0
  7 15  2  0
  8 13  2  0
  8 15  3  0
  8 16  1  0
  9 10  4  0
  9 11  2  0
  9 16  1  0
 10 11  2  0
 10 12  2  0
 10 14  2  0
 11 14  1  0
M  END
$$$$

 Created by Python create_sdf_string function

 28 29  0  0  0  0  0  0  0  0999 V2000
    5.6318   -8.9316   26.2172 S   0  0  0  0  0  0  0  0  0  0  0  0
    1.6556  -10.9530   18.8979 S   0  0  0  0  0  0  0  0  0  0  0  0
    2.1748   -9.8831   16.5125 N   0  0  0  0  0  0  0  0  0  0  0  0
    1.2990   -8.5883   27.4295 N   0  0  0  0  0  0  0  0  0  0  0  0
    3.4565   -7.7173   26.9251 S   0  0  0  0  0  0  0  0  0  0  0  0
    2.8772   -6.8656   26.9736 P   0  0  0  0  0  0  0  0  0  0  0  0
    2.7327   -5.5355   28.3139 N   0  0  0  0  0  0  0  0  0  0  0  0
    0.7250   -7.8480   29.2780 C   0  0  0  0  0  0  0  0  0  0  0  0
    2.1078  -10.5717   20.7831 F   0  0  0  0  0  0  0  0  0  0  0  0
    6.2155   -7.7027   28.0167 B   0  0  0  0  0  0  0  0  0  0  0  0
    5.3036   -7.2426   22.6764 F   0  0  0  0  0  0  0  0  0  0  0  0
    3.1763   -9.8067   20.1713 Br  0  0  0  0  0  0  0  0  0  0  0  0
    5.3571   -9.2165   25.7037 F   0  0  0  0  0  0  0  0  0  0  0  0
    8.0538   -7.3579   27.8273 C   0  0  0  0  0  0  0  0  0  0  0  0
    7.0765   -8.0561   26.7997 He  0  0  0  0  0  0  0  0  0  0  0  0
    3.2825   -8.1222   27.4055 He  0  0  0  0  0  0  0  0  0  0  0  0
    4.9264   -9.5214   18.1083 He  0  0  0  0  0  0  0  0  0  0  0  0
    5.2136   -6.3244   27.3477 He  0  0  0  0  0  0  0  0  0  0  0  0
    0.7066   -9.4223   26.8698 He  0  0  0  0  0  0  0  0  0  0  0  0
    3.0776  -10.0640   19.4750 He  0  0  0  0  0  0  0  0  0  0  0  0
    3.8222   -7.7122   27.8981 He  0  0  0  0  0  0  0  0  0  0  0  0
    3.8641   -5.5663   23.8870 He  0  0  0  0  0  0  0  0  0  0  0  0
    4.0479   -8.2463   18.9862 He  0  0  0  0  0  0  0  0  0  0  0  0
    3.6023   -8.7670   27.2621 He  0  0  0  0  0  0  0  0  0  0  0  0
    3.1460   -9.7853   19.1081 He  0  0  0  0  0  0  0  0  0  0  0  0
    3.7850   -8.5258   19.6226 He  0  0  0  0  0  0  0  0  0  0  0  0
    0.9103   -5.9593   26.8503 He  0  0  0  0  0  0  0  0  0  0  0  0
    6.4817   -7.7603   29.2198 He  0  0  0  0  0  0  0  0  0  0  0  0
  1  4  4  0
  1  5  1  0
  1  7  1  0
  1 14  1  0
  2  9  3  0
  2 12  1  0
  2 13  2  0
  3  4  3  0
  3  5  3  0
  3  9  3  0
  3 12  2  0
  3 13  3  0
  4  7  4  0
  4 10  3  0
  4 12  1  0
  5  6  4  0
  5  8  4  0
  5  9  2  0
  5 10  2  0
  5 13  4  0
  6 10  2  0
  6 11  2  0
  7  8  4  0
  7  9  3  0
  7 10  4  0
  8 10  1  0
 10 11  4  0
 10 13  3  0
 12 13  2  0
M  END
$$$$

 Created by Python create_sdf_string function

 28  9  0  0  0  0  0  0  0  0999 V2000
    2.0607   -8.0927   27.5817 C   0  0  0  0  0  0  0  0  0  0  0  0
    1.4294   -8.4387   28.6203 O   0  0  0  0  0  0  0  0  0  0  0  0
    3.6322   -9.1687   17.6927 N   0  0  0  0  0  0  0  0  0  0  0  0
    5.7823   -8.9603   26.6037 Cl  0  0  0  0  0  0  0  0  0  0  0  0
    1.8266   -9.5707   17.9967 F   0  0  0  0  0  0  0  0  0  0  0  0
    2.9063  -10.7579   16.4355 N   0  0  0  0  0  0  0  0  0  0  0  0
    1.3032  -11.0167   19.5553 C   0  0  0  0  0  0  0  0  0  0  0  0
    4.0783   -9.9776   20.0473 B   0  0  0  0  0  0  0  0  0  0  0  0
    1.4996   -5.2528   28.2326 N   0  0  0  0  0  0  0  0  0  0  0  0
    7.1536  -10.0733   26.5764 He  0  0  0  0  0  0  0  0  0  0  0  0
    5.0982  -10.8909   16.7208 He  0  0  0  0  0  0  0  0  0  0  0  0
    5.0875   -8.5783   27.6398 He  0  0  0  0  0  0  0  0  0  0  0  0
    2.8713   -9.5444   19.5788 He  0  0  0  0  0  0  0  0  0  0  0  0
    4.5637   -7.4650   27.2667 He  0  0  0  0  0  0  0  0  0  0  0  0
    5.4807   -6.5860   27.0198 He  0  0  0  0  0  0  0  0  0  0  0  0
    5.6038  -10.9128   27.8019 He  0  0  0  0  0  0  0  0  0  0  0  0
    1.1010   -8.7274   27.5492 He  0  0  0  0  0  0  0  0  0  0  0  0
    3.8168   -8.2682   27.9232 He  0  0  0  0  0  0  0  0  0  0  0  0
    2.6972   -8.2349   28.5155 He  0  0  0  0  0  0  0  0  0  0  0  0
    3.3793   -5.0073   29.4000 He  0  0  0  0  0  0  0  0  0  0  0  0
    0.2050   -9.0114   28.5438 He  0  0  0  0  0  0  0  0  0  0  0  0
    2.1975  -11.0889   19.1093 He  0  0  0  0  0  0  0  0  0  0  0  0
    5.6455   -8.0635   28.7421 He  0  0  0  0  0  0  0  0  0  0  0  0
    5.3565   -8.0856   22.8163 He  0  0  0  0  0  0  0  0  0  0  0  0
    3.9325   -8.9536   18.4256 He  0  0  0  0  0  0  0  0  0  0  0  0
    6.0820   -9.7293   26.4222 He  0  0  0  0  0  0  0  0  0  0  0  0
    7.1179   -7.7769   26.9695 He  0  0  0  0  0  0  0  0  0  0  0  0
    4.5161   -6.7637   28.4042 He  0  0  0  0  0  0  0  0  0  0  0  0
  1  2  1  0
  1  3  3  0
  1  6  4  0
  2  7  2  0
  2  9  2  0
  3  4  1  0
  3  5  1  0
  3  6  2  0
  7  9  3  0
M  END
$$$$

 Created by Python create_sdf_string function

 28 48  0  0  0  0  0  0  0  0999 V2000
    7.5345   -8.8363   27.6021 N   0  0  0  0  0  0  0  0  0  0  0  0
    5.0878  -11.1112   16.8888 Cl  0  0  0  0  0  0  0  0  0  0  0  0
    3.5451   -5.8599   26.1550 C   0  0  0  0  0  0  0  0  0  0  0  0
    1.9695   -4.3731   26.8975 Cl  0  0  0  0  0  0  0  0  0  0  0  0
    1.5056  -11.3665   20.8675 P   0  0  0  0  0  0  0  0  0  0  0  0
    4.5919   -8.2101   27.4248 C   0  0  0  0  0  0  0  0  0  0  0  0
    5.9786   -6.8383   27.1813 C   0  0  0  0  0  0  0  0  0  0  0  0
    4.6031  -11.6507   28.8355 O   0  0  0  0  0  0  0  0  0  0  0  0
    3.3839  -11.5461   17.3195 C   0  0  0  0  0  0  0  0  0  0  0  0
    1.7913   -9.2708   27.3490 I   0  0  0  0  0  0  0  0  0  0  0  0
    0.3647   -9.0401   16.9369 N   0  0  0  0  0  0  0  0  0  0  0  0
    0.6910  -12.0681   17.6468 Se  0  0  0  0  0  0  0  0  0  0  0  0
    7.2100   -8.4251   28.5678 O   0  0  0  0  0  0  0  0  0  0  0  0
    4.7404   -6.7775   24.4723 S   0  0  0  0  0  0  0  0  0  0  0  0
    4.7029   -9.7643   17.7724 C   0  0  0  0  0  0  0  0  0  0  0  0
    5.9692  -10.0317   26.3544 C   0  0  0  0  0  0  0  0  0  0  0  0
    8.2819   -8.5007   27.7560 O   0  0  0  0  0  0  0  0  0  0  0  0
    3.0880   -8.3567   27.0060 He  0  0  0  0  0  0  0  0  0  0  0  0
    3.6072   -8.8945   15.1315 He  0  0  0  0  0  0  0  0  0  0  0  0
    5.1104   -8.1980   26.6405 He  0  0  0  0  0  0  0  0  0  0  0  0
    0.9242  -10.6464   17.1410 He  0  0  0  0  0  0  0  0  0  0  0  0
    2.4117   -7.9890   28.3326 He  0  0  0  0  0  0  0  0  0  0  0  0
    1.2355   -8.9012   28.0391 He  0  0  0  0  0  0  0  0  0  0  0  0
    1.8586   -6.1658   28.0175 He  0  0  0  0  0  0  0  0  0  0  0  0
    0.0096   -7.9671   29.6025 He  0  0  0  0  0  0  0  0  0  0  0  0
    5.2103   -8.6787   16.7344 He  0  0  0  0  0  0  0  0  0  0  0  0
    1.4712   -4.6635   28.4372 He  0  0  0  0  0  0  0  0  0  0  0  0
    4.6497   -7.1747   30.0020 He  0  0  0  0  0  0  0  0  0  0  0  0
  1  4  3  0
  1  6  1  0
  1  9  1  0
  1 15  4  0
  2  3  2  0
  2  4  1  0
  2  8  1  0
  2 12  4  0
  2 14  3  0
  3  4  2  0
  3  6  3  0
  3 17  3  0
  4  6  4  0
  4 12  4  0
  4 13  3  0
  5  6  2  0
  5  7  1  0
  5  8  4  0
  5 11  1  0
  5 12  4  0
  5 15  1  0
  5 16  2  0
  6  8  1  0
  6 12  4  0
  6 13  1  0
  6 15  4  0
  6 16  1  0
  7 10  2  0
  7 11  1  0
  7 13  3  0
  7 15  4  0
  8 11  4  0
  8 13  4  0
  8 15  4  0
  8 17  4  0
  9 11  3  0
  9 12  3  0
  9 15  1  0
  9 17  4  0
 10 11  4  0
 10 12  1  0
 11 15  3  0
 11 16  3  0
 12 14  2  0
 12 15  3  0
 14 15  1  0
 14 17  1  0
 16 17  3  0
M  END
$$$$

 Created by Python create_sdf_string function

 28 22  0  0  0  0  0  0  0  0999 V2000
    3.3390   -6.5981   27.5063 F   0  0  0  0  0  0  0  0  0  0  0  0
    2.2274  -10.7480   17.0572 Se  0  0  0  0  0  0  0  0  0  0  0  0
    2.5542   -5.0753   25.7759 C   0  0  0  0  0  0  0  0  0  0  0  0
    0.9925  -12.3583   19.0430 S   0  0  0  0  0  0  0  0  0  0  0  0
    5.2035   -9.6599   29.2408 O   0  0  0  0  0  0  0  0  0  0  0  0
    2.1379  -10.5805   17.2624 N   0  0  0  0  0  0  0  0  0  0  0  0
    4.1480  -12.3583   18.5506 Cl  0  0  0  0  0  0  0  0  0  0  0  0
    2.2831   -8.6544   28.7232 O   0  0  0  0  0  0  0  0  0  0  0  0
   -0.3750   -4.6351   26.9586 N   0  0  0  0  0  0  0  0  0  0  0  0
    7.5653   -7.5113   30.0579 C   0  0  0  0  0  0  0  0  0  0  0  0
    5.2942   -9.7490   16.2525 C   0  0  0  0  0  0  0  0  0  0  0  0
    3.4423   -9.8238   17.6255 Se  0  0  0  0  0  0  0  0  0  0  0  0
    7.0805   -7.9699   26.8371 He  0  0  0  0  0  0  0  0  0  0  0  0
    2.7304   -4.3448   28.4792 He  0  0  0  0  0  0  0  0  0  0  0  0
    5.2924   -6.4071   25.3599 He  0  0  0  0  0  0  0  0  0  0  0  0
    5.6348   -8.0350   26.5115 He  0  0  0  0  0  0  0  0  0  0  0  0
    3.0687   -9.3258   16.5302 He  0  0  0  0  0  0  0  0  0  0  0  0
    3.9732   -7.8638   26.6029 He  0  0  0  0  0  0  0  0  0  0  0  0
    2.0142  -10.7460   29.3262 He  0  0  0  0  0  0  0  0  0  0  0  0
    2.4607   -7.4640   29.7157 He  0  0  0  0  0  0  0  0  0  0  0  0
    1.2787   -6.7216   29.2365 He  0  0  0  0  0  0  0  0  0  0  0  0
    0.5528   -9.4170   17.0181 He  0  0  0  0  0  0  0  0  0  0  0  0
    1.0855  -12.5861   16.8785 He  0  0  0  0  0  0  0  0  0  0  0  0
    3.8923   -7.6774   26.0880 He  0  0  0  0  0  0  0  0  0  0  0  0
    0.5692   -3.9349   26.3808 He  0  0  0  0  0  0  0  0  0  0  0  0
    7.0212   -8.4848   26.4587 He  0  0  0  0  0  0  0  0  0  0  0  0
    7.7730   -8.3874   29.4487 He  0  0  0  0  0  0  0  0  0  0  0  0
    4.4699   -6.7870   28.2033 He  0  0  0  0  0  0  0  0  0  0  0  0
  1 10  1  0
  2  6  2  0
  2  7  4  0
  2  9  1  0
  2 10  4  0
  2 11  3  0
  2 12  4  0
  3  5  3  0
  3  6  2  0
  3  9  2  0
  3 10  3  0
  3 11  4  0
  4  6  3  0
  4  7  3  0
  4  8  1  0
  5 11  3  0
  6  7  3  0
  6  9  4  0
  6 10  2  0
  7  8  4  0
  9 12  1  0
 10 12  2  0
M  END
$$$$

 Created by Python create_sdf_string function

 28 32  0  0  0  0  0  0  0  0999 V2000
    6.5882   -8.1993   28.8263 C   0  0  0  0  0  0  0  0  0  0  0  0
    0.7036   -8.8432   17.9407 C   0  0  0  0  0  0  0  0  0  0  0  0
    0.9867   -7.6260   27.5031 P   0  0  0  0  0  0  0  0  0  0  0  0
   -0.6356  -12.7464   16.1535 O   0  0  0  0  0  0  0  0  0  0  0  0
    4.7218   -8.8361   28.8807 P   0  0  0  0  0  0  0  0  0  0  0  0
    3.9833  -11.1343   18.0861 N   0  0  0  0  0  0  0  0  0  0  0  0
    1.4592   -9.4271   29.3582 Se  0  0  0  0  0  0  0  0  0  0  0  0
    1.1101   -5.5721   26.9014 Br  0  0  0  0  0  0  0  0  0  0  0  0
   -0.0417   -7.2215   27.5569 N   0  0  0  0  0  0  0  0  0  0  0  0
    0.5762   -9.2628   17.4653 O   0  0  0  0  0  0  0  0  0  0  0  0
    5.1895   -9.9067   15.5558 N   0  0  0  0  0  0  0  0  0  0  0  0
    8.9145  -10.5533   29.8216 C   0  0  0  0  0  0  0  0  0  0  0  0
    4.6145   -7.5867   28.2445 I   0  0  0  0  0  0  0  0  0  0  0  0
    0.3742   -6.3471   29.1955 He  0  0  0  0  0  0  0  0  0  0  0  0
    2.2240   -5.4537   27.4042 He  0  0  0  0  0  0  0  0  0  0  0  0
    6.5721   -8.1228   26.5608 He  0  0  0  0  0  0  0  0  0  0  0  0
    5.9972   -7.9147   27.6673 He  0  0  0  0  0  0  0  0  0  0  0  0
    3.1272  -10.3203   17.9410 He  0  0  0  0  0  0  0  0  0  0  0  0
    3.1569   -7.4848   26.6561 He  0  0  0  0  0  0  0  0  0  0  0  0
    0.5710   -9.9346   16.4741 He  0  0  0  0  0  0  0  0  0  0  0  0
    2.3738   -6.4205   28.7304 He  0  0  0  0  0  0  0  0  0  0  0  0
    2.6885   -9.1811   29.4496 He  0  0  0  0  0  0  0  0  0  0  0  0
    2.7694  -13.5146   17.0673 He  0  0  0  0  0  0  0  0  0  0  0  0
    5.4791   -7.5664   28.4531 He  0  0  0  0  0  0  0  0  0  0  0  0
    3.1856   -9.3504   25.5988 He  0  0  0  0  0  0  0  0  0  0  0  0
    4.2818   -9.7369   16.7607 He  0  0  0  0  0  0  0  0  0  0  0  0
    1.9884   -3.1214   27.4185 He  0  0  0  0  0  0  0  0  0  0  0  0
    6.2609   -6.8993   26.4797 He  0  0  0  0  0  0  0  0  0  0  0  0
  1  2  1  0
  1  3  2  0
  1  4  2  0
  1  6  1  0
  2  3  4  0
  2  8  2  0
  2 11  3  0
  2 12  4  0
  3  4  1  0
  3  5  4  0
  3  6  2  0
  3  8  3  0
  3 12  3  0
  3 13  1  0
  4  5  1  0
  4  7  3  0
  4  8  4  0
  4 13  2  0
  5  6  4  0
  5  7  3  0
  5  8  3  0
  5 10  2  0
  5 13  1  0
  6  7  1  0
  6  8  3  0
  6 13  3  0
  7 13  2  0
  8 11  3  0
  8 12  4  0
  9 13  3  0
 10 12  2  0
 12 13  3  0
M  END
$$$$

 Created by Python create_sdf_string function

 28 30  0  0  0  0  0  0  0  0999 V2000
    1.8825   -4.6842   25.2904 C   0  0  0  0  0  0  0  0  0  0  0  0
    2.1942  -11.8984   16.9375 O   0  0  0  0  0  0  0  0  0  0  0  0
    4.8818   -7.9453   26.8710 C   0  0  0  0  0  0  0  0  0  0  0  0
    5.2840   -9.3690   27.9245 C   0  0  0  0  0  0  0  0  0  0  0  0
    1.1872   -7.7414   26.9815 C   0  0  0  0  0  0  0  0  0  0  0  0
    2.6695  -11.6554   18.3132 O   0  0  0  0  0  0  0  0  0  0  0  0
    5.1062  -12.1491   16.4692 P   0  0  0  0  0  0  0  0  0  0  0  0
    4.1382   -9.3180   30.4632 Br  0  0  0  0  0  0  0  0  0  0  0  0
    3.7290   -8.1161   28.2111 Cl  0  0  0  0  0  0  0  0  0  0  0  0
    6.2270   -8.4685   25.8652 O   0  0  0  0  0  0  0  0  0  0  0  0
    7.0541   -7.5938   28.4778 N   0  0  0  0  0  0  0  0  0  0  0  0
    5.0703   -8.0392   28.7361 N   0  0  0  0  0  0  0  0  0  0  0  0
    6.7124  -11.0882   27.7984 He  0  0  0  0  0  0  0  0  0  0  0  0
    0.9043   -6.6008   27.4773 He  0  0  0  0  0  0  0  0  0  0  0  0
    1.7487   -9.9029   15.6544 He  0  0  0  0  0  0  0  0  0  0  0  0
    0.0395   -6.6889   26.1687 He  0  0  0  0  0  0  0  0  0  0  0  0
    4.4890   -7.6881   27.3001 He  0  0  0  0  0  0  0  0  0  0  0  0
    3.9241  -11.4181   18.5360 He  0  0  0  0  0  0  0  0  0  0  0  0
    1.3227   -9.5150   29.1856 He  0  0  0  0  0  0  0  0  0  0  0  0
    2.1670   -5.8156   29.3217 He  0  0  0  0  0  0  0  0  0  0  0  0
    1.1694   -4.4768   25.6604 He  0  0  0  0  0  0  0  0  0  0  0  0
    0.1570   -7.1400   28.7289 He  0  0  0  0  0  0  0  0  0  0  0  0
   -1.8198  -10.6453   17.4322 He  0  0  0  0  0  0  0  0  0  0  0  0
    2.0804  -11.2944   17.9235 He  0  0  0  0  0  0  0  0  0  0  0  0
    2.6573   -8.4282   26.4345 He  0  0  0  0  0  0  0  0  0  0  0  0
    6.7294   -9.7445   15.5161 He  0  0  0  0  0  0  0  0  0  0  0  0
    1.2178  -10.7616   15.6495 He  0  0  0  0  0  0  0  0  0  0  0  0
    1.4260   -5.0707   26.0298 He  0  0  0  0  0  0  0  0  0  0  0  0
  1  2  4  0
  1  4  3  0
  1  6  4  0
  1  8  2  0
  2  3  4  0
  2  6  2  0
  2 10  2  0
  2 11  3  0
  3  4  4  0
  3  5  2  0
  3  6  3  0
  3  7  1  0
  3  9  4  0
  3 11  4  0
  4  9  2  0
  4 10  1  0
  4 12  1  0
  5 10  3  0
  5 12  4  0
  6  7  3  0
  6  9  2  0
  6 10  1  0
  6 11  2  0
  7  8  1  0
  7 11  3  0
  7 12  2  0
  8  9  2  0
  8 10  1  0
  8 11  1  0
  9 12  4  0
M  END
$$$$

 Created by Python create_sdf_string function

 28 34  0  0  0  0  0  0  0  0999 V2000
    5.4520   -9.7916   27.4899 N   0  0  0  0  0  0  0  0  0  0  0  0
    1.6623   -4.2950   28.0885 N   0  0  0  0  0  0  0  0  0  0  0  0
    2.8252   -6.2572   27.5353 C   0  0  0  0  0  0  0  0  0  0  0  0
    4.9452  -11.6725   16.1648 F   0  0  0  0  0  0  0  0  0  0  0  0
    3.6035   -7.9819   28.0366 C   0  0  0  0  0  0  0  0  0  0  0  0
    2.5266   -6.6994   31.6055 Cl  0  0  0  0  0  0  0  0  0  0  0  0
    3.0956   -7.9026   31.2043 F   0  0  0  0  0  0  0  0  0  0  0  0
    0.1024   -7.1985   28.4023 C   0  0  0  0  0  0  0  0  0  0  0  0
    3.8864   -7.0970   29.1232 S   0  0  0  0  0  0  0  0  0  0  0  0
    3.3093   -8.0371   26.6717 O   0  0  0  0  0  0  0  0  0  0  0  0
    0.9665  -10.2839   13.4734 F   0  0  0  0  0  0  0  0  0  0  0  0
   -0.6424   -5.0533   26.9835 Br  0  0  0  0  0  0  0  0  0  0  0  0
    6.9866   -7.0607   25.3583 Cl  0  0  0  0  0  0  0  0  0  0  0  0
    5.5856   -8.7871   28.5164 C   0  0  0  0  0  0  0  0  0  0  0  0
    0.4014   -6.9673   25.9521 He  0  0  0  0  0  0  0  0  0  0  0  0
    0.0674  -10.1674   17.5520 He  0  0  0  0  0  0  0  0  0  0  0  0
    1.9788   -6.3727   25.9913 He  0  0  0  0  0  0  0  0  0  0  0  0
    2.5447  -10.7346   16.6663 He  0  0  0  0  0  0  0  0  0  0  0  0
    4.6852   -7.2293   26.5885 He  0  0  0  0  0  0  0  0  0  0  0  0
    2.8864   -6.5174   27.7230 He  0  0  0  0  0  0  0  0  0  0  0  0
    3.8902  -10.2138   16.7163 He  0  0  0  0  0  0  0  0  0  0  0  0
    4.6403   -8.6633   28.2361 He  0  0  0  0  0  0  0  0  0  0  0  0
    1.9835  -12.3540   18.6174 He  0  0  0  0  0  0  0  0  0  0  0  0
    2.1979   -3.9987   27.2718 He  0  0  0  0  0  0  0  0  0  0  0  0
   -0.0250  -10.7208   16.7183 He  0  0  0  0  0  0  0  0  0  0  0  0
    1.5150   -8.9284   17.2970 He  0  0  0  0  0  0  0  0  0  0  0  0
    3.5187  -11.0100   16.3994 He  0  0  0  0  0  0  0  0  0  0  0  0
    7.2702   -8.4966   26.4717 He  0  0  0  0  0  0  0  0  0  0  0  0
  1  2  3  0
  1  4  3  0
  1  5  2  0
  1  6  1  0
  1 10  2  0
  1 12  4  0
  2  7  2  0
  2  8  3  0
  2  9  1  0
  2 12  2  0
  2 13  4  0
  3  4  4  0
  3  5  3  0
  3  8  2  0
  3  9  3  0
  3 11  4  0
  3 12  2  0
  4  7  3  0
  4  9  1  0
  4 14  1  0
  5  7  1  0
  6 10  3  0
  6 13  4  0
  7  9  3  0
  7 12  4  0
  7 13  2  0
  8  9  1  0
  8 10  1  0
  8 11  2  0
  8 13  2  0
  9 11  1  0
 10 12  4  0
 11 12  4  0
 12 13  2  0
M  END
$$$$

 Created by Python create_sdf_string function

 28 32  0  0  0  0  0  0  0  0999 V2000
    2.9798   -5.3593   27.5709 Cl  0  0  0  0  0  0  0  0  0  0  0  0
    0.6014  -10.8708   18.1087 S   0  0  0  0  0  0  0  0  0  0  0  0
    1.8512   -3.9461   27.4936 S   0  0  0  0  0  0  0  0  0  0  0  0
    2.1511   -6.5310   28.2572 C   0  0  0  0  0  0  0  0  0  0  0  0
    2.3353   -6.8980   28.1702 Cl  0  0  0  0  0  0  0  0  0  0  0  0
    5.0542   -7.1676   27.7957 N   0  0  0  0  0  0  0  0  0  0  0  0
    3.4221   -9.5890   17.4290 F   0  0  0  0  0  0  0  0  0  0  0  0
    4.3218  -11.2743   17.5018 O   0  0  0  0  0  0  0  0  0  0  0  0
    2.2640   -8.6172   27.4169 I   0  0  0  0  0  0  0  0  0  0  0  0
    1.7746   -5.1899   26.4645 C   0  0  0  0  0  0  0  0  0  0  0  0
    2.4598   -8.0564   28.6791 Cl  0  0  0  0  0  0  0  0  0  0  0  0
    4.4548   -7.9316   28.5190 Cl  0  0  0  0  0  0  0  0  0  0  0  0
    2.4233   -6.5085   26.3169 Br  0  0  0  0  0  0  0  0  0  0  0  0
    1.9353  -11.6950   15.2003 N   0  0  0  0  0  0  0  0  0  0  0  0
    4.8252   -6.9250   26.9768 He  0  0  0  0  0  0  0  0  0  0  0  0
    3.2507  -11.0209   17.4374 He  0  0  0  0  0  0  0  0  0  0  0  0
    5.3295   -6.4922   25.0864 He  0  0  0  0  0  0  0  0  0  0  0  0
    4.0564   -9.6758   16.1678 He  0  0  0  0  0  0  0  0  0  0  0  0
    2.8356   -5.4920   28.9134 He  0  0  0  0  0  0  0  0  0  0  0  0
    3.2549   -6.3453   30.5932 He  0  0  0  0  0  0  0  0  0  0  0  0
    3.1563   -7.6162   30.1512 He  0  0  0  0  0  0  0  0  0  0  0  0
    1.1172   -9.1566   17.6462 He  0  0  0  0  0  0  0  0  0  0  0  0
    1.6650   -9.5311   15.1358 He  0  0  0  0  0  0  0  0  0  0  0  0
    3.3762  -12.6026   14.6822 He  0  0  0  0  0  0  0  0  0  0  0  0
   -0.7412   -4.4218   26.0432 He  0  0  0  0  0  0  0  0  0  0  0  0
    6.0460   -6.9827   27.3756 He  0  0  0  0  0  0  0  0  0  0  0  0
    7.5959   -7.9062   27.2303 He  0  0  0  0  0  0  0  0  0  0  0  0
    5.2957   -9.1538   29.3816 He  0  0  0  0  0  0  0  0  0  0  0  0
  1  4  1  0
  1 11  1  0
  2  3  4  0
  2  9  4  0
  2 12  2  0
  2 13  2  0
  2 14  3  0
  3  4  2  0
  3  6  2  0
  3  7  3  0
  3 14  2  0
  4  5  2  0
  4 10  1  0
  5  7  2  0
  5  8  4  0
  5  9  4  0
  5 10  4  0
  5 11  3  0
  5 12  2  0
  6  9  4  0
  6 12  4  0
  6 13  3  0
  6 14  4  0
  7  9  4  0
  7 10  1  0
  7 13  4  0
  9 10  2  0
  9 11  4  0
 10 11  4  0
 10 13  3  0
 11 14  4  0
 12 14  3  0
M  END
$$$$

 Created by Python create_sdf_string function

 28 33  0  0  0  0  0  0  0  0999 V2000
    1.7266  -10.3431   17.9509 C   0  0  0  0  0  0  0  0  0  0  0  0
    0.7860   -3.3560   28.2058 Br  0  0  0  0  0  0  0  0  0  0  0  0
    2.4163  -10.8536   15.6792 N   0  0  0  0  0  0  0  0  0  0  0  0
    1.5075   -5.7810   28.8898 Cl  0  0  0  0  0  0  0  0  0  0  0  0
    2.4029  -11.0485   17.4084 Se  0  0  0  0  0  0  0  0  0  0  0  0
    2.8145   -5.9228   28.6920 N   0  0  0  0  0  0  0  0  0  0  0  0
    2.3992   -8.6870   17.9152 N   0  0  0  0  0  0  0  0  0  0  0  0
    4.8888  -11.0844   16.4047 S   0  0  0  0  0  0  0  0  0  0  0  0
    1.3013   -7.1386   27.9196 C   0  0  0  0  0  0  0  0  0  0  0  0
    3.6936   -7.4920   31.1365 P   0  0  0  0  0  0  0  0  0  0  0  0
    3.3137   -8.1182   32.2421 P   0  0  0  0  0  0  0  0  0  0  0  0
    0.3282   -4.3247   27.9065 C   0  0  0  0  0  0  0  0  0  0  0  0
    1.3593   -7.2499   26.9951 C   0  0  0  0  0  0  0  0  0  0  0  0
    2.2889  -12.7840   15.8652 N   0  0  0  0  0  0  0  0  0  0  0  0
    6.0889   -8.0097   26.5247 C   0  0  0  0  0  0  0  0  0  0  0  0
    3.5326   -9.1971   27.1066 He  0  0  0  0  0  0  0  0  0  0  0  0
    2.8851   -4.1891   28.8481 He  0  0  0  0  0  0  0  0  0  0  0  0
    2.4502   -6.7761   28.4926 He  0  0  0  0  0  0  0  0  0  0  0  0
    5.5517   -6.7007   25.6826 He  0  0  0  0  0  0  0  0  0  0  0  0
    5.3845   -8.4042   26.9489 He  0  0  0  0  0  0  0  0  0  0  0  0
    2.8709   -7.1708   28.0593 He  0  0  0  0  0  0  0  0  0  0  0  0
    0.3629   -9.9601   17.4697 He  0  0  0  0  0  0  0  0  0  0  0  0
    0.7420  -10.6628   15.6150 He  0  0  0  0  0  0  0  0  0  0  0  0
    5.3724   -9.6524   29.7322 He  0  0  0  0  0  0  0  0  0  0  0  0
    3.3486  -11.8883   16.4308 He  0  0  0  0  0  0  0  0  0  0  0  0
    1.5562   -4.1889   26.4335 He  0  0  0  0  0  0  0  0  0  0  0  0
    8.5667   -7.7519   26.4607 He  0  0  0  0  0  0  0  0  0  0  0  0
    5.3128   -7.9647   29.0386 He  0  0  0  0  0  0  0  0  0  0  0  0
  1  3  2  0
  1  5  1  0
  1  6  3  0
  2  6  2  0
  2  7  3  0
  2 10  3  0
  2 12  3  0
  2 15  2  0
  3  4  3  0
  3  5  3  0
  3 14  2  0
  4  8  2  0
  4  9  1  0
  4 13  3  0
  4 15  3  0
  5 12  2  0
  5 15  4  0
  6  7  3  0
  6 11  4  0
  6 13  4  0
  7  9  4  0
  7 15  2  0
  8 12  4  0
  8 13  3  0
  8 15  4  0
  9 10  3  0
  9 14  1  0
  9 15  1  0
 10 14  2  0
 10 15  2  0
 11 14  4  0
 12 15  4  0
 14 15  4  0
M  END
$$$$

 Created by Python create_sdf_string function

 28 28  0  0  0  0  0  0  0  0999 V2000
    2.5839   -2.9656   27.4094 F   0  0  0  0  0  0  0  0  0  0  0  0
    0.1389   -9.5514   17.6418 C   0  0  0  0  0  0  0  0  0  0  0  0
    4.3379   -8.3364   28.4296 C   0  0  0  0  0  0  0  0  0  0  0  0
    2.0467  -11.8735   15.3300 F   0  0  0  0  0  0  0  0  0  0  0  0
    1.4976   -4.4926   29.5289 F   0  0  0  0  0  0  0  0  0  0  0  0
    4.6202  -10.8820   17.8339 O   0  0  0  0  0  0  0  0  0  0  0  0
    1.0716   -7.2752   28.2307 N   0  0  0  0  0  0  0  0  0  0  0  0
    4.7890   -8.6996   31.8630 F   0  0  0  0  0  0  0  0  0  0  0  0
    1.9205   -7.6420   26.2437 P   0  0  0  0  0  0  0  0  0  0  0  0
    2.8497  -12.8800   14.0378 B   0  0  0  0  0  0  0  0  0  0  0  0
    2.3618   -4.3597   25.9762 F   0  0  0  0  0  0  0  0  0  0  0  0
    5.6987   -8.6765   27.8124 O   0  0  0  0  0  0  0  0  0  0  0  0
    3.0006   -8.1776   26.6958 He  0  0  0  0  0  0  0  0  0  0  0  0
   -0.1864   -3.7431   28.0122 He  0  0  0  0  0  0  0  0  0  0  0  0
    5.9753   -8.7689   26.2612 He  0  0  0  0  0  0  0  0  0  0  0  0
    1.7679  -10.1552   17.1544 He  0  0  0  0  0  0  0  0  0  0  0  0
    4.1816   -7.7611   26.6040 He  0  0  0  0  0  0  0  0  0  0  0  0
    1.3731   -5.9127   27.8152 He  0  0  0  0  0  0  0  0  0  0  0  0
    3.3794   -9.7550   17.5091 He  0  0  0  0  0  0  0  0  0  0  0  0
    4.0483  -10.0627   30.0476 He  0  0  0  0  0  0  0  0  0  0  0  0
    1.4709   -4.4988   24.9279 He  0  0  0  0  0  0  0  0  0  0  0  0
    1.9151   -7.7883   28.4030 He  0  0  0  0  0  0  0  0  0  0  0  0
   -1.3289   -9.3052   17.3660 He  0  0  0  0  0  0  0  0  0  0  0  0
    0.3359  -11.0990   16.5233 He  0  0  0  0  0  0  0  0  0  0  0  0
    3.5956   -7.8439   29.5099 He  0  0  0  0  0  0  0  0  0  0  0  0
    3.9087  -11.5552   16.2926 He  0  0  0  0  0  0  0  0  0  0  0  0
    6.6183   -6.6623   25.2644 He  0  0  0  0  0  0  0  0  0  0  0  0
    6.5339   -8.1178   28.1041 He  0  0  0  0  0  0  0  0  0  0  0  0
  1  2  3  0
  1  6  1  0
  1  7  4  0
  1  8  3  0
  1  9  3  0
  1 10  2  0
  1 12  3  0
  2  3  2  0
  2  6  4  0
  2  8  2  0
  2 11  2  0
  3  5  1  0
  3  8  1  0
  4  7  4  0
  4  8  4  0
  4 12  3  0
  5  6  3  0
  5  7  1  0
  5 11  4  0
  5 12  4  0
  6 10  4  0
  7  8  1  0
  7 10  4  0
  7 11  4  0
  7 12  1  0
  8 11  3  0
  9 10  3  0
  9 11  3  0
M  END
$$$$

 Created by Python create_sdf_string function

 28 39  0  0  0  0  0  0  0  0999 V2000
    3.6350   -7.0105   27.2906 O   0  0  0  0  0  0  0  0  0  0  0  0
    2.4506   -4.4301   26.6427 O   0  0  0  0  0  0  0  0  0  0  0  0
    0.4317  -10.5054   17.6461 Br  0  0  0  0  0  0  0  0  0  0  0  0
    4.3232  -10.0203   29.3492 C   0  0  0  0  0  0  0  0  0  0  0  0
    3.0430  -12.3717   16.5968 F   0  0  0  0  0  0  0  0  0  0  0  0
    5.8523   -7.7276   26.4930 O   0  0  0  0  0  0  0  0  0  0  0  0
    1.7376   -5.3646   28.9506 F   0  0  0  0  0  0  0  0  0  0  0  0
    0.7862  -10.8394   15.7581 P   0  0  0  0  0  0  0  0  0  0  0  0
    0.2482   -5.3221   27.7308 P   0  0  0  0  0  0  0  0  0  0  0  0
    4.4105  -10.0542   16.1874 S   0  0  0  0  0  0  0  0  0  0  0  0
    3.4474   -9.9798   30.7793 Cl  0  0  0  0  0  0  0  0  0  0  0  0
    1.0760   -4.1453   25.4915 N   0  0  0  0  0  0  0  0  0  0  0  0
    2.7348   -7.6852   28.5150 Br  0  0  0  0  0  0  0  0  0  0  0  0
   -0.5332  -10.9687   17.0729 N   0  0  0  0  0  0  0  0  0  0  0  0
    3.9952  -12.0157   14.8774 O   0  0  0  0  0  0  0  0  0  0  0  0
    6.8104  -10.3178   28.0746 O   0  0  0  0  0  0  0  0  0  0  0  0
   -0.4280   -3.1484   26.4998 He  0  0  0  0  0  0  0  0  0  0  0  0
    4.8227  -10.4998   26.8609 He  0  0  0  0  0  0  0  0  0  0  0  0
    3.0899  -10.4086   18.0183 He  0  0  0  0  0  0  0  0  0  0  0  0
    4.4132   -7.2937   28.6258 He  0  0  0  0  0  0  0  0  0  0  0  0
    4.2837  -10.3194   30.6968 He  0  0  0  0  0  0  0  0  0  0  0  0
    0.6607  -11.6141   16.8529 He  0  0  0  0  0  0  0  0  0  0  0  0
    3.0272   -8.3629   27.4596 He  0  0  0  0  0  0  0  0  0  0  0  0
    2.5640   -7.4698   26.0079 He  0  0  0  0  0  0  0  0  0  0  0  0
    2.5521  -12.9440   16.3852 He  0  0  0  0  0  0  0  0  0  0  0  0
    0.6741   -6.0011   25.9654 He  0  0  0  0  0  0  0  0  0  0  0  0
    4.4506   -7.4464   26.6669 He  0  0  0  0  0  0  0  0  0  0  0  0
    5.6224   -9.9411   26.5490 He  0  0  0  0  0  0  0  0  0  0  0  0
  1  2  1  0
  1  4  1  0
  1  7  2  0
  1  8  1  0
  1  9  4  0
  1 11  3  0
  1 13  2  0
  1 15  4  0
  2  6  2  0
  2  7  1  0
  2 10  3  0
  2 12  3  0
  2 13  3  0
  3  7  4  0
  3  8  4  0
  3 11  4  0
  4  5  3  0
  4  6  3  0
  4 11  1  0
  4 14  2  0
  4 16  1  0
  5  8  3  0
  5  9  4  0
  5 10  2  0
  5 15  1  0
  6  9  3  0
  6 15  1  0
  6 16  4  0
  7 12  3  0
  8 10  4  0
  8 12  4  0
  9 11  1  0
  9 15  4  0
  9 16  1  0
 10 16  4  0
 11 12  3  0
 12 14  1  0
 13 15  4  0
 13 16  2  0
M  END
$$$$

 Created by Python create_sdf_string function

 28 11  0  0  0  0  0  0  0  0999 V2000
    2.1063   -4.6503   27.1051 F   0  0  0  0  0  0  0  0  0  0  0  0
    4.0266  -11.8709   16.0248 S   0  0  0  0  0  0  0  0  0  0  0  0
    5.7338   -8.3522   26.6775 O   0  0  0  0  0  0  0  0  0  0  0  0
    5.4870   -6.4349   27.7905 S   0  0  0  0  0  0  0  0  0  0  0  0
    1.2536  -11.2111   15.4945 I   0  0  0  0  0  0  0  0  0  0  0  0
    5.4718   -7.5218   27.0806 O   0  0  0  0  0  0  0  0  0  0  0  0
    4.8287  -11.9077   13.5518 C   0  0  0  0  0  0  0  0  0  0  0  0
    3.3020  -12.2014   15.7065 C   0  0  0  0  0  0  0  0  0  0  0  0
    5.3360   -9.8984   25.7707 N   0  0  0  0  0  0  0  0  0  0  0  0
    1.5617   -8.4805   28.3078 He  0  0  0  0  0  0  0  0  0  0  0  0
   -0.4792  -10.3155   16.9499 He  0  0  0  0  0  0  0  0  0  0  0  0
    0.2227   -4.1478   26.7436 He  0  0  0  0  0  0  0  0  0  0  0  0
    3.2700  -10.7483   29.8439 He  0  0  0  0  0  0  0  0  0  0  0  0
    1.5198   -4.6709   28.7775 He  0  0  0  0  0  0  0  0  0  0  0  0
    1.1245  -12.6937   17.0608 He  0  0  0  0  0  0  0  0  0  0  0  0
    5.4797   -9.7294   26.1074 He  0  0  0  0  0  0  0  0  0  0  0  0
    0.4775   -5.9800   27.5314 He  0  0  0  0  0  0  0  0  0  0  0  0
    3.1653  -10.3733   16.0118 He  0  0  0  0  0  0  0  0  0  0  0  0
    3.9600  -10.9720   17.1570 He  0  0  0  0  0  0  0  0  0  0  0  0
    4.2901   -9.7214   29.1164 He  0  0  0  0  0  0  0  0  0  0  0  0
    3.3924   -8.8508   30.6735 He  0  0  0  0  0  0  0  0  0  0  0  0
   -1.5135   -3.8507   27.4008 He  0  0  0  0  0  0  0  0  0  0  0  0
    2.8429   -6.9244   28.7680 He  0  0  0  0  0  0  0  0  0  0  0  0
   -0.0808  -10.3038   18.2054 He  0  0  0  0  0  0  0  0  0  0  0  0
    0.4059   -5.8857   27.2698 He  0  0  0  0  0  0  0  0  0  0  0  0
    1.4486   -6.5445   27.6408 He  0  0  0  0  0  0  0  0  0  0  0  0
    2.0628   -7.8077   27.2804 He  0  0  0  0  0  0  0  0  0  0  0  0
    6.7432  -10.2256   27.7221 He  0  0  0  0  0  0  0  0  0  0  0  0
  1  7  3  0
  2  3  2  0
  2  4  1  0
  3  4  1  0
  3  5  1  0
  3  8  4  0
  3  9  2  0
  4  7  3  0
  5  6  4  0
  6  7  4  0
  6  9  4  0
M  END
$$$$

 Created by Python create_sdf_string function

 28 16  0  0  0  0  0  0  0  0999 V2000
   -0.3851   -3.2741   27.9502 S   0  0  0  0  0  0  0  0  0  0  0  0
    3.5150  -10.5432   29.6163 N   0  0  0  0  0  0  0  0  0  0  0  0
    5.1850  -11.3262   14.9645 O   0  0  0  0  0  0  0  0  0  0  0  0
    5.0797   -8.8285   27.0105 Cl  0  0  0  0  0  0  0  0  0  0  0  0
    0.0396   -8.4222   27.7579 N   0  0  0  0  0  0  0  0  0  0  0  0
    6.0511   -5.6672   27.9239 F   0  0  0  0  0  0  0  0  0  0  0  0
    3.1642   -5.7621   27.7429 N   0  0  0  0  0  0  0  0  0  0  0  0
    4.7598   -9.0016   26.7263 N   0  0  0  0  0  0  0  0  0  0  0  0
    6.1554   -7.6159   28.6917 O   0  0  0  0  0  0  0  0  0  0  0  0
    1.9651   -8.4419   28.1702 He  0  0  0  0  0  0  0  0  0  0  0  0
    2.2965   -5.3366   26.0679 He  0  0  0  0  0  0  0  0  0  0  0  0
    0.4732   -9.8161   16.0404 He  0  0  0  0  0  0  0  0  0  0  0  0
    3.3432   -8.0081   25.9767 He  0  0  0  0  0  0  0  0  0  0  0  0
    1.1386   -4.5514   28.3268 He  0  0  0  0  0  0  0  0  0  0  0  0
    0.1704  -13.1228   19.3015 He  0  0  0  0  0  0  0  0  0  0  0  0
    1.3168  -10.5257   17.5289 He  0  0  0  0  0  0  0  0  0  0  0  0
    3.6330  -10.8364   17.5252 He  0  0  0  0  0  0  0  0  0  0  0  0
    4.5721   -6.9999   27.6819 He  0  0  0  0  0  0  0  0  0  0  0  0
    3.4975   -8.8541   28.6085 He  0  0  0  0  0  0  0  0  0  0  0  0
    3.6248   -8.2210   29.9794 He  0  0  0  0  0  0  0  0  0  0  0  0
   -2.0731   -4.7697   26.2170 He  0  0  0  0  0  0  0  0  0  0  0  0
    3.2478   -8.5506   27.6664 He  0  0  0  0  0  0  0  0  0  0  0  0
    0.2576  -10.9468   17.5375 He  0  0  0  0  0  0  0  0  0  0  0  0
    2.2955  -11.2849   15.1260 He  0  0  0  0  0  0  0  0  0  0  0  0
    0.5352   -6.1212   27.2987 He  0  0  0  0  0  0  0  0  0  0  0  0
    3.9607  -10.5120   14.8829 He  0  0  0  0  0  0  0  0  0  0  0  0
    3.3184  -12.9278   16.2019 He  0  0  0  0  0  0  0  0  0  0  0  0
    2.3722   -6.2804   28.2325 He  0  0  0  0  0  0  0  0  0  0  0  0
  1  5  4  0
  1  6  1  0
  1  7  2  0
  2  4  2  0
  2  7  2  0
  3  7  4  0
  3  9  4  0
  4  8  4  0
  5  6  2  0
  5  7  1  0
  5  8  2  0
  5  9  3  0
  6  7  4  0
  6  8  1  0
  6  9  2  0
  7  8  4  0
M  END
$$$$

 Created by Python create_sdf_string function

 28 26  0  0  0  0  0  0  0  0999 V2000
    0.3106   -3.2404   27.5795 C   0  0  0  0  0  0  0  0  0  0  0  0
    3.1542   -9.5406   27.8340 F   0  0  0  0  0  0  0  0  0  0  0  0
    2.4902   -5.7637   26.1211 P   0  0  0  0  0  0  0  0  0  0  0  0
   -0.1277   -4.9509   26.7023 Br  0  0  0  0  0  0  0  0  0  0  0  0
    0.6262  -12.3671   17.4648 C   0  0  0  0  0  0  0  0  0  0  0  0
    5.5914   -7.7699   25.9323 F   0  0  0  0  0  0  0  0  0  0  0  0
    1.5284   -9.6954   29.2607 F   0  0  0  0  0  0  0  0  0  0  0  0
    4.8241   -8.8196   28.2784 F   0  0  0  0  0  0  0  0  0  0  0  0
    3.2943  -11.8681   15.0999 O   0  0  0  0  0  0  0  0  0  0  0  0
    0.4812   -5.7350   26.3001 N   0  0  0  0  0  0  0  0  0  0  0  0
    2.6448  -10.3026   15.8365 S   0  0  0  0  0  0  0  0  0  0  0  0
    2.5266  -11.9302   16.3100 C   0  0  0  0  0  0  0  0  0  0  0  0
    6.5000   -8.2928   28.4204 C   0  0  0  0  0  0  0  0  0  0  0  0
    1.4254   -9.3986   29.4646 He  0  0  0  0  0  0  0  0  0  0  0  0
    1.1118   -7.1992   26.5043 He  0  0  0  0  0  0  0  0  0  0  0  0
    1.2408  -10.8402   17.2542 He  0  0  0  0  0  0  0  0  0  0  0  0
    4.6876  -12.1131   13.9561 He  0  0  0  0  0  0  0  0  0  0  0  0
    2.9299  -10.0603   16.0119 He  0  0  0  0  0  0  0  0  0  0  0  0
    2.6865  -11.4940   16.3663 He  0  0  0  0  0  0  0  0  0  0  0  0
    4.3088   -6.9165   27.6201 He  0  0  0  0  0  0  0  0  0  0  0  0
    2.2766   -9.3992   29.8007 He  0  0  0  0  0  0  0  0  0  0  0  0
   -2.0005   -3.6196   26.8447 He  0  0  0  0  0  0  0  0  0  0  0  0
    2.3372   -7.6891   27.9365 He  0  0  0  0  0  0  0  0  0  0  0  0
    0.6433   -9.6431   18.5964 He  0  0  0  0  0  0  0  0  0  0  0  0
    6.7197   -5.2249   28.0006 He  0  0  0  0  0  0  0  0  0  0  0  0
    3.7571   -5.4444   28.2307 He  0  0  0  0  0  0  0  0  0  0  0  0
    1.4740   -7.1438   28.8965 He  0  0  0  0  0  0  0  0  0  0  0  0
    4.4028   -6.8255   26.5494 He  0  0  0  0  0  0  0  0  0  0  0  0
  1  2  1  0
  1 10  2  0
  1 13  4  0
  2  5  4  0
  2  7  1  0
  2 13  3  0
  3  6  4  0
  3  7  1  0
  3  8  3  0
  3 11  3  0
  4  5  1  0
  4  7  4  0
  4 11  2  0
  4 13  4  0
  5  7  4  0
  5  8  1  0
  5 10  2  0
  6  7  3  0
  6  8  4  0
  6 12  3  0
  7 13  3  0
  8 10  1  0
  8 13  1  0
  9 11  3  0
  9 13  1  0
 10 13  1  0
M  END
$$$$

 Created by Python create_sdf_string function

 28 72  0  0  0  0  0  0  0  0999 V2000
    2.4672  -10.5059   29.0505 C   0  0  0  0  0  0  0  0  0  0  0  0
   -1.3467   -5.9466   27.4932 C   0  0  0  0  0  0  0  0  0  0  0  0
   -0.2486  -10.2850   18.1097 F   0  0  0  0  0  0  0  0  0  0  0  0
   -2.0854   -2.9939   26.8194 S   0  0  0  0  0  0  0  0  0  0  0  0
    2.4586   -9.6068   29.2418 O   0  0  0  0  0  0  0  0  0  0  0  0
    4.6134  -12.4859   15.3742 F   0  0  0  0  0  0  0  0  0  0  0  0
    1.1828   -6.5938   26.8964 N   0  0  0  0  0  0  0  0  0  0  0  0
    5.6955   -7.3265   27.8063 Se  0  0  0  0  0  0  0  0  0  0  0  0
    1.0847   -8.9245   30.5537 F   0  0  0  0  0  0  0  0  0  0  0  0
    3.2647   -7.8969   26.6853 O   0  0  0  0  0  0  0  0  0  0  0  0
    5.6101   -8.4832   26.2648 Cl  0  0  0  0  0  0  0  0  0  0  0  0
    1.9403   -8.8162   29.0232 C   0  0  0  0  0  0  0  0  0  0  0  0
    3.3701   -7.0466   28.2391 F   0  0  0  0  0  0  0  0  0  0  0  0
    1.0737   -9.8526   17.6553 Cl  0  0  0  0  0  0  0  0  0  0  0  0
    2.8180  -10.8739   14.7717 Cl  0  0  0  0  0  0  0  0  0  0  0  0
    1.2167   -6.3920   25.4435 C   0  0  0  0  0  0  0  0  0  0  0  0
    2.4163  -12.2659   16.7320 Se  0  0  0  0  0  0  0  0  0  0  0  0
    6.2870   -4.7362   27.1247 C   0  0  0  0  0  0  0  0  0  0  0  0
    3.5310   -7.4962   27.5161 C   0  0  0  0  0  0  0  0  0  0  0  0
    6.7129   -7.6094   28.5532 Cl  0  0  0  0  0  0  0  0  0  0  0  0
   -0.3630   -4.4788   27.3603 He  0  0  0  0  0  0  0  0  0  0  0  0
    0.6358  -11.5993   17.7145 He  0  0  0  0  0  0  0  0  0  0  0  0
    3.2946  -11.1657   15.7268 He  0  0  0  0  0  0  0  0  0  0  0  0
    1.0355  -11.6938   14.7865 He  0  0  0  0  0  0  0  0  0  0  0  0
   -0.7464   -3.8280   26.8085 He  0  0  0  0  0  0  0  0  0  0  0  0
    7.3628   -4.8852   27.4778 He  0  0  0  0  0  0  0  0  0  0  0  0
    4.4214   -9.8686   15.1944 He  0  0  0  0  0  0  0  0  0  0  0  0
    0.5777   -6.8014   27.4248 He  0  0  0  0  0  0  0  0  0  0  0  0
  1  2  1  0
  1  4  2  0
  1  5  4  0
  1  9  1  0
  1 10  2  0
  1 11  4  0
  1 13  1  0
  1 18  3  0
  2  5  4  0
  2  7  2  0
  2 12  1  0
  2 16  1  0
  2 17  4  0
  2 19  3  0
  3  4  4  0
  3  6  1  0
  3  7  4  0
  3  9  2  0
  3 11  4  0
  3 12  1  0
  3 14  1  0
  3 16  3  0
  3 18  3  0
  4  5  1  0
  4  8  2  0
  4  9  4  0
  4 12  1  0
  4 14  1  0
  4 17  4  0
  4 18  3  0
  5  6  1  0
  5 11  1  0
  5 12  4  0
  5 20  1  0
  6  7  1  0
  6  8  3  0
  6 11  3  0
  6 19  3  0
  7 10  4  0
  7 11  3  0
  7 13  3  0
  7 15  3  0
  7 17  1  0
  7 18  1  0
  8  9  2  0
  8 16  1  0
  8 20  4  0
  9 10  3  0
  9 11  3  0
  9 12  1  0
  9 13  3  0
  9 17  4  0
  9 19  3  0
 10 11  3  0
 10 12  4  0
 10 13  1  0
 10 17  4  0
 10 18  4  0
 11 13  1  0
 11 14  1  0
 11 15  1  0
 11 17  1  0
 12 16  2  0
 12 17  1  0
 13 18  1  0
 14 18  4  0
 14 20  3  0
 15 16  4  0
 16 18  4  0
 16 20  4  0
 17 18  3  0
 19 20  2  0
M  END
$$$$

 Created by Python create_sdf_string function

 28 35  0  0  0  0  0  0  0  0999 V2000
    2.0154  -10.1670   28.2588 O   0  0  0  0  0  0  0  0  0  0  0  0
   -1.4133   -3.8664   27.0894 Cl  0  0  0  0  0  0  0  0  0  0  0  0
    1.8620  -10.4955   28.5665 N   0  0  0  0  0  0  0  0  0  0  0  0
    0.4129  -12.8131   16.5346 P   0  0  0  0  0  0  0  0  0  0  0  0
    2.9733  -10.8101   30.0638 C   0  0  0  0  0  0  0  0  0  0  0  0
   -0.2111   -4.1193   27.2555 N   0  0  0  0  0  0  0  0  0  0  0  0
    2.0944   -7.1077   27.0560 P   0  0  0  0  0  0  0  0  0  0  0  0
   -0.1029   -9.9467   15.9984 C   0  0  0  0  0  0  0  0  0  0  0  0
    1.9244  -11.3654   15.1120 Cl  0  0  0  0  0  0  0  0  0  0  0  0
    8.1562   -4.6320   27.9883 F   0  0  0  0  0  0  0  0  0  0  0  0
    1.3968   -6.3867   25.8489 F   0  0  0  0  0  0  0  0  0  0  0  0
    3.4984  -11.3929   14.1804 F   0  0  0  0  0  0  0  0  0  0  0  0
    6.0926   -4.9090   26.3881 O   0  0  0  0  0  0  0  0  0  0  0  0
    3.5850   -6.9281   27.4402 N   0  0  0  0  0  0  0  0  0  0  0  0
   -1.3061   -4.2834   27.2070 He  0  0  0  0  0  0  0  0  0  0  0  0
   -0.2084   -8.7177   18.4247 He  0  0  0  0  0  0  0  0  0  0  0  0
    4.6147  -11.3012   15.5020 He  0  0  0  0  0  0  0  0  0  0  0  0
    1.3777   -5.3666   27.6815 He  0  0  0  0  0  0  0  0  0  0  0  0
   -0.1289   -4.4786   26.2379 He  0  0  0  0  0  0  0  0  0  0  0  0
    6.8677   -6.7521   27.6588 He  0  0  0  0  0  0  0  0  0  0  0  0
    5.1707  -12.7067   15.4963 He  0  0  0  0  0  0  0  0  0  0  0  0
    0.5508  -11.2544   17.6858 He  0  0  0  0  0  0  0  0  0  0  0  0
    3.0510   -7.1682   26.4376 He  0  0  0  0  0  0  0  0  0  0  0  0
    5.4308   -7.7783   27.7678 He  0  0  0  0  0  0  0  0  0  0  0  0
    0.7417   -8.9770   29.3172 He  0  0  0  0  0  0  0  0  0  0  0  0
    3.3115  -12.1083   15.6728 He  0  0  0  0  0  0  0  0  0  0  0  0
    0.5772   -6.0779   28.4383 He  0  0  0  0  0  0  0  0  0  0  0  0
    7.3647   -5.7735   27.8518 He  0  0  0  0  0  0  0  0  0  0  0  0
  1  3  1  0
  1  6  3  0
  1  8  4  0
  1  9  2  0
  1 11  3  0
  1 12  4  0
  2  4  1  0
  2  5  1  0
  2  7  4  0
  2  8  4  0
  2 10  3  0
  3  5  2  0
  3  7  4  0
  3 12  1  0
  4  6  1  0
  4  7  4  0
  4 14  2  0
  5 11  4  0
  6  9  1  0
  6 10  3  0
  6 11  1  0
  6 12  2  0
  6 14  4  0
  7 10  3  0
  8 11  1  0
  8 12  4  0
  8 14  3  0
  9 11  1  0
  9 13  3  0
 10 11  3  0
 10 12  2  0
 10 14  2  0
 11 12  2  0
 12 14  3  0
 13 14  2  0
M  END
$$$$

 Created by Python create_sdf_string function

 28 37  0  0  0  0  0  0  0  0999 V2000
    1.1264  -10.8822   28.5137 C   0  0  0  0  0  0  0  0  0  0  0  0
   -0.3365   -5.2152   26.3205 P   0  0  0  0  0  0  0  0  0  0  0  0
    4.4036  -11.4525   16.7421 C   0  0  0  0  0  0  0  0  0  0  0  0
    0.2857   -6.6499   27.4582 O   0  0  0  0  0  0  0  0  0  0  0  0
    0.1947   -4.9803   27.0226 N   0  0  0  0  0  0  0  0  0  0  0  0
    2.4729  -10.8758   15.6587 P   0  0  0  0  0  0  0  0  0  0  0  0
    6.8573   -7.3346   27.2292 F   0  0  0  0  0  0  0  0  0  0  0  0
    1.9052  -11.6041   16.2786 B   0  0  0  0  0  0  0  0  0  0  0  0
    5.3194   -7.0212   27.9591 F   0  0  0  0  0  0  0  0  0  0  0  0
    1.8028   -9.1476   27.8623 F   0  0  0  0  0  0  0  0  0  0  0  0
   -0.4971   -3.9356   25.4381 C   0  0  0  0  0  0  0  0  0  0  0  0
    7.8366   -6.3756   28.5206 S   0  0  0  0  0  0  0  0  0  0  0  0
    1.9869  -12.0545   16.8834 N   0  0  0  0  0  0  0  0  0  0  0  0
    1.5471   -7.4926   26.0279 N   0  0  0  0  0  0  0  0  0  0  0  0
    4.0920   -4.6408   27.9185 N   0  0  0  0  0  0  0  0  0  0  0  0
   -0.4753  -10.9169   16.0359 He  0  0  0  0  0  0  0  0  0  0  0  0
   -0.0965   -3.9504   26.5883 He  0  0  0  0  0  0  0  0  0  0  0  0
    2.2175  -10.5004   28.6052 He  0  0  0  0  0  0  0  0  0  0  0  0
    2.6873   -9.1823   28.7608 He  0  0  0  0  0  0  0  0  0  0  0  0
    3.2015  -12.3961   15.4049 He  0  0  0  0  0  0  0  0  0  0  0  0
    5.0052   -6.9071   26.1285 He  0  0  0  0  0  0  0  0  0  0  0  0
    3.3338   -5.8329   26.9963 He  0  0  0  0  0  0  0  0  0  0  0  0
    1.4556   -9.1795   15.5869 He  0  0  0  0  0  0  0  0  0  0  0  0
    3.2940  -11.3428   15.9722 He  0  0  0  0  0  0  0  0  0  0  0  0
    1.8175   -5.4664   27.7794 He  0  0  0  0  0  0  0  0  0  0  0  0
    3.2841  -13.0818   15.0248 He  0  0  0  0  0  0  0  0  0  0  0  0
    5.8116   -4.4962   26.6975 He  0  0  0  0  0  0  0  0  0  0  0  0
    6.7652   -6.6249   27.2113 He  0  0  0  0  0  0  0  0  0  0  0  0
  1  2  2  0
  1  3  1  0
  1  4  2  0
  1  5  4  0
  1  7  2  0
  1 10  2  0
  1 11  2  0
  1 14  3  0
  2  3  1  0
  2  4  4  0
  2  6  1  0
  2  7  2  0
  2  8  4  0
  2 10  1  0
  2 11  3  0
  3  8  3  0
  3  9  4  0
  3 10  3  0
  3 15  3  0
  4  8  2  0
  4  9  3  0
  4 12  3  0
  4 13  4  0
  4 14  2  0
  4 15  2  0
  5 15  1  0
  6  8  3  0
  6 11  4  0
  7 12  1  0
  8  9  1  0
  8 13  4  0
  8 14  4  0
  9 11  4  0
 10 12  1  0
 11 15  2  0
 12 15  1  0
 13 15  2  0
M  END
$$$$

 Created by Python create_sdf_string function

 28 22  0  0  0  0  0  0  0  0999 V2000
    0.5570  -10.6947   29.3752 O   0  0  0  0  0  0  0  0  0  0  0  0
   -0.4384   -5.2352   26.2493 C   0  0  0  0  0  0  0  0  0  0  0  0
    3.1862  -11.4120   15.1476 P   0  0  0  0  0  0  0  0  0  0  0  0
    0.6733   -6.0028   26.4819 C   0  0  0  0  0  0  0  0  0  0  0  0
    2.6726   -9.4623   16.5442 N   0  0  0  0  0  0  0  0  0  0  0  0
    4.1119   -8.2695   28.6136 F   0  0  0  0  0  0  0  0  0  0  0  0
    2.4035  -10.1494   28.8213 C   0  0  0  0  0  0  0  0  0  0  0  0
   -0.2634   -3.9061   26.4694 C   0  0  0  0  0  0  0  0  0  0  0  0
    8.6597   -5.7593   27.2723 C   0  0  0  0  0  0  0  0  0  0  0  0
    2.2565   -7.7691   27.2270 C   0  0  0  0  0  0  0  0  0  0  0  0
    3.4993   -4.7499   28.4453 P   0  0  0  0  0  0  0  0  0  0  0  0
   -0.3500  -11.2525   16.3189 He  0  0  0  0  0  0  0  0  0  0  0  0
    0.8882   -3.2094   26.3840 He  0  0  0  0  0  0  0  0  0  0  0  0
    2.0748   -9.1602   28.1814 He  0  0  0  0  0  0  0  0  0  0  0  0
    0.3398   -4.5632   26.6941 He  0  0  0  0  0  0  0  0  0  0  0  0
    7.2436   -7.4268   27.5998 He  0  0  0  0  0  0  0  0  0  0  0  0
    2.3111   -8.2048   28.9514 He  0  0  0  0  0  0  0  0  0  0  0  0
    2.4968  -11.3467   15.7318 He  0  0  0  0  0  0  0  0  0  0  0  0
    1.5750  -10.3729   17.1082 He  0  0  0  0  0  0  0  0  0  0  0  0
    5.5879   -6.8489   27.1942 He  0  0  0  0  0  0  0  0  0  0  0  0
    2.3743   -6.2944   27.6770 He  0  0  0  0  0  0  0  0  0  0  0  0
    0.8533   -9.1797   14.9515 He  0  0  0  0  0  0  0  0  0  0  0  0
    3.5766  -10.6510   17.0536 He  0  0  0  0  0  0  0  0  0  0  0  0
    2.2370   -5.3082   28.1587 He  0  0  0  0  0  0  0  0  0  0  0  0
    3.5501  -12.7279   15.2595 He  0  0  0  0  0  0  0  0  0  0  0  0
    1.1014  -11.7569   17.2221 He  0  0  0  0  0  0  0  0  0  0  0  0
    6.9096   -4.7453   27.8441 He  0  0  0  0  0  0  0  0  0  0  0  0
    7.0962   -6.8273   27.6661 He  0  0  0  0  0  0  0  0  0  0  0  0
  1  3  2  0
  1  5  1  0
  1  9  4  0
  1 11  2  0
  2  3  4  0
  2  8  3  0
  2  9  2  0
  2 10  1  0
  3 10  4  0
  4 10  2  0
  5  7  4  0
  5  8  4  0
  5  9  4  0
  5 10  4  0
  5 11  2  0
  6  9  2  0
  6 10  1  0
  6 11  2  0
  7 10  4  0
  7 11  2  0
  8  9  1  0
  8 11  2  0
M  END
$$$$

 Created by Python create_sdf_string function

 28 35  0  0  0  0  0  0  0  0999 V2000
    3.1223  -10.0858   28.6853 C   0  0  0  0  0  0  0  0  0  0  0  0
    0.8778  -11.4726   17.1366 Cl  0  0  0  0  0  0  0  0  0  0  0  0
    2.6450   -3.2560   25.7121 C   0  0  0  0  0  0  0  0  0  0  0  0
    2.4706  -12.0404   14.5129 P   0  0  0  0  0  0  0  0  0  0  0  0
    0.9115   -6.9974   26.3505 C   0  0  0  0  0  0  0  0  0  0  0  0
    0.4362   -5.1298   27.4271 S   0  0  0  0  0  0  0  0  0  0  0  0
    1.8142   -8.5685   14.8229 C   0  0  0  0  0  0  0  0  0  0  0  0
    1.9720   -8.0945   27.8827 C   0  0  0  0  0  0  0  0  0  0  0  0
   -0.3172   -5.3452   26.2418 B   0  0  0  0  0  0  0  0  0  0  0  0
    2.3375   -4.9162   28.8752 C   0  0  0  0  0  0  0  0  0  0  0  0
    1.3099   -8.7386   15.6165 C   0  0  0  0  0  0  0  0  0  0  0  0
    7.6259   -7.9890   28.6049 P   0  0  0  0  0  0  0  0  0  0  0  0
    8.2147   -4.7090   27.2473 C   0  0  0  0  0  0  0  0  0  0  0  0
    5.6423   -7.3375   26.7971 C   0  0  0  0  0  0  0  0  0  0  0  0
    0.2314   -4.9320   27.0673 He  0  0  0  0  0  0  0  0  0  0  0  0
    3.6582   -8.7253   27.9935 He  0  0  0  0  0  0  0  0  0  0  0  0
    7.8696   -6.7781   28.0974 He  0  0  0  0  0  0  0  0  0  0  0  0
    0.9902   -9.8469   16.4872 He  0  0  0  0  0  0  0  0  0  0  0  0
    2.0573  -10.2544   17.4770 He  0  0  0  0  0  0  0  0  0  0  0  0
    6.7407   -6.4424   27.9302 He  0  0  0  0  0  0  0  0  0  0  0  0
    3.9434   -6.9295   29.1270 He  0  0  0  0  0  0  0  0  0  0  0  0
    2.0972   -9.4605   28.4397 He  0  0  0  0  0  0  0  0  0  0  0  0
    3.2063  -11.4076   16.1953 He  0  0  0  0  0  0  0  0  0  0  0  0
    3.2209   -4.7767   27.2802 He  0  0  0  0  0  0  0  0  0  0  0  0
    4.0679  -12.1227   16.5005 He  0  0  0  0  0  0  0  0  0  0  0  0
    2.2951  -11.8677   17.1389 He  0  0  0  0  0  0  0  0  0  0  0  0
    1.8044   -6.0141   26.5737 He  0  0  0  0  0  0  0  0  0  0  0  0
    2.0353   -5.3380   27.7358 He  0  0  0  0  0  0  0  0  0  0  0  0
  1  3  4  0
  1  5  2  0
  1  8  2  0
  1 10  3  0
  1 11  3  0
  1 12  2  0
  1 14  2  0
  2  8  4  0
  2 10  2  0
  2 11  3  0
  2 12  1  0
  3  4  2  0
  3  7  1  0
  3  8  2  0
  3  9  3  0
  3 10  3  0
  3 11  1  0
  3 12  2  0
  4  6  3  0
  4 10  2  0
  4 11  1  0
  5  6  4  0
  5  7  2  0
  5 10  1  0
  5 11  1  0
  5 12  1  0
  6  9  4  0
  6 11  2  0
  7 10  1  0
  8 11  4  0
  8 12  2  0
  9 10  4  0
  9 11  4  0
 10 13  4  0
 12 13  4  0
M  END
$$$$

 Created by Python create_sdf_string function

 28 42  0  0  0  0  0  0  0  0999 V2000
    3.3039   -8.7453   28.9208 C   0  0  0  0  0  0  0  0  0  0  0  0
    1.7738  -12.1107   17.0874 C   0  0  0  0  0  0  0  0  0  0  0  0
    1.9101   -3.9828   26.5549 O   0  0  0  0  0  0  0  0  0  0  0  0
    4.8836   -8.2780   27.7828 N   0  0  0  0  0  0  0  0  0  0  0  0
    2.1592   -8.6576   15.5779 F   0  0  0  0  0  0  0  0  0  0  0  0
    7.3348   -9.0341   28.2312 C   0  0  0  0  0  0  0  0  0  0  0  0
    2.0746   -9.2230   16.5500 C   0  0  0  0  0  0  0  0  0  0  0  0
    3.2347   -8.7254   29.1425 C   0  0  0  0  0  0  0  0  0  0  0  0
    0.0926   -5.1821   25.9093 C   0  0  0  0  0  0  0  0  0  0  0  0
    4.3969   -4.8100   26.7012 C   0  0  0  0  0  0  0  0  0  0  0  0
    2.2410   -9.6962   16.2553 C   0  0  0  0  0  0  0  0  0  0  0  0
    2.2093  -10.4912   15.4722 Cl  0  0  0  0  0  0  0  0  0  0  0  0
    5.8113   -7.6588   27.0743 C   0  0  0  0  0  0  0  0  0  0  0  0
    2.8139  -11.9560   17.1192 B   0  0  0  0  0  0  0  0  0  0  0  0
    9.6315   -6.9615   27.1326 N   0  0  0  0  0  0  0  0  0  0  0  0
    1.3151   -6.2328   28.4484 Cl  0  0  0  0  0  0  0  0  0  0  0  0
    4.1859   -5.5017   27.3074 C   0  0  0  0  0  0  0  0  0  0  0  0
    0.4428   -5.1248   27.5336 He  0  0  0  0  0  0  0  0  0  0  0  0
    4.1272  -12.0283   16.3495 He  0  0  0  0  0  0  0  0  0  0  0  0
    1.0340   -6.3450   26.2397 He  0  0  0  0  0  0  0  0  0  0  0  0
   -0.2346   -5.8097   25.7584 He  0  0  0  0  0  0  0  0  0  0  0  0
    2.2509   -8.5350   27.7748 He  0  0  0  0  0  0  0  0  0  0  0  0
    1.8433   -9.6969   17.2359 He  0  0  0  0  0  0  0  0  0  0  0  0
    3.9227   -6.3917   27.0926 He  0  0  0  0  0  0  0  0  0  0  0  0
    5.3127   -6.2274   29.0302 He  0  0  0  0  0  0  0  0  0  0  0  0
    3.8102   -5.7680   25.2996 He  0  0  0  0  0  0  0  0  0  0  0  0
    1.6806  -12.2296   15.2848 He  0  0  0  0  0  0  0  0  0  0  0  0
    0.5054   -6.4572   25.3848 He  0  0  0  0  0  0  0  0  0  0  0  0
  1  3  4  0
  1  8  3  0
  1 10  1  0
  1 11  2  0
  1 17  1  0
  2  5  1  0
  2 14  3  0
  2 15  2  0
  2 16  1  0
  3  5  1  0
  3  7  3  0
  3 14  2  0
  3 16  2  0
  3 17  4  0
  4  5  3  0
  4  8  1  0
  4 10  2  0
  5  7  1  0
  5 10  4  0
  5 12  2  0
  5 14  3  0
  6  7  2  0
  6  9  4  0
  6 10  2  0
  6 11  1  0
  6 14  2  0
  6 17  4  0
  7  9  1  0
  7 14  2  0
  7 15  3  0
  8  9  4  0
  8 10  4  0
  8 16  3  0
  9 13  4  0
  9 17  3  0
 10 14  3  0
 10 16  4  0
 11 13  4  0
 11 15  1  0
 12 15  4  0
 12 16  3  0
 15 16  3  0
M  END
$$$$

 Created by Python create_sdf_string function

 28 46  0  0  0  0  0  0  0  0999 V2000
    2.9605   -9.4728   29.7807 C   0  0  0  0  0  0  0  0  0  0  0  0
    1.6860   -4.9762   26.4054 N   0  0  0  0  0  0  0  0  0  0  0  0
    2.4620  -11.4306   16.8629 C   0  0  0  0  0  0  0  0  0  0  0  0
    1.3255   -3.6880   27.5927 S   0  0  0  0  0  0  0  0  0  0  0  0
    4.7912  -11.5923   16.3630 C   0  0  0  0  0  0  0  0  0  0  0  0
   -1.6858   -5.1676   27.0801 F   0  0  0  0  0  0  0  0  0  0  0  0
    2.2443   -8.4274   17.3206 C   0  0  0  0  0  0  0  0  0  0  0  0
    2.4176   -9.5753   27.5567 P   0  0  0  0  0  0  0  0  0  0  0  0
    0.0969  -10.3198   16.3923 I   0  0  0  0  0  0  0  0  0  0  0  0
    6.0229   -5.7194   27.7307 Br  0  0  0  0  0  0  0  0  0  0  0  0
    3.8224   -5.4890   26.9458 C   0  0  0  0  0  0  0  0  0  0  0  0
    1.3101  -10.1752   16.4503 N   0  0  0  0  0  0  0  0  0  0  0  0
    1.6163  -11.2271   13.9293 C   0  0  0  0  0  0  0  0  0  0  0  0
    2.9965   -7.0306   26.4900 N   0  0  0  0  0  0  0  0  0  0  0  0
    3.4001  -12.6722   16.4349 C   0  0  0  0  0  0  0  0  0  0  0  0
    7.5437   -7.4128   27.9877 F   0  0  0  0  0  0  0  0  0  0  0  0
    1.1037   -7.4095   25.9955 Cl  0  0  0  0  0  0  0  0  0  0  0  0
    4.8069   -6.1293   28.8780 Br  0  0  0  0  0  0  0  0  0  0  0  0
    5.7672   -7.8561   30.5113 He  0  0  0  0  0  0  0  0  0  0  0  0
    0.4010   -8.2994   26.8558 He  0  0  0  0  0  0  0  0  0  0  0  0
    8.7107   -7.2191   27.5999 He  0  0  0  0  0  0  0  0  0  0  0  0
    1.7607   -9.7956   14.6212 He  0  0  0  0  0  0  0  0  0  0  0  0
    3.7796   -7.9395   27.5602 He  0  0  0  0  0  0  0  0  0  0  0  0
    3.7615   -7.2004   29.5963 He  0  0  0  0  0  0  0  0  0  0  0  0
   -0.4818   -4.5391   27.2926 He  0  0  0  0  0  0  0  0  0  0  0  0
    7.1570   -7.4491   29.2858 He  0  0  0  0  0  0  0  0  0  0  0  0
    2.7387  -11.1006   17.3201 He  0  0  0  0  0  0  0  0  0  0  0  0
    0.7210   -5.8812   28.1382 He  0  0  0  0  0  0  0  0  0  0  0  0
  1  5  2  0
  1  7  2  0
  1  8  1  0
  1 10  4  0
  1 11  1  0
  1 18  1  0
  2  3  4  0
  2  4  1  0
  2  5  1  0
  2  7  3  0
  2  8  2  0
  3  8  4  0
  3 13  3  0
  3 15  1  0
  3 16  1  0
  4  5  3  0
  4  8  2  0
  4 11  3  0
  4 13  3  0
  4 15  1  0
  4 18  1  0
  5 10  4  0
  5 16  3  0
  6  7  2  0
  6 10  4  0
  6 11  3  0
  6 17  3  0
  7  9  3  0
  7 14  4  0
  7 15  4  0
  7 16  3  0
  8 11  1  0
  8 12  3  0
  8 14  2  0
 10 11  2  0
 10 14  1  0
 11 14  2  0
 12 14  2  0
 13 15  2  0
 13 16  1  0
 14 16  1  0
 14 17  1  0
 15 18  1  0
 16 17  3  0
 16 18  3  0
 17 18  4  0
M  END
$$$$

 Created by Python create_sdf_string function

 28 39  0  0  0  0  0  0  0  0999 V2000
    4.6159   -9.0693   29.4621 C   0  0  0  0  0  0  0  0  0  0  0  0
    3.3752  -10.3684   15.7793 C   0  0  0  0  0  0  0  0  0  0  0  0
   -0.4454   -3.9607   27.5771 Cl  0  0  0  0  0  0  0  0  0  0  0  0
    2.8636  -12.3936   16.8931 Br  0  0  0  0  0  0  0  0  0  0  0  0
    7.6819   -6.4056   27.2505 F   0  0  0  0  0  0  0  0  0  0  0  0
    2.8481  -10.0211   27.5622 C   0  0  0  0  0  0  0  0  0  0  0  0
    1.5550   -9.6733   13.9177 C   0  0  0  0  0  0  0  0  0  0  0  0
    4.0717   -7.8933   27.7808 F   0  0  0  0  0  0  0  0  0  0  0  0
    6.3530   -6.7421   29.6149 C   0  0  0  0  0  0  0  0  0  0  0  0
    2.9847   -8.5377   29.0373 S   0  0  0  0  0  0  0  0  0  0  0  0
   -0.4998   -4.0032   28.4617 C   0  0  0  0  0  0  0  0  0  0  0  0
    0.9900  -10.4980   16.0147 C   0  0  0  0  0  0  0  0  0  0  0  0
    3.9039   -5.2387   27.9603 N   0  0  0  0  0  0  0  0  0  0  0  0
    0.9190  -12.9440   18.1129 Cl  0  0  0  0  0  0  0  0  0  0  0  0
    7.3041   -7.4810   28.6582 N   0  0  0  0  0  0  0  0  0  0  0  0
    1.2721   -7.5037   26.9710 Se  0  0  0  0  0  0  0  0  0  0  0  0
    3.9258   -7.1358   26.8246 C   0  0  0  0  0  0  0  0  0  0  0  0
    1.3391   -5.5180   26.7041 He  0  0  0  0  0  0  0  0  0  0  0  0
    6.2234   -6.7461   28.9608 He  0  0  0  0  0  0  0  0  0  0  0  0
    1.6109   -9.4959   27.1296 He  0  0  0  0  0  0  0  0  0  0  0  0
    0.0337   -5.0343   25.6579 He  0  0  0  0  0  0  0  0  0  0  0  0
    3.5079   -9.7909   16.7690 He  0  0  0  0  0  0  0  0  0  0  0  0
    0.3845   -9.0825   15.8928 He  0  0  0  0  0  0  0  0  0  0  0  0
    3.9220   -7.3232   26.0509 He  0  0  0  0  0  0  0  0  0  0  0  0
    2.0592   -9.3426   17.3807 He  0  0  0  0  0  0  0  0  0  0  0  0
    6.2723   -7.1354   29.6775 He  0  0  0  0  0  0  0  0  0  0  0  0
    2.5974  -11.2730   17.0797 He  0  0  0  0  0  0  0  0  0  0  0  0
    0.5635   -5.7622   27.0887 He  0  0  0  0  0  0  0  0  0  0  0  0
  1  4  1  0
  1  5  1  0
  1  7  3  0
  2  7  4  0
  2  9  1  0
  2 10  2  0
  2 14  4  0
  2 17  3  0
  3  5  3  0
  3  9  3  0
  3 16  1  0
  4  5  2  0
  4  7  3  0
  4  8  3  0
  4 10  1  0
  4 12  2  0
  4 14  4  0
  5  8  2  0
  5 13  1  0
  6 12  1  0
  6 17  1  0
  7  9  1  0
  7 11  3  0
  7 16  1  0
  8  9  1  0
  8 12  4  0
  8 14  4  0
  9 11  3  0
  9 15  4  0
 11 15  4  0
 12 13  4  0
 12 15  2  0
 12 16  1  0
 12 17  3  0
 13 16  1  0
 13 17  2  0
 14 15  1  0
 15 17  1  0
 16 17  3  0
M  END
$$$$

 Created by Python create_sdf_string function

 28 71  0  0  0  0  0  0  0  0999 V2000
    0.6189   -3.9205   28.2041 P   0  0  0  0  0  0  0  0  0  0  0  0
    3.4439  -10.2224   13.8726 C   0  0  0  0  0  0  0  0  0  0  0  0
   -0.1626   -5.2735   26.9035 F   0  0  0  0  0  0  0  0  0  0  0  0
    2.9302  -12.3207   16.7282 N   0  0  0  0  0  0  0  0  0  0  0  0
    2.0077   -8.7416   26.5541 C   0  0  0  0  0  0  0  0  0  0  0  0
   -0.3601   -4.5599   26.1962 F   0  0  0  0  0  0  0  0  0  0  0  0
    4.2358   -9.2730   27.3181 I   0  0  0  0  0  0  0  0  0  0  0  0
    1.3018   -7.8628   15.1431 S   0  0  0  0  0  0  0  0  0  0  0  0
    3.0568  -10.4960   28.8731 S   0  0  0  0  0  0  0  0  0  0  0  0
    0.7048   -4.4226   27.2198 O   0  0  0  0  0  0  0  0  0  0  0  0
    4.4983   -6.4496   26.4973 S   0  0  0  0  0  0  0  0  0  0  0  0
    0.3005  -11.4072   16.3586 N   0  0  0  0  0  0  0  0  0  0  0  0
    1.4806  -10.0238   15.9130 O   0  0  0  0  0  0  0  0  0  0  0  0
    6.2096   -6.5882   29.9464 C   0  0  0  0  0  0  0  0  0  0  0  0
    2.3854  -10.6113   16.6383 C   0  0  0  0  0  0  0  0  0  0  0  0
    1.2734  -12.0534   18.5912 S   0  0  0  0  0  0  0  0  0  0  0  0
    5.9376   -7.2212   28.2387 Cl  0  0  0  0  0  0  0  0  0  0  0  0
    2.9262   -6.1321   26.0670 O   0  0  0  0  0  0  0  0  0  0  0  0
    2.2141   -7.0925   28.9473 N   0  0  0  0  0  0  0  0  0  0  0  0
    4.5439   -8.8231   28.7275 He  0  0  0  0  0  0  0  0  0  0  0  0
    5.9439   -7.3552   27.6322 He  0  0  0  0  0  0  0  0  0  0  0  0
    4.7352  -10.8680   13.9568 He  0  0  0  0  0  0  0  0  0  0  0  0
    6.7162   -6.3963   28.2631 He  0  0  0  0  0  0  0  0  0  0  0  0
    0.9746   -8.5709   16.1623 He  0  0  0  0  0  0  0  0  0  0  0  0
    4.5461   -6.8514   28.3972 He  0  0  0  0  0  0  0  0  0  0  0  0
    6.1068   -8.7007   29.3306 He  0  0  0  0  0  0  0  0  0  0  0  0
    3.1833   -4.7743   27.4699 He  0  0  0  0  0  0  0  0  0  0  0  0
    1.8498   -5.1765   27.3357 He  0  0  0  0  0  0  0  0  0  0  0  0
  1  4  1  0
  1  5  1  0
  1 15  3  0
  1 16  4  0
  1 17  4  0
  1 19  4  0
  2  4  4  0
  2  5  3  0
  2  6  4  0
  2  8  2  0
  2 15  4  0
  2 17  1  0
  3  6  1  0
  3  7  3  0
  3 12  3  0
  3 16  3  0
  3 17  3  0
  4  5  1  0
  4  7  3  0
  4 13  1  0
  4 15  4  0
  4 16  3  0
  5  7  3  0
  5 11  2  0
  5 12  1  0
  5 18  1  0
  5 19  3  0
  6  7  4  0
  6  8  1  0
  6 13  3  0
  6 16  3  0
  7  9  3  0
  7 11  1  0
  7 16  1  0
  7 17  2  0
  7 18  4  0
  7 19  1  0
  8 10  4  0
  8 13  3  0
  8 17  4  0
  8 18  2  0
  8 19  4  0
  9 11  3  0
  9 12  1  0
  9 13  1  0
  9 14  1  0
  9 15  3  0
  9 16  3  0
 10 12  1  0
 10 14  4  0
 10 15  1  0
 10 16  2  0
 10 17  3  0
 10 19  1  0
 11 13  4  0
 11 14  2  0
 11 15  1  0
 11 16  3  0
 12 13  4  0
 12 19  3  0
 13 15  4  0
 13 16  4  0
 13 17  4  0
 13 18  3  0
 14 16  4  0
 14 19  3  0
 15 16  3  0
 15 17  1  0
 15 18  3  0
 15 19  2  0
 17 19  3  0
M  END
$$$$

 Created by Python create_sdf_string function

 28 22  0  0  0  0  0  0  0  0999 V2000
   -0.1770   -5.0202   26.7023 Br  0  0  0  0  0  0  0  0  0  0  0  0
    5.0211   -5.2980   29.0144 C   0  0  0  0  0  0  0  0  0  0  0  0
   -0.0880   -3.2632   28.5797 N   0  0  0  0  0  0  0  0  0  0  0  0
    3.4985  -11.3482   14.9517 O   0  0  0  0  0  0  0  0  0  0  0  0
    2.8555   -9.0365   26.5880 C   0  0  0  0  0  0  0  0  0  0  0  0
    6.0123   -8.6579   29.6775 Cl  0  0  0  0  0  0  0  0  0  0  0  0
    4.3992  -10.7865   28.0217 C   0  0  0  0  0  0  0  0  0  0  0  0
    2.4133  -10.4981   19.6660 C   0  0  0  0  0  0  0  0  0  0  0  0
    0.4851  -11.2692   15.3342 Se  0  0  0  0  0  0  0  0  0  0  0  0
    6.3035   -5.8647   28.7431 C   0  0  0  0  0  0  0  0  0  0  0  0
    3.0096   -7.0189   27.6630 O   0  0  0  0  0  0  0  0  0  0  0  0
    1.6816   -9.7977   15.5402 C   0  0  0  0  0  0  0  0  0  0  0  0
    1.1626   -5.0918   27.3962 C   0  0  0  0  0  0  0  0  0  0  0  0
    6.4670   -9.0671   28.0609 He  0  0  0  0  0  0  0  0  0  0  0  0
    0.8574   -3.5726   28.9684 He  0  0  0  0  0  0  0  0  0  0  0  0
    2.9704  -10.7090   13.3993 He  0  0  0  0  0  0  0  0  0  0  0  0
    2.6244  -12.2969   14.5204 He  0  0  0  0  0  0  0  0  0  0  0  0
    2.7152   -7.7380   27.4921 He  0  0  0  0  0  0  0  0  0  0  0  0
    6.0790   -6.6177   27.9406 He  0  0  0  0  0  0  0  0  0  0  0  0
    2.2862   -9.0509   14.4376 He  0  0  0  0  0  0  0  0  0  0  0  0
    0.8178   -7.6067   17.6121 He  0  0  0  0  0  0  0  0  0  0  0  0
    4.4929   -7.3265   28.8433 He  0  0  0  0  0  0  0  0  0  0  0  0
    1.3677   -3.5773   28.2894 He  0  0  0  0  0  0  0  0  0  0  0  0
    2.7083   -5.4713   26.2350 He  0  0  0  0  0  0  0  0  0  0  0  0
    2.2090  -10.3442   17.4691 He  0  0  0  0  0  0  0  0  0  0  0  0
    6.9521   -6.5625   28.3570 He  0  0  0  0  0  0  0  0  0  0  0  0
    2.2647   -6.2252   25.9526 He  0  0  0  0  0  0  0  0  0  0  0  0
    0.7442   -6.4931   27.8411 He  0  0  0  0  0  0  0  0  0  0  0  0
  1  4  3  0
  1  6  1  0
  1 11  4  0
  2  3  2  0
  2  9  3  0
  2 10  4  0
  3  4  3  0
  3 11  1  0
  3 12  4  0
  5 10  2  0
  6  7  3  0
  6  9  1  0
  6 10  2  0
  6 11  4  0
  7  9  2  0
  8  9  3  0
  8 10  4  0
  8 12  4  0
  8 13  1  0
  9 10  1  0
  9 13  3  0
 10 12  3  0
M  END
$$$$

 Created by Python create_sdf_string function

 28 55  0  0  0  0  0  0  0  0999 V2000
    5.9964   -9.4864   28.9451 C   0  0  0  0  0  0  0  0  0  0  0  0
    1.2222   -2.9080   28.5930 C   0  0  0  0  0  0  0  0  0  0  0  0
    2.4638  -10.4953   14.1479 C   0  0  0  0  0  0  0  0  0  0  0  0
    0.7245   -4.9396   27.8425 C   0  0  0  0  0  0  0  0  0  0  0  0
    5.4596   -5.1683   27.2756 C   0  0  0  0  0  0  0  0  0  0  0  0
    1.9017  -11.0136   14.2750 C   0  0  0  0  0  0  0  0  0  0  0  0
    3.3474   -7.1907   27.7839 C   0  0  0  0  0  0  0  0  0  0  0  0
    0.3760   -2.4618   28.3796 C   0  0  0  0  0  0  0  0  0  0  0  0
    3.1989  -11.9607   13.0370 Se  0  0  0  0  0  0  0  0  0  0  0  0
    4.5576   -6.2840   28.2453 C   0  0  0  0  0  0  0  0  0  0  0  0
    3.5656  -10.0848   25.4645 I   0  0  0  0  0  0  0  0  0  0  0  0
    0.3109  -10.4810   16.0668 C   0  0  0  0  0  0  0  0  0  0  0  0
    4.9849   -7.7307   27.2718 N   0  0  0  0  0  0  0  0  0  0  0  0
    5.0589  -10.5672   28.1002 P   0  0  0  0  0  0  0  0  0  0  0  0
    0.5546  -12.3329   15.2683 F   0  0  0  0  0  0  0  0  0  0  0  0
    7.1290   -6.1765   28.5567 O   0  0  0  0  0  0  0  0  0  0  0  0
    4.3333   -7.0387   27.9653 C   0  0  0  0  0  0  0  0  0  0  0  0
    1.8122  -10.8592   16.3796 O   0  0  0  0  0  0  0  0  0  0  0  0
    1.1111   -9.8471   17.9582 F   0  0  0  0  0  0  0  0  0  0  0  0
    1.5502   -4.3305   26.9952 O   0  0  0  0  0  0  0  0  0  0  0  0
    2.3028   -9.6627   15.3749 He  0  0  0  0  0  0  0  0  0  0  0  0
    6.8232   -9.0660   27.6610 He  0  0  0  0  0  0  0  0  0  0  0  0
    2.2744   -1.5639   26.4818 He  0  0  0  0  0  0  0  0  0  0  0  0
    2.4016   -6.5205   26.7758 He  0  0  0  0  0  0  0  0  0  0  0  0
    2.3476  -10.3637   17.6229 He  0  0  0  0  0  0  0  0  0  0  0  0
    7.6462   -6.3625   28.2805 He  0  0  0  0  0  0  0  0  0  0  0  0
    2.1073   -6.4999   25.2485 He  0  0  0  0  0  0  0  0  0  0  0  0
    1.1460   -6.6893   28.2557 He  0  0  0  0  0  0  0  0  0  0  0  0
  1  4  2  0
  1  7  2  0
  1  8  1  0
  1 13  3  0
  1 15  1  0
  2  3  3  0
  2 10  2  0
  2 13  3  0
  2 17  3  0
  3  4  1  0
  3  7  4  0
  3  9  1  0
  3 11  1  0
  3 19  4  0
  4  5  1  0
  4  6  4  0
  4 10  1  0
  4 15  4  0
  5  9  4  0
  5 11  2  0
  5 12  3  0
  5 13  4  0
  6  7  1  0
  6 12  3  0
  6 19  1  0
  6 20  4  0
  7 10  2  0
  7 13  2  0
  7 17  3  0
  7 20  4  0
  8 12  2  0
  8 13  2  0
  8 15  3  0
  8 18  1  0
  9 13  2  0
  9 16  2  0
  9 20  1  0
 10 14  1  0
 10 16  1  0
 10 20  2  0
 11 12  1  0
 11 17  4  0
 12 13  3  0
 12 14  1  0
 12 18  3  0
 12 19  2  0
 13 15  4  0
 13 17  4  0
 13 18  4  0
 14 18  2  0
 15 18  1  0
 15 20  2  0
 16 17  1  0
 17 18  1  0
 19 20  3  0
M  END
$$$$

 Created by Python create_sdf_string function

 28 78  0  0  0  0  0  0  0  0999 V2000
    0.9798   -2.8097   29.1317 C   0  0  0  0  0  0  0  0  0  0  0  0
    2.9399  -10.2014   14.5540 O   0  0  0  0  0  0  0  0  0  0  0  0
    1.0720   -4.8673   27.9242 C   0  0  0  0  0  0  0  0  0  0  0  0
    5.3359   -5.0437   27.5509 N   0  0  0  0  0  0  0  0  0  0  0  0
    2.5690  -11.7347   14.6644 N   0  0  0  0  0  0  0  0  0  0  0  0
    3.8196   -7.2523   28.2863 O   0  0  0  0  0  0  0  0  0  0  0  0
    1.1403   -3.8929   28.2341 N   0  0  0  0  0  0  0  0  0  0  0  0
    2.1147  -10.9072   12.4176 C   0  0  0  0  0  0  0  0  0  0  0  0
    2.7824   -7.8739   25.7225 N   0  0  0  0  0  0  0  0  0  0  0  0
    3.1871  -10.4603   14.4171 O   0  0  0  0  0  0  0  0  0  0  0  0
    5.6137   -7.5021   27.4693 C   0  0  0  0  0  0  0  0  0  0  0  0
    6.1576   -9.8895   27.2933 N   0  0  0  0  0  0  0  0  0  0  0  0
    1.5616   -2.4556   26.4144 P   0  0  0  0  0  0  0  0  0  0  0  0
    2.2314   -5.9007   26.8262 C   0  0  0  0  0  0  0  0  0  0  0  0
    1.7334   -9.8836   16.8810 C   0  0  0  0  0  0  0  0  0  0  0  0
    6.3556   -6.8578   28.5260 C   0  0  0  0  0  0  0  0  0  0  0  0
    4.4964   -8.6226   27.2905 Br  0  0  0  0  0  0  0  0  0  0  0  0
    1.6576  -11.5241   15.5013 C   0  0  0  0  0  0  0  0  0  0  0  0
    1.4710   -9.9845   17.7235 F   0  0  0  0  0  0  0  0  0  0  0  0
    6.3440   -5.7986   29.1840 F   0  0  0  0  0  0  0  0  0  0  0  0
    1.5193   -5.5632   25.1837 Se  0  0  0  0  0  0  0  0  0  0  0  0
    1.6013   -4.2516   27.9281 C   0  0  0  0  0  0  0  0  0  0  0  0
    2.2626   -7.3336   26.7441 C   0  0  0  0  0  0  0  0  0  0  0  0
    5.6339   -9.5990   27.3998 He  0  0  0  0  0  0  0  0  0  0  0  0
    5.0268   -6.2567   27.7132 He  0  0  0  0  0  0  0  0  0  0  0  0
   -0.5652  -11.3748   17.8659 He  0  0  0  0  0  0  0  0  0  0  0  0
    8.4010   -7.7038   28.0634 He  0  0  0  0  0  0  0  0  0  0  0  0
    1.5803  -12.7780   14.7199 He  0  0  0  0  0  0  0  0  0  0  0  0
  1  7  4  0
  1  9  1  0
  1 11  2  0
  1 16  2  0
  1 17  2  0
  1 18  2  0
  1 19  2  0
  1 23  2  0
  2  5  1  0
  2 10  4  0
  2 11  3  0
  2 13  1  0
  2 20  3  0
  2 23  2  0
  3  9  1  0
  3 12  2  0
  3 13  1  0
  3 14  3  0
  3 17  3  0
  3 23  4  0
  4  6  2  0
  4  7  3  0
  4 11  3  0
  4 14  4  0
  4 18  4  0
  4 20  2  0
  4 21  2  0
  4 22  4  0
  5  6  3  0
  5 12  4  0
  5 14  4  0
  5 18  2  0
  5 19  3  0
  5 23  2  0
  6  9  1  0
  6 12  4  0
  6 14  4  0
  6 17  3  0
  6 21  3  0
  7  9  1  0
  7 11  2  0
  7 13  4  0
  7 14  2  0
  7 19  2  0
  7 21  1  0
  8 13  1  0
  8 14  3  0
  8 17  2  0
  8 20  3  0
  8 22  4  0
  9 18  1  0
  9 20  1  0
  9 21  3  0
 10 14  1  0
 10 22  2  0
 10 23  3  0
 11 17  4  0
 11 19  4  0
 11 22  1  0
 12 13  2  0
 12 14  3  0
 12 23  1  0
 13 15  1  0
 13 21  4  0
 13 22  4  0
 14 16  1  0
 14 17  3  0
 14 20  2  0
 15 17  3  0
 15 19  1  0
 16 17  4  0
 16 23  1  0
 17 20  2  0
 17 23  4  0
 19 21  1  0
 20 21  2  0
 20 23  1  0
 21 23  2  0
M  END
$$$$

 Created by Python create_sdf_string function

 28 65  0  0  0  0  0  0  0  0999 V2000
    5.7277   -8.1524   28.4999 C   0  0  0  0  0  0  0  0  0  0  0  0
    1.0171   -3.8462   28.8079 N   0  0  0  0  0  0  0  0  0  0  0  0
    2.2957  -10.0830   14.4369 C   0  0  0  0  0  0  0  0  0  0  0  0
    3.4002   -5.4839   28.3915 C   0  0  0  0  0  0  0  0  0  0  0  0
    3.6569   -9.2461   27.8992 C   0  0  0  0  0  0  0  0  0  0  0  0
    2.7907   -1.9911   28.5148 C   0  0  0  0  0  0  0  0  0  0  0  0
    2.1608  -10.4704   13.4931 N   0  0  0  0  0  0  0  0  0  0  0  0
    4.3877   -9.1967   26.6491 N   0  0  0  0  0  0  0  0  0  0  0  0
    3.5453  -10.5620   15.8310 F   0  0  0  0  0  0  0  0  0  0  0  0
    6.3934   -7.8408   26.8164 F   0  0  0  0  0  0  0  0  0  0  0  0
    6.8895   -7.5231   28.6888 C   0  0  0  0  0  0  0  0  0  0  0  0
    2.2839   -7.5013   27.0559 C   0  0  0  0  0  0  0  0  0  0  0  0
    1.9651  -10.8306   17.6601 C   0  0  0  0  0  0  0  0  0  0  0  0
    2.6373  -12.8934   14.2748 P   0  0  0  0  0  0  0  0  0  0  0  0
    7.3689   -5.9075   28.8415 O   0  0  0  0  0  0  0  0  0  0  0  0
    1.9278  -11.2087   16.0005 C   0  0  0  0  0  0  0  0  0  0  0  0
    0.1063   -9.6457   19.2004 F   0  0  0  0  0  0  0  0  0  0  0  0
    6.4782   -5.7497   27.3740 C   0  0  0  0  0  0  0  0  0  0  0  0
    1.4455   -2.8814   27.5838 C   0  0  0  0  0  0  0  0  0  0  0  0
    1.6105   -7.1103   26.0407 C   0  0  0  0  0  0  0  0  0  0  0  0
    1.2424   -3.8514   27.4055 He  0  0  0  0  0  0  0  0  0  0  0  0
    2.7998  -11.0870   14.8328 He  0  0  0  0  0  0  0  0  0  0  0  0
    4.8434   -5.9391   28.2738 He  0  0  0  0  0  0  0  0  0  0  0  0
   -0.3460  -11.3318   16.3198 He  0  0  0  0  0  0  0  0  0  0  0  0
    6.2049   -8.4773   26.7244 He  0  0  0  0  0  0  0  0  0  0  0  0
    2.9046   -2.9535   26.8280 He  0  0  0  0  0  0  0  0  0  0  0  0
    4.2535   -8.3122   25.4660 He  0  0  0  0  0  0  0  0  0  0  0  0
    1.5684   -5.6314   26.4774 He  0  0  0  0  0  0  0  0  0  0  0  0
  1  2  3  0
  1  5  4  0
  1  6  3  0
  1  7  4  0
  1 12  4  0
  1 14  3  0
  1 15  1  0
  1 19  3  0
  1 20  2  0
  2  9  2  0
  2 10  2  0
  2 11  4  0
  2 13  1  0
  2 14  2  0
  2 16  4  0
  2 17  3  0
  3  8  1  0
  3  9  1  0
  3 11  4  0
  3 15  1  0
  4  5  3  0
  4  6  2  0
  4  7  1  0
  4 11  2  0
  4 12  3  0
  4 13  4  0
  5  6  2  0
  5  7  4  0
  5 10  3  0
  5 13  3  0
  5 15  3  0
  5 17  4  0
  6 12  4  0
  6 15  2  0
  6 16  1  0
  6 19  4  0
  7 18  2  0
  7 19  4  0
  8 10  2  0
  8 12  1  0
  8 16  3  0
  8 17  3  0
  8 20  1  0
  9 11  1  0
  9 13  1  0
 10 12  2  0
 10 15  4  0
 10 17  2  0
 10 18  3  0
 11 16  3  0
 11 18  3  0
 11 19  3  0
 11 20  4  0
 12 18  1  0
 12 20  4  0
 13 14  2  0
 13 16  2  0
 13 17  2  0
 13 18  2  0
 13 19  1  0
 14 16  4  0
 14 19  1  0
 15 16  3  0
 15 17  1  0
 15 20  4  0
M  END
$$$$

 Created by Python create_sdf_string function

 28 23  0  0  0  0  0  0  0  0999 V2000
    1.2225   -4.7534   28.3587 N   0  0  0  0  0  0  0  0  0  0  0  0
    1.6195  -10.8454   13.8129 N   0  0  0  0  0  0  0  0  0  0  0  0
    3.1391   -4.6015   27.2243 S   0  0  0  0  0  0  0  0  0  0  0  0
    1.9081  -11.1157   15.6602 N   0  0  0  0  0  0  0  0  0  0  0  0
    2.1652  -11.2914   14.2697 C   0  0  0  0  0  0  0  0  0  0  0  0
   -0.6072  -10.7310   15.2350 N   0  0  0  0  0  0  0  0  0  0  0  0
    6.1766   -6.2637   26.3538 N   0  0  0  0  0  0  0  0  0  0  0  0
    6.1140   -7.8944   27.5759 C   0  0  0  0  0  0  0  0  0  0  0  0
    2.3903   -3.5877   28.3054 P   0  0  0  0  0  0  0  0  0  0  0  0
    1.0285  -10.4626   17.8112 C   0  0  0  0  0  0  0  0  0  0  0  0
    0.9288   -9.3163   17.6757 C   0  0  0  0  0  0  0  0  0  0  0  0
    1.7832   -5.2674   26.5804 C   0  0  0  0  0  0  0  0  0  0  0  0
    2.4591   -1.9572   26.8922 Cl  0  0  0  0  0  0  0  0  0  0  0  0
    5.4588   -8.5047   26.6518 He  0  0  0  0  0  0  0  0  0  0  0  0
    3.4229   -4.9973   26.5986 He  0  0  0  0  0  0  0  0  0  0  0  0
    4.8214   -8.8102   27.9123 He  0  0  0  0  0  0  0  0  0  0  0  0
    2.7358   -2.4251   27.9371 He  0  0  0  0  0  0  0  0  0  0  0  0
    2.6169   -7.0131   28.8165 He  0  0  0  0  0  0  0  0  0  0  0  0
    3.4550   -7.5505   27.4376 He  0  0  0  0  0  0  0  0  0  0  0  0
    3.1029  -11.3265   15.7655 He  0  0  0  0  0  0  0  0  0  0  0  0
    7.1882   -7.1177   29.5463 He  0  0  0  0  0  0  0  0  0  0  0  0
    3.0722   -6.0241   26.1681 He  0  0  0  0  0  0  0  0  0  0  0  0
    3.6363  -13.3902   14.1840 He  0  0  0  0  0  0  0  0  0  0  0  0
    7.5467   -6.2194   28.3987 He  0  0  0  0  0  0  0  0  0  0  0  0
    4.4355   -8.4709   27.2334 He  0  0  0  0  0  0  0  0  0  0  0  0
    1.4123  -11.8410   14.7125 He  0  0  0  0  0  0  0  0  0  0  0  0
    6.2542   -5.1630   27.8263 He  0  0  0  0  0  0  0  0  0  0  0  0
    2.1062   -5.9453   27.1248 He  0  0  0  0  0  0  0  0  0  0  0  0
  1  3  4  0
  1  7  3  0
  1 13  2  0
  2  5  1  0
  2  7  4  0
  3  6  4  0
  3  7  3  0
  3 10  1  0
  3 12  3  0
  4 11  4  0
  5  7  4  0
  5  8  4  0
  5  9  4  0
  5 11  2  0
  6 10  3  0
  6 11  2  0
  7 12  3  0
  7 13  3  0
  8  9  4  0
  8 13  1  0
  9 11  3  0
  9 13  4  0
 10 13  1  0
M  END
$$$$

 Created by Python create_sdf_string function

 28  8  0  0  0  0  0  0  0  0999 V2000
    2.3634  -10.1406   12.6011 C   0  0  0  0  0  0  0  0  0  0  0  0
    2.9985   -4.4815   27.4390 Cl  0  0  0  0  0  0  0  0  0  0  0  0
    1.7993   -6.6358   27.6027 O   0  0  0  0  0  0  0  0  0  0  0  0
    3.9063  -10.9389   14.8192 P   0  0  0  0  0  0  0  0  0  0  0  0
    6.7981   -7.0428   28.5660 N   0  0  0  0  0  0  0  0  0  0  0  0
    1.4128   -2.8925   27.1079 Cl  0  0  0  0  0  0  0  0  0  0  0  0
    3.7877   -8.1944   26.4149 P   0  0  0  0  0  0  0  0  0  0  0  0
    3.2787  -12.5709   13.4700 O   0  0  0  0  0  0  0  0  0  0  0  0
    5.7975   -9.2182   27.8889 C   0  0  0  0  0  0  0  0  0  0  0  0
    6.0770   -5.2030   27.6877 N   0  0  0  0  0  0  0  0  0  0  0  0
    2.2947   -6.8745   27.3046 O   0  0  0  0  0  0  0  0  0  0  0  0
    3.3389   -2.7907   26.6605 C   0  0  0  0  0  0  0  0  0  0  0  0
    6.0345   -8.7081   25.7775 He  0  0  0  0  0  0  0  0  0  0  0  0
    1.2365   -5.3500   28.0592 He  0  0  0  0  0  0  0  0  0  0  0  0
    2.4088   -4.8606   26.6914 He  0  0  0  0  0  0  0  0  0  0  0  0
    2.8056  -10.3764   15.8653 He  0  0  0  0  0  0  0  0  0  0  0  0
    4.9872   -8.9930   27.0963 He  0  0  0  0  0  0  0  0  0  0  0  0
    1.0638   -3.1626   27.8671 He  0  0  0  0  0  0  0  0  0  0  0  0
    1.7872  -11.3428   15.4123 He  0  0  0  0  0  0  0  0  0  0  0  0
    1.7567   -6.4867   25.6031 He  0  0  0  0  0  0  0  0  0  0  0  0
   -0.3910  -10.2088   15.5438 He  0  0  0  0  0  0  0  0  0  0  0  0
    7.4112   -7.0216   28.3477 He  0  0  0  0  0  0  0  0  0  0  0  0
    6.9683   -7.4596   27.0988 He  0  0  0  0  0  0  0  0  0  0  0  0
    0.3138   -8.5066   15.7776 He  0  0  0  0  0  0  0  0  0  0  0  0
    7.2010   -7.5267   28.3292 He  0  0  0  0  0  0  0  0  0  0  0  0
    2.2325  -12.4744   15.0341 He  0  0  0  0  0  0  0  0  0  0  0  0
   -0.7982  -10.0021   16.5869 He  0  0  0  0  0  0  0  0  0  0  0  0
    2.4463   -7.0353   28.8046 He  0  0  0  0  0  0  0  0  0  0  0  0
  1  4  2  0
  1  6  3  0
  2  5  2  0
  2  7  1  0
  3  9  3  0
  4  5  2  0
  4  7  3  0
  5  6  2  0
M  END
$$$$

 Created by Python create_sdf_string function

 28 39  0  0  0  0  0  0  0  0999 V2000
    4.4595   -8.1788   25.2795 F   0  0  0  0  0  0  0  0  0  0  0  0
    1.4258   -3.8872   27.9181 C   0  0  0  0  0  0  0  0  0  0  0  0
    2.1423   -9.1645   15.8638 C   0  0  0  0  0  0  0  0  0  0  0  0
    0.6017   -3.1049   26.5987 F   0  0  0  0  0  0  0  0  0  0  0  0
    1.3767  -10.3537   14.1242 C   0  0  0  0  0  0  0  0  0  0  0  0
    2.2083   -6.1600   26.5945 F   0  0  0  0  0  0  0  0  0  0  0  0
    4.4711  -11.2403   13.7144 P   0  0  0  0  0  0  0  0  0  0  0  0
   -0.1289  -11.5014   15.9606 C   0  0  0  0  0  0  0  0  0  0  0  0
    6.5064   -6.1918   28.4642 C   0  0  0  0  0  0  0  0  0  0  0  0
    2.9741  -12.9997   13.5975 O   0  0  0  0  0  0  0  0  0  0  0  0
    6.8564   -8.1590   29.4615 P   0  0  0  0  0  0  0  0  0  0  0  0
    5.9572   -8.7301   27.5881 Cl  0  0  0  0  0  0  0  0  0  0  0  0
    2.9342  -12.5748   14.6276 C   0  0  0  0  0  0  0  0  0  0  0  0
    8.0317   -4.7429   27.7489 C   0  0  0  0  0  0  0  0  0  0  0  0
    3.8338   -9.0964   26.8656 C   0  0  0  0  0  0  0  0  0  0  0  0
    2.4749   -4.3061   26.7815 O   0  0  0  0  0  0  0  0  0  0  0  0
    0.7531   -5.1727   28.5184 He  0  0  0  0  0  0  0  0  0  0  0  0
    1.6771  -11.7210   12.9367 He  0  0  0  0  0  0  0  0  0  0  0  0
    2.2263   -3.7438   27.0636 He  0  0  0  0  0  0  0  0  0  0  0  0
    6.0501   -8.1408   26.8771 He  0  0  0  0  0  0  0  0  0  0  0  0
    2.6288   -5.5050   27.6875 He  0  0  0  0  0  0  0  0  0  0  0  0
    7.7439   -7.2494   28.3755 He  0  0  0  0  0  0  0  0  0  0  0  0
    6.8673   -7.0256   26.6691 He  0  0  0  0  0  0  0  0  0  0  0  0
    1.0066   -1.9273   26.1502 He  0  0  0  0  0  0  0  0  0  0  0  0
    3.2344   -7.8589   25.8802 He  0  0  0  0  0  0  0  0  0  0  0  0
    2.6651  -10.1347   16.0616 He  0  0  0  0  0  0  0  0  0  0  0  0
    0.3406  -10.7413   15.1191 He  0  0  0  0  0  0  0  0  0  0  0  0
    2.1437   -6.0937   29.5410 He  0  0  0  0  0  0  0  0  0  0  0  0
  1  8  3  0
  1 13  2  0
  1 14  1  0
  1 16  2  0
  2  6  1  0
  2 11  3  0
  2 12  3  0
  2 13  4  0
  3  4  3  0
  3  9  2  0
  3 10  2  0
  3 14  3  0
  3 15  1  0
  4  7  2  0
  5  9  2  0
  5 11  4  0
  5 12  1  0
  5 13  2  0
  5 14  2  0
  5 15  4  0
  6 11  4  0
  6 12  2  0
  6 13  4  0
  7  9  2  0
  7 10  3  0
  7 11  1  0
  7 14  4  0
  7 15  4  0
  8 11  2  0
  8 12  2  0
  8 14  4  0
  9 11  2  0
  9 12  2  0
  9 13  1  0
  9 14  1  0
  9 16  3  0
 10 15  3  0
 11 12  1  0
 11 14  4  0
M  END
$$$$

 Created by Python create_sdf_string function

 28 57  0  0  0  0  0  0  0  0999 V2000
    3.2460   -7.1900   24.9713 F   0  0  0  0  0  0  0  0  0  0  0  0
    1.7262   -5.4309   28.0067 C   0  0  0  0  0  0  0  0  0  0  0  0
    1.7914  -11.2853   13.5611 C   0  0  0  0  0  0  0  0  0  0  0  0
    1.7203   -4.5744   28.0769 C   0  0  0  0  0  0  0  0  0  0  0  0
    1.2347   -9.8899   15.7571 C   0  0  0  0  0  0  0  0  0  0  0  0
    0.8331   -3.7376   26.9179 O   0  0  0  0  0  0  0  0  0  0  0  0
    1.7992  -12.2234   14.5451 P   0  0  0  0  0  0  0  0  0  0  0  0
    3.1035   -3.5857   27.4735 P   0  0  0  0  0  0  0  0  0  0  0  0
    0.1526  -11.8256   16.8425 Cl  0  0  0  0  0  0  0  0  0  0  0  0
    7.7550   -5.3526   28.5251 C   0  0  0  0  0  0  0  0  0  0  0  0
    7.0760   -7.6657   28.4575 Se  0  0  0  0  0  0  0  0  0  0  0  0
    0.8218   -2.0601   27.1815 C   0  0  0  0  0  0  0  0  0  0  0  0
    2.0682  -10.2630   16.1538 N   0  0  0  0  0  0  0  0  0  0  0  0
    2.8292  -12.0025   14.3264 F   0  0  0  0  0  0  0  0  0  0  0  0
    7.3824   -6.8500   28.5862 O   0  0  0  0  0  0  0  0  0  0  0  0
    6.9914   -8.2987   27.9943 C   0  0  0  0  0  0  0  0  0  0  0  0
   -0.7608  -10.6506   15.1128 C   0  0  0  0  0  0  0  0  0  0  0  0
    4.7361   -8.8785   27.9244 C   0  0  0  0  0  0  0  0  0  0  0  0
    2.6452   -6.3513   26.9928 O   0  0  0  0  0  0  0  0  0  0  0  0
    2.0275   -4.2869   27.5031 He  0  0  0  0  0  0  0  0  0  0  0  0
    5.9267   -8.0168   27.6998 He  0  0  0  0  0  0  0  0  0  0  0  0
    2.9909   -7.2281   25.6578 He  0  0  0  0  0  0  0  0  0  0  0  0
    4.0047  -11.9199   12.8313 He  0  0  0  0  0  0  0  0  0  0  0  0
    5.9611   -7.1372   26.0471 He  0  0  0  0  0  0  0  0  0  0  0  0
    4.4714   -7.1408   27.3182 He  0  0  0  0  0  0  0  0  0  0  0  0
    2.1893  -12.2738   13.9009 He  0  0  0  0  0  0  0  0  0  0  0  0
    7.6463   -4.3882   27.0458 He  0  0  0  0  0  0  0  0  0  0  0  0
    1.0662   -2.8439   27.3068 He  0  0  0  0  0  0  0  0  0  0  0  0
  1  2  4  0
  1  3  3  0
  1  4  1  0
  1  8  3  0
  1  9  3  0
  1 10  4  0
  1 15  4  0
  1 16  4  0
  1 17  2  0
  2  3  1  0
  2  7  4  0
  2  8  1  0
  2 12  4  0
  2 17  4  0
  3  6  4  0
  3 11  4  0
  3 18  3  0
  4  5  2  0
  4  8  2  0
  4  9  1  0
  4 10  2  0
  4 19  2  0
  5  6  4  0
  5 11  3  0
  5 12  2  0
  5 14  3  0
  5 15  2  0
  5 16  1  0
  6 11  3  0
  6 12  2  0
  6 14  2  0
  6 19  3  0
  7 10  4  0
  7 11  3  0
  7 14  2  0
  7 17  1  0
  7 18  1  0
  8 16  2  0
  8 18  4  0
  9 11  4  0
  9 12  4  0
  9 13  4  0
  9 17  3  0
 10 11  1  0
 10 17  4  0
 11 12  3  0
 11 13  4  0
 11 14  3  0
 12 13  1  0
 12 17  1  0
 12 18  2  0
 12 19  4  0
 13 16  2  0
 15 16  4  0
 15 18  1  0
 16 18  3  0
 18 19  1  0
M  END
$$$$

 Created by Python create_sdf_string function

 28 80  0  0  0  0  0  0  0  0999 V2000
    3.7990   -7.0949   26.1875 I   0  0  0  0  0  0  0  0  0  0  0  0
    1.9253   -4.9894   28.0654 C   0  0  0  0  0  0  0  0  0  0  0  0
    0.7517   -5.9340   27.1076 C   0  0  0  0  0  0  0  0  0  0  0  0
    2.8919   -2.8888   27.7987 C   0  0  0  0  0  0  0  0  0  0  0  0
    1.9897  -11.4055   15.6246 C   0  0  0  0  0  0  0  0  0  0  0  0
    6.6058   -8.6409   28.3224 C   0  0  0  0  0  0  0  0  0  0  0  0
    1.2346   -3.2377   27.1321 C   0  0  0  0  0  0  0  0  0  0  0  0
    0.4404  -10.9814   13.4335 F   0  0  0  0  0  0  0  0  0  0  0  0
    2.7469   -4.3371   28.1942 C   0  0  0  0  0  0  0  0  0  0  0  0
    2.4818   -6.6672   27.6908 C   0  0  0  0  0  0  0  0  0  0  0  0
    3.8268  -13.4221   12.4754 P   0  0  0  0  0  0  0  0  0  0  0  0
   -0.4040  -11.5568   16.0196 N   0  0  0  0  0  0  0  0  0  0  0  0
    6.7890   -4.4126   28.3392 C   0  0  0  0  0  0  0  0  0  0  0  0
    7.2071   -8.2817   27.7331 C   0  0  0  0  0  0  0  0  0  0  0  0
    0.0842   -2.5383   26.9904 C   0  0  0  0  0  0  0  0  0  0  0  0
    0.7844  -10.1539   16.0340 C   0  0  0  0  0  0  0  0  0  0  0  0
    7.9238   -7.4590   26.9414 C   0  0  0  0  0  0  0  0  0  0  0  0
    2.0155  -14.1762   14.5537 F   0  0  0  0  0  0  0  0  0  0  0  0
    0.8636  -11.2251   15.5651 C   0  0  0  0  0  0  0  0  0  0  0  0
    7.2795   -3.0996   26.4955 C   0  0  0  0  0  0  0  0  0  0  0  0
    1.5022   -3.2818   27.1282 N   0  0  0  0  0  0  0  0  0  0  0  0
    2.2895   -6.6123   28.4385 C   0  0  0  0  0  0  0  0  0  0  0  0
    2.4958   -8.9397   14.3787 He  0  0  0  0  0  0  0  0  0  0  0  0
    6.3528   -7.7694   26.7619 He  0  0  0  0  0  0  0  0  0  0  0  0
    5.6714   -7.1988   26.1117 He  0  0  0  0  0  0  0  0  0  0  0  0
    2.3515  -11.0956   14.7120 He  0  0  0  0  0  0  0  0  0  0  0  0
    6.1181   -9.8035   29.0274 He  0  0  0  0  0  0  0  0  0  0  0  0
    3.8474   -9.5361   26.0907 He  0  0  0  0  0  0  0  0  0  0  0  0
  1  3  1  0
  1  4  3  0
  1  5  4  0
  1  7  2  0
  1  9  4  0
  1 17  2  0
  1 20  4  0
  1 21  3  0
  2  3  1  0
  2  6  3  0
  2  9  1  0
  2 11  3  0
  2 13  1  0
  2 15  4  0
  2 21  4  0
  2 22  1  0
  3  5  1  0
  3 11  4  0
  3 14  1  0
  3 16  3  0
  3 17  2  0
  3 19  1  0
  3 21  2  0
  4  8  1  0
  4  9  1  0
  4 12  2  0
  4 14  3  0
  4 18  2  0
  4 21  4  0
  5  6  4  0
  5  8  1  0
  5  9  2  0
  5 13  3  0
  5 18  3  0
  5 19  1  0
  6  9  1  0
  6 16  3  0
  6 18  4  0
  6 19  3  0
  6 21  1  0
  7  9  4  0
  7 10  4  0
  7 12  1  0
  7 19  1  0
  8  9  2  0
  8 10  2  0
  8 11  3  0
  8 12  3  0
  8 14  3  0
  8 18  4  0
  9 13  4  0
 10 13  4  0
 10 22  1  0
 11 15  4  0
 11 19  1  0
 11 20  1  0
 11 21  2  0
 11 22  3  0
 12 15  3  0
 12 16  4  0
 12 21  1  0
 12 22  1  0
 13 14  2  0
 13 18  2  0
 13 19  2  0
 13 20  1  0
 13 22  3  0
 14 17  4  0
 14 18  1  0
 14 21  1  0
 15 16  2  0
 15 17  1  0
 15 21  4  0
 15 22  2  0
 16 21  4  0
 17 18  2  0
 18 22  3  0
 19 20  1  0
 20 21  4  0
 21 22  2  0
M  END
$$$$

 Created by Python create_sdf_string function

 28 34  0  0  0  0  0  0  0  0999 V2000
    4.0739   -6.9846   25.8933 F   0  0  0  0  0  0  0  0  0  0  0  0
    2.6472   -5.5163   27.4504 F   0  0  0  0  0  0  0  0  0  0  0  0
    2.2539  -10.4974   14.7838 C   0  0  0  0  0  0  0  0  0  0  0  0
    1.2597  -12.6532   13.5972 C   0  0  0  0  0  0  0  0  0  0  0  0
    1.7779   -2.6290   28.5376 C   0  0  0  0  0  0  0  0  0  0  0  0
    1.2773  -10.9114   13.1747 C   0  0  0  0  0  0  0  0  0  0  0  0
    1.9165   -7.0627   27.6847 C   0  0  0  0  0  0  0  0  0  0  0  0
    2.5266  -13.2817   12.4588 Cl  0  0  0  0  0  0  0  0  0  0  0  0
    5.5028   -4.6894   26.8040 C   0  0  0  0  0  0  0  0  0  0  0  0
    7.7531   -8.3812   25.4866 F   0  0  0  0  0  0  0  0  0  0  0  0
    6.8483   -6.1688   27.6913 F   0  0  0  0  0  0  0  0  0  0  0  0
    1.0595   -2.3833   27.0481 C   0  0  0  0  0  0  0  0  0  0  0  0
    0.2517  -10.1195   16.3630 C   0  0  0  0  0  0  0  0  0  0  0  0
    3.0916  -11.9643   15.6487 F   0  0  0  0  0  0  0  0  0  0  0  0
    6.4496   -8.4667   26.9327 C   0  0  0  0  0  0  0  0  0  0  0  0
    2.4973  -12.1124   14.4106 S   0  0  0  0  0  0  0  0  0  0  0  0
    2.1943   -7.2496   27.4399 C   0  0  0  0  0  0  0  0  0  0  0  0
    1.0164   -6.1411   25.9958 He  0  0  0  0  0  0  0  0  0  0  0  0
    4.2104   -3.0991   27.0169 He  0  0  0  0  0  0  0  0  0  0  0  0
    7.1906   -8.6921   27.5028 He  0  0  0  0  0  0  0  0  0  0  0  0
    3.0141   -3.5828   27.2817 He  0  0  0  0  0  0  0  0  0  0  0  0
    0.0338  -10.6569   15.4668 He  0  0  0  0  0  0  0  0  0  0  0  0
    6.3207   -5.7781   27.1127 He  0  0  0  0  0  0  0  0  0  0  0  0
    8.0651   -7.6492   27.6908 He  0  0  0  0  0  0  0  0  0  0  0  0
    1.3815  -11.8008   14.9775 He  0  0  0  0  0  0  0  0  0  0  0  0
    6.9240   -4.1576   27.7434 He  0  0  0  0  0  0  0  0  0  0  0  0
    3.9045   -9.4781   26.4193 He  0  0  0  0  0  0  0  0  0  0  0  0
    0.5008   -3.7365   28.1497 He  0  0  0  0  0  0  0  0  0  0  0  0
  1  5  3  0
  1 10  3  0
  1 17  1  0
  2  4  1  0
  2 10  3  0
  2 12  4  0
  2 16  2  0
  2 17  1  0
  3  4  4  0
  3  5  4  0
  3  6  2  0
  3  7  2  0
  3 16  1  0
  4  6  3  0
  4 14  2  0
  4 16  4  0
  4 17  2  0
  5  8  3  0
  5 12  1  0
  5 17  1  0
  6  8  1  0
  6  9  4  0
  6 10  3  0
  6 14  3  0
  7 15  2  0
  8 16  3  0
  9 14  2  0
 10 11  2  0
 10 13  2  0
 10 15  4  0
 11 12  4  0
 12 15  1  0
 13 15  1  0
 13 17  4  0
M  END
$$$$

 Created by Python create_sdf_string function

 28 43  0  0  0  0  0  0  0  0999 V2000
    3.5378   -6.7811   26.4866 P   0  0  0  0  0  0  0  0  0  0  0  0
    2.2124   -4.1562   27.6329 C   0  0  0  0  0  0  0  0  0  0  0  0
    1.6511   -5.8784   27.1429 C   0  0  0  0  0  0  0  0  0  0  0  0
    4.3880   -3.8664   26.7576 C   0  0  0  0  0  0  0  0  0  0  0  0
    7.3941   -7.3447   27.1153 O   0  0  0  0  0  0  0  0  0  0  0  0
    1.8816   -2.1855   28.0748 Br  0  0  0  0  0  0  0  0  0  0  0  0
    2.4277   -3.9529   27.9176 P   0  0  0  0  0  0  0  0  0  0  0  0
    1.0358   -8.7565   27.6948 C   0  0  0  0  0  0  0  0  0  0  0  0
    4.0917   -6.2783   26.9287 C   0  0  0  0  0  0  0  0  0  0  0  0
    5.8761   -4.3453   27.8403 S   0  0  0  0  0  0  0  0  0  0  0  0
   -0.2494  -10.5016   15.5989 N   0  0  0  0  0  0  0  0  0  0  0  0
    3.9997  -11.7274   15.3637 C   0  0  0  0  0  0  0  0  0  0  0  0
    7.3274   -8.0658   27.4958 C   0  0  0  0  0  0  0  0  0  0  0  0
    6.2939   -8.9671   27.1330 S   0  0  0  0  0  0  0  0  0  0  0  0
    1.9540  -10.9533   14.4778 C   0  0  0  0  0  0  0  0  0  0  0  0
    6.2677   -3.9353   27.7413 O   0  0  0  0  0  0  0  0  0  0  0  0
    5.1243   -7.2839   26.7848 C   0  0  0  0  0  0  0  0  0  0  0  0
    2.6144   -6.6124   27.7234 Se  0  0  0  0  0  0  0  0  0  0  0  0
    1.8564  -11.4144   14.8121 He  0  0  0  0  0  0  0  0  0  0  0  0
    2.7371  -11.8296   13.8121 He  0  0  0  0  0  0  0  0  0  0  0  0
    1.3080  -11.1680   12.5315 He  0  0  0  0  0  0  0  0  0  0  0  0
    2.3633  -13.0970   12.7258 He  0  0  0  0  0  0  0  0  0  0  0  0
    0.4633  -11.0819   15.4738 He  0  0  0  0  0  0  0  0  0  0  0  0
    6.8759   -8.2380   28.1593 He  0  0  0  0  0  0  0  0  0  0  0  0
    2.9398   -3.4568   27.7734 He  0  0  0  0  0  0  0  0  0  0  0  0
    6.3181   -5.4479   26.8825 He  0  0  0  0  0  0  0  0  0  0  0  0
    1.9975  -11.9331   15.0085 He  0  0  0  0  0  0  0  0  0  0  0  0
    0.9957   -4.6297   27.3157 He  0  0  0  0  0  0  0  0  0  0  0  0
  1  3  1  0
  1  4  4  0
  1  5  2  0
  1 10  4  0
  1 11  1  0
  1 15  1  0
  1 18  1  0
  2  3  4  0
  2  4  2  0
  2  9  1  0
  3  7  4  0
  3  9  4  0
  3 11  4  0
  3 13  2  0
  3 14  2  0
  3 15  2  0
  3 17  3  0
  4  5  2  0
  4  6  1  0
  4  7  4  0
  4  8  2  0
  4  9  4  0
  5 11  3  0
  5 12  3  0
  5 15  4  0
  5 16  4  0
  6  8  3  0
  7 13  3  0
  7 14  1  0
  8 10  3  0
  8 11  2  0
  8 14  2  0
  8 17  3  0
  8 18  1  0
  9 13  2  0
 10 14  1  0
 10 15  2  0
 11 18  2  0
 12 15  2  0
 13 15  4  0
 13 18  2  0
 14 17  4  0
 16 18  4  0
M  END
$$$$

 Created by Python create_sdf_string function

 28 56  0  0  0  0  0  0  0  0999 V2000
    2.4299   -7.1339   27.1770 O   0  0  0  0  0  0  0  0  0  0  0  0
    2.9454   -5.2822   26.9344 P   0  0  0  0  0  0  0  0  0  0  0  0
    2.9019  -10.6042   15.3062 C   0  0  0  0  0  0  0  0  0  0  0  0
    3.1794   -6.1853   27.2901 C   0  0  0  0  0  0  0  0  0  0  0  0
    3.1278   -4.3062   26.6809 N   0  0  0  0  0  0  0  0  0  0  0  0
    6.8404   -6.4951   28.0003 F   0  0  0  0  0  0  0  0  0  0  0  0
    1.1983   -1.4368   27.9254 C   0  0  0  0  0  0  0  0  0  0  0  0
    1.1077   -9.8332   13.2072 Br  0  0  0  0  0  0  0  0  0  0  0  0
    1.1997   -3.4706   27.3964 O   0  0  0  0  0  0  0  0  0  0  0  0
    1.0272   -8.3483   27.3014 C   0  0  0  0  0  0  0  0  0  0  0  0
    1.7499  -11.8544   12.5627 S   0  0  0  0  0  0  0  0  0  0  0  0
    0.3148  -12.2701   15.3957 Cl  0  0  0  0  0  0  0  0  0  0  0  0
    4.7414   -5.0319   26.7940 C   0  0  0  0  0  0  0  0  0  0  0  0
    2.8673  -12.7402   14.9320 F   0  0  0  0  0  0  0  0  0  0  0  0
    7.7615   -8.4643   27.0094 C   0  0  0  0  0  0  0  0  0  0  0  0
    5.9009   -9.1435   26.6189 C   0  0  0  0  0  0  0  0  0  0  0  0
    2.0188  -11.6576   15.6202 P   0  0  0  0  0  0  0  0  0  0  0  0
    0.9170  -11.1858   15.0359 C   0  0  0  0  0  0  0  0  0  0  0  0
    6.1804   -3.3228   27.4508 P   0  0  0  0  0  0  0  0  0  0  0  0
    0.9134   -3.9520   27.4961 C   0  0  0  0  0  0  0  0  0  0  0  0
    2.5550   -6.8828   26.7663 C   0  0  0  0  0  0  0  0  0  0  0  0
    2.9359  -11.3392   14.1173 He  0  0  0  0  0  0  0  0  0  0  0  0
    6.8194   -7.1577   27.1325 He  0  0  0  0  0  0  0  0  0  0  0  0
    7.1550   -4.3724   27.2021 He  0  0  0  0  0  0  0  0  0  0  0  0
    2.9188   -3.6285   27.6902 He  0  0  0  0  0  0  0  0  0  0  0  0
    5.8577   -5.9047   28.0402 He  0  0  0  0  0  0  0  0  0  0  0  0
    0.5655  -11.0884   15.5306 He  0  0  0  0  0  0  0  0  0  0  0  0
    4.9031   -6.2417   26.8392 He  0  0  0  0  0  0  0  0  0  0  0  0
  1 14  2  0
  1 21  1  0
  2  4  2  0
  2  6  2  0
  2 12  3  0
  2 14  2  0
  2 17  2  0
  3 14  3  0
  3 18  3  0
  4  7  3  0
  4  9  4  0
  4 10  3  0
  4 11  2  0
  4 13  1  0
  4 14  1  0
  4 18  3  0
  4 20  3  0
  5  8  3  0
  5 11  4  0
  5 12  1  0
  5 13  4  0
  5 20  3  0
  5 21  4  0
  6  7  4  0
  6  9  4  0
  6 10  3  0
  6 12  4  0
  6 13  4  0
  6 14  4  0
  6 15  4  0
  6 18  4  0
  6 19  3  0
  7 18  1  0
  8 12  4  0
  8 18  1  0
  9 20  1  0
  9 21  1  0
 10 15  1  0
 10 21  1  0
 11 12  4  0
 11 14  3  0
 11 17  3  0
 11 20  2  0
 11 21  1  0
 12 14  2  0
 12 21  2  0
 13 14  2  0
 13 17  1  0
 13 20  2  0
 14 16  4  0
 14 21  4  0
 15 20  1  0
 17 18  1  0
 17 19  1  0
 18 20  4  0
 20 21  1  0
M  END
$$$$

 Created by Python create_sdf_string function

 28 28  0  0  0  0  0  0  0  0999 V2000
    3.8688   -7.6892   27.3203 O   0  0  0  0  0  0  0  0  0  0  0  0
    2.3162  -10.1521   16.0662 N   0  0  0  0  0  0  0  0  0  0  0  0
    3.7839   -6.1543   27.2061 C   0  0  0  0  0  0  0  0  0  0  0  0
    1.2864  -12.0262   12.8437 O   0  0  0  0  0  0  0  0  0  0  0  0
    0.2500   -8.9547   12.9157 C   0  0  0  0  0  0  0  0  0  0  0  0
    5.1758   -5.3422   26.2967 C   0  0  0  0  0  0  0  0  0  0  0  0
    5.9016   -7.6383   26.6717 O   0  0  0  0  0  0  0  0  0  0  0  0
    2.8002   -3.1878   28.5034 C   0  0  0  0  0  0  0  0  0  0  0  0
    5.7871   -6.0596   27.8935 C   0  0  0  0  0  0  0  0  0  0  0  0
   -0.1543  -11.6315   14.4791 B   0  0  0  0  0  0  0  0  0  0  0  0
    3.3548  -11.9093   13.9551 F   0  0  0  0  0  0  0  0  0  0  0  0
    7.9851   -8.6227   26.6872 N   0  0  0  0  0  0  0  0  0  0  0  0
    1.8536  -11.7737   15.9913 F   0  0  0  0  0  0  0  0  0  0  0  0
    5.3097   -2.9390   27.5664 O   0  0  0  0  0  0  0  0  0  0  0  0
    1.8480   -4.0431   27.1512 C   0  0  0  0  0  0  0  0  0  0  0  0
    2.2427   -5.4803   27.4801 He  0  0  0  0  0  0  0  0  0  0  0  0
    3.5435   -3.4952   28.3058 He  0  0  0  0  0  0  0  0  0  0  0  0
    7.3154   -7.4643   27.2425 He  0  0  0  0  0  0  0  0  0  0  0  0
    1.3831   -1.6298   26.2376 He  0  0  0  0  0  0  0  0  0  0  0  0
    0.7200   -4.5411   26.5734 He  0  0  0  0  0  0  0  0  0  0  0  0
   -0.2462   -9.2169   27.5609 He  0  0  0  0  0  0  0  0  0  0  0  0
    2.1296  -11.7967   12.9804 He  0  0  0  0  0  0  0  0  0  0  0  0
   -0.0932  -12.5858   16.8836 He  0  0  0  0  0  0  0  0  0  0  0  0
    7.4353   -3.8327   26.8746 He  0  0  0  0  0  0  0  0  0  0  0  0
    6.0438   -7.6309   26.9031 He  0  0  0  0  0  0  0  0  0  0  0  0
    0.5359  -11.2010   14.6439 He  0  0  0  0  0  0  0  0  0  0  0  0
    5.3260   -5.9907   25.8259 He  0  0  0  0  0  0  0  0  0  0  0  0
    2.7734   -6.1869   26.9195 He  0  0  0  0  0  0  0  0  0  0  0  0
  1  3  4  0
  1  4  3  0
  1  6  2  0
  1  9  4  0
  1 13  1  0
  2  4  2  0
  2  7  4  0
  3 12  4  0
  3 13  1  0
  3 14  1  0
  4 10  4  0
  4 12  4  0
  4 14  2  0
  5 12  2  0
  5 14  2  0
  5 15  4  0
  6  8  2  0
  6 15  2  0
  7  9  1  0
  7 10  4  0
  7 12  2  0
  7 15  2  0
  8  9  4  0
  8 11  2  0
 10 11  3  0
 10 14  4  0
 12 14  3  0
 14 15  4  0
M  END
$$$$

 Created by Python create_sdf_string function

 28 33  0  0  0  0  0  0  0  0999 V2000
    3.8377   -8.2845   27.1988 O   0  0  0  0  0  0  0  0  0  0  0  0
    2.5888   -5.7478   26.4005 F   0  0  0  0  0  0  0  0  0  0  0  0
    3.0323  -10.6557   15.9698 F   0  0  0  0  0  0  0  0  0  0  0  0
    2.5879   -6.5163   26.7181 C   0  0  0  0  0  0  0  0  0  0  0  0
    2.3365  -12.3641   13.5395 C   0  0  0  0  0  0  0  0  0  0  0  0
    2.0410   -2.9479   26.6018 Se  0  0  0  0  0  0  0  0  0  0  0  0
    0.7932  -11.4123   13.6833 F   0  0  0  0  0  0  0  0  0  0  0  0
    0.6595   -4.3889   26.6835 O   0  0  0  0  0  0  0  0  0  0  0  0
    5.3255   -8.5562   27.0219 C   0  0  0  0  0  0  0  0  0  0  0  0
    4.3673   -1.8406   28.4336 C   0  0  0  0  0  0  0  0  0  0  0  0
    0.4730  -10.8909   13.9640 Br  0  0  0  0  0  0  0  0  0  0  0  0
    8.1897   -7.3025   27.1726 N   0  0  0  0  0  0  0  0  0  0  0  0
    1.0119  -10.9786   15.8268 C   0  0  0  0  0  0  0  0  0  0  0  0
    4.9123   -4.2440   27.8868 O   0  0  0  0  0  0  0  0  0  0  0  0
    2.0575   -6.3180   27.1989 C   0  0  0  0  0  0  0  0  0  0  0  0
    4.6771   -2.5820   26.6969 He  0  0  0  0  0  0  0  0  0  0  0  0
    8.4636   -7.2174   25.7884 He  0  0  0  0  0  0  0  0  0  0  0  0
    1.7044   -6.9458   26.7413 He  0  0  0  0  0  0  0  0  0  0  0  0
    2.6121  -10.5101   13.2706 He  0  0  0  0  0  0  0  0  0  0  0  0
    0.7178  -12.6767   14.8691 He  0  0  0  0  0  0  0  0  0  0  0  0
    3.2627   -5.7237   26.6927 He  0  0  0  0  0  0  0  0  0  0  0  0
    7.3065   -4.9081   27.4606 He  0  0  0  0  0  0  0  0  0  0  0  0
    6.6328   -7.1182   26.2950 He  0  0  0  0  0  0  0  0  0  0  0  0
    3.0294  -12.2553   13.3905 He  0  0  0  0  0  0  0  0  0  0  0  0
    4.9385   -7.4849   27.2026 He  0  0  0  0  0  0  0  0  0  0  0  0
    0.2670   -9.8279   14.8471 He  0  0  0  0  0  0  0  0  0  0  0  0
    4.7441   -6.8545   27.3138 He  0  0  0  0  0  0  0  0  0  0  0  0
    1.8075   -4.5385   27.3084 He  0  0  0  0  0  0  0  0  0  0  0  0
  1  2  1  0
  1  3  3  0
  1  4  3  0
  1  7  2  0
  1 12  1  0
  1 14  2  0
  2  3  1  0
  2  4  4  0
  2  8  4  0
  2 11  3  0
  2 15  1  0
  3  6  4  0
  3 10  2  0
  3 11  3  0
  3 13  1  0
  3 14  2  0
  4  7  2  0
  4  8  1  0
  4 14  4  0
  5  8  3  0
  5 15  3  0
  6  9  3  0
  6 10  3  0
  7  8  4  0
  7  9  2  0
  8 11  2  0
  8 12  3  0
  8 13  4  0
  9 15  3  0
 10 12  1  0
 10 15  2  0
 11 14  3  0
 13 14  2  0
M  END
$$$$

 Created by Python create_sdf_string function

 28 54  0  0  0  0  0  0  0  0999 V2000
    1.8788   -5.1718   27.7703 F   0  0  0  0  0  0  0  0  0  0  0  0
    1.9994  -11.5654   16.3599 C   0  0  0  0  0  0  0  0  0  0  0  0
    3.3204   -6.1424   27.0560 C   0  0  0  0  0  0  0  0  0  0  0  0
    3.0718   -3.8644   28.1318 O   0  0  0  0  0  0  0  0  0  0  0  0
    1.3820  -11.9745   13.0968 C   0  0  0  0  0  0  0  0  0  0  0  0
    2.1147   -3.9410   26.2316 O   0  0  0  0  0  0  0  0  0  0  0  0
    0.2741   -5.1327   26.7371 C   0  0  0  0  0  0  0  0  0  0  0  0
    0.5696   -7.5336   26.6450 I   0  0  0  0  0  0  0  0  0  0  0  0
    2.3261  -11.0776   13.7552 Cl  0  0  0  0  0  0  0  0  0  0  0  0
    1.4506  -11.6507   15.1763 C   0  0  0  0  0  0  0  0  0  0  0  0
    6.0275   -8.0588   27.4407 C   0  0  0  0  0  0  0  0  0  0  0  0
    6.5310   -5.3394   26.9807 C   0  0  0  0  0  0  0  0  0  0  0  0
    3.9830   -1.7237   27.7234 C   0  0  0  0  0  0  0  0  0  0  0  0
    0.4124  -11.3447   15.4273 C   0  0  0  0  0  0  0  0  0  0  0  0
    0.8852  -10.4753   15.4517 C   0  0  0  0  0  0  0  0  0  0  0  0
    4.9439   -4.4810   26.6211 O   0  0  0  0  0  0  0  0  0  0  0  0
    5.1641   -6.4824   27.1694 C   0  0  0  0  0  0  0  0  0  0  0  0
    2.7088   -4.3627   27.1361 N   0  0  0  0  0  0  0  0  0  0  0  0
    2.2322   -5.6948   26.4301 P   0  0  0  0  0  0  0  0  0  0  0  0
    4.0323   -8.1010   26.9984 He  0  0  0  0  0  0  0  0  0  0  0  0
    8.5410   -6.7612   27.2236 He  0  0  0  0  0  0  0  0  0  0  0  0
    0.8584  -11.4321   13.1775 He  0  0  0  0  0  0  0  0  0  0  0  0
    2.6561   -5.8315   28.3588 He  0  0  0  0  0  0  0  0  0  0  0  0
    7.6196   -6.0425   27.6249 He  0  0  0  0  0  0  0  0  0  0  0  0
    3.4266  -12.0122   13.2506 He  0  0  0  0  0  0  0  0  0  0  0  0
    8.2793   -8.0373   27.6951 He  0  0  0  0  0  0  0  0  0  0  0  0
    4.4262   -6.6991   27.3523 He  0  0  0  0  0  0  0  0  0  0  0  0
    0.6314   -9.0297   15.9694 He  0  0  0  0  0  0  0  0  0  0  0  0
  1  2  2  0
  1  6  2  0
  1  8  4  0
  1  9  2  0
  1 11  3  0
  1 12  1  0
  1 15  4  0
  1 16  2  0
  1 19  1  0
  2 10  2  0
  2 14  1  0
  3  9  3  0
  3 15  4  0
  3 16  3  0
  3 18  1  0
  4  8  1  0
  4  9  4  0
  4 13  1  0
  4 14  4  0
  4 18  1  0
  5  8  4  0
  5  9  1  0
  5 10  3  0
  5 11  4  0
  5 12  2  0
  5 14  3  0
  6 13  1  0
  6 15  4  0
  6 17  3  0
  6 18  2  0
  6 19  3  0
  7  9  4  0
  7 15  3  0
  7 16  2  0
  7 18  3  0
  8 10  1  0
  8 15  1  0
  8 19  1  0
  9 13  4  0
  9 15  1  0
  9 18  1  0
 10 14  1  0
 10 15  2  0
 10 19  1  0
 11 12  2  0
 11 14  2  0
 12 15  3  0
 12 16  3  0
 13 16  4  0
 13 18  4  0
 15 16  4  0
 16 17  4  0
 16 19  3  0
 18 19  3  0
M  END
$$$$

 Created by Python create_sdf_string function

 28 55  0  0  0  0  0  0  0  0999 V2000
    3.9642   -7.6986   26.8328 F   0  0  0  0  0  0  0  0  0  0  0  0
    2.0892   -5.6304   27.5258 C   0  0  0  0  0  0  0  0  0  0  0  0
    1.1303  -11.6546   15.4654 C   0  0  0  0  0  0  0  0  0  0  0  0
    5.4559   -5.6361   27.6450 C   0  0  0  0  0  0  0  0  0  0  0  0
    9.8197   -6.5023   26.7359 S   0  0  0  0  0  0  0  0  0  0  0  0
    0.4405   -4.1080   28.1586 O   0  0  0  0  0  0  0  0  0  0  0  0
    1.4648  -10.8811   13.2842 O   0  0  0  0  0  0  0  0  0  0  0  0
    0.2481   -6.4911   26.6724 N   0  0  0  0  0  0  0  0  0  0  0  0
    0.8315   -6.9477   26.9593 F   0  0  0  0  0  0  0  0  0  0  0  0
    2.3156  -11.2720   15.6731 C   0  0  0  0  0  0  0  0  0  0  0  0
    6.5378   -8.2334   27.5245 C   0  0  0  0  0  0  0  0  0  0  0  0
    3.8682   -2.3799   26.4757 Cl  0  0  0  0  0  0  0  0  0  0  0  0
    7.2103   -6.3469   27.0448 N   0  0  0  0  0  0  0  0  0  0  0  0
    0.2055  -11.2113   15.4926 C   0  0  0  0  0  0  0  0  0  0  0  0
    2.6231  -12.4945   13.3622 O   0  0  0  0  0  0  0  0  0  0  0  0
    7.5581   -8.4139   27.5628 C   0  0  0  0  0  0  0  0  0  0  0  0
    5.2412   -7.5163   26.5237 Cl  0  0  0  0  0  0  0  0  0  0  0  0
    1.1865   -9.4771   16.0402 C   0  0  0  0  0  0  0  0  0  0  0  0
    5.8072   -5.7858   26.8936 O   0  0  0  0  0  0  0  0  0  0  0  0
    6.2557   -6.2657   26.9392 C   0  0  0  0  0  0  0  0  0  0  0  0
    2.9239   -3.3646   26.3838 C   0  0  0  0  0  0  0  0  0  0  0  0
    2.9465   -2.7580   27.5610 He  0  0  0  0  0  0  0  0  0  0  0  0
    1.6122  -12.0473   13.4797 He  0  0  0  0  0  0  0  0  0  0  0  0
    2.0064  -11.2217   13.3685 He  0  0  0  0  0  0  0  0  0  0  0  0
    3.3197   -7.0177   27.5587 He  0  0  0  0  0  0  0  0  0  0  0  0
    8.1823   -4.9134   27.8920 He  0  0  0  0  0  0  0  0  0  0  0  0
    1.5797  -10.5608   15.8652 He  0  0  0  0  0  0  0  0  0  0  0  0
    2.3814   -5.7492   26.4639 He  0  0  0  0  0  0  0  0  0  0  0  0
  1  6  2  0
  1 14  3  0
  2  3  1  0
  2  4  4  0
  2  5  1  0
  2 14  3  0
  2 15  3  0
  2 17  2  0
  2 18  3  0
  2 21  4  0
  3  6  3  0
  3  8  3  0
  3 10  1  0
  3 13  2  0
  3 17  4  0
  4  6  2  0
  4  8  2  0
  4  9  3  0
  4 14  2  0
  4 18  1  0
  4 19  2  0
  4 20  1  0
  4 21  1  0
  5  7  1  0
  5 10  3  0
  5 13  3  0
  5 15  1  0
  5 17  1  0
  5 19  1  0
  6 10  3  0
  6 20  4  0
  6 21  2  0
  7 13  3  0
  7 20  2  0
  8 16  2  0
  8 19  4  0
  9 12  4  0
  9 14  1  0
 10 11  1  0
 10 13  4  0
 10 16  2  0
 11 12  3  0
 11 14  3  0
 11 17  4  0
 11 21  4  0
 12 15  4  0
 13 14  3  0
 13 18  4  0
 14 16  2  0
 14 19  3  0
 14 21  2  0
 16 18  2  0
 16 20  4  0
 17 20  3  0
 18 20  3  0
M  END
$$$$

 Created by Python create_sdf_string function

 28 38  0  0  0  0  0  0  0  0999 V2000
    3.6058   -7.0324   27.8417 N   0  0  0  0  0  0  0  0  0  0  0  0
    0.2731  -10.9964   15.7270 C   0  0  0  0  0  0  0  0  0  0  0  0
    5.3666   -4.4571   26.9169 C   0  0  0  0  0  0  0  0  0  0  0  0
    1.9186  -12.0174   13.1202 O   0  0  0  0  0  0  0  0  0  0  0  0
    9.3547   -7.0597   27.4561 C   0  0  0  0  0  0  0  0  0  0  0  0
    1.5526  -11.0092   13.5772 C   0  0  0  0  0  0  0  0  0  0  0  0
    0.4771   -6.0876   26.9032 C   0  0  0  0  0  0  0  0  0  0  0  0
    2.4240  -12.0459   13.9912 C   0  0  0  0  0  0  0  0  0  0  0  0
    2.6550  -11.1198   15.1381 F   0  0  0  0  0  0  0  0  0  0  0  0
    7.7690   -6.6012   26.3363 F   0  0  0  0  0  0  0  0  0  0  0  0
    1.2130  -12.2292   13.8596 O   0  0  0  0  0  0  0  0  0  0  0  0
    8.1633   -8.5746   27.0140 C   0  0  0  0  0  0  0  0  0  0  0  0
    5.0883   -7.6375   26.9573 S   0  0  0  0  0  0  0  0  0  0  0  0
    1.0723   -9.9031   15.8965 C   0  0  0  0  0  0  0  0  0  0  0  0
    1.4042   -9.9480   15.4391 C   0  0  0  0  0  0  0  0  0  0  0  0
    5.2768   -3.8423   28.4247 N   0  0  0  0  0  0  0  0  0  0  0  0
    2.1712   -4.8937   26.9345 C   0  0  0  0  0  0  0  0  0  0  0  0
    3.1172   -5.0768   26.7576 B   0  0  0  0  0  0  0  0  0  0  0  0
    2.4805   -5.4086   26.6441 He  0  0  0  0  0  0  0  0  0  0  0  0
    2.8553   -2.3505   26.7822 He  0  0  0  0  0  0  0  0  0  0  0  0
    0.8993   -2.7503   27.0478 He  0  0  0  0  0  0  0  0  0  0  0  0
    1.3130   -6.5406   25.7544 He  0  0  0  0  0  0  0  0  0  0  0  0
    3.7287   -7.0667   26.8435 He  0  0  0  0  0  0  0  0  0  0  0  0
    5.9675   -7.8951   26.7899 He  0  0  0  0  0  0  0  0  0  0  0  0
    5.0414   -3.5862   27.5991 He  0  0  0  0  0  0  0  0  0  0  0  0
    7.5712   -5.7264   27.7993 He  0  0  0  0  0  0  0  0  0  0  0  0
   -0.1579  -10.7159   16.2567 He  0  0  0  0  0  0  0  0  0  0  0  0
    6.6800   -6.4865   26.5649 He  0  0  0  0  0  0  0  0  0  0  0  0
  1  3  1  0
  1  8  4  0
  1 11  4  0
  1 13  1  0
  1 18  4  0
  2  5  4  0
  2  8  3  0
  2 11  4  0
  2 12  2  0
  2 14  1  0
  3  9  3  0
  3 10  3  0
  3 12  4  0
  3 17  1  0
  3 18  1  0
  4  9  2  0
  4 14  3  0
  4 15  1  0
  4 18  4  0
  5  8  4  0
  5  9  1  0
  5 12  4  0
  5 15  3  0
  5 17  2  0
  5 18  4  0
  6 17  4  0
  6 18  2  0
  7 18  1  0
  8 18  2  0
  9 10  1  0
  9 17  2  0
 10 13  3  0
 10 14  4  0
 10 18  4  0
 12 13  2  0
 12 16  4  0
 13 16  4  0
 14 16  3  0
M  END
$$$$

 Created by Python create_sdf_string function

 28 34  0  0  0  0  0  0  0  0999 V2000
   -0.1449  -11.3493   15.1884 C   0  0  0  0  0  0  0  0  0  0  0  0
    4.8219   -5.6954   25.9664 C   0  0  0  0  0  0  0  0  0  0  0  0
    2.9554   -2.9818   26.8229 C   0  0  0  0  0  0  0  0  0  0  0  0
    3.6098  -12.3844   12.7891 Br  0  0  0  0  0  0  0  0  0  0  0  0
    9.0333   -7.1425   27.2004 N   0  0  0  0  0  0  0  0  0  0  0  0
    0.1857   -5.3286   25.9370 N   0  0  0  0  0  0  0  0  0  0  0  0
    1.4842   -5.4146   26.1143 Se  0  0  0  0  0  0  0  0  0  0  0  0
    3.5606  -12.2474   13.3503 C   0  0  0  0  0  0  0  0  0  0  0  0
    2.8284  -11.3754   14.8091 C   0  0  0  0  0  0  0  0  0  0  0  0
    7.9850   -7.0700   27.0269 C   0  0  0  0  0  0  0  0  0  0  0  0
    7.6763   -5.7708   27.8019 B   0  0  0  0  0  0  0  0  0  0  0  0
    0.3281  -12.4265   14.3467 C   0  0  0  0  0  0  0  0  0  0  0  0
    7.6246   -9.5654   27.4696 C   0  0  0  0  0  0  0  0  0  0  0  0
    0.6754   -9.8469   15.9761 C   0  0  0  0  0  0  0  0  0  0  0  0
    7.0458   -3.4284   27.1908 N   0  0  0  0  0  0  0  0  0  0  0  0
    2.3386   -3.9117   27.2372 N   0  0  0  0  0  0  0  0  0  0  0  0
    4.0123   -5.6512   26.8665 C   0  0  0  0  0  0  0  0  0  0  0  0
    4.2651   -6.5300   26.5365 He  0  0  0  0  0  0  0  0  0  0  0  0
    2.4487   -5.2816   25.8048 He  0  0  0  0  0  0  0  0  0  0  0  0
    1.8687   -3.6673   27.6048 He  0  0  0  0  0  0  0  0  0  0  0  0
    0.9123  -10.2265   13.1028 He  0  0  0  0  0  0  0  0  0  0  0  0
    3.0324   -7.0341   27.7218 He  0  0  0  0  0  0  0  0  0  0  0  0
    6.4927   -5.5573   28.2160 He  0  0  0  0  0  0  0  0  0  0  0  0
    4.6400   -3.1417   27.0842 He  0  0  0  0  0  0  0  0  0  0  0  0
   -1.0250  -10.3996   16.5414 He  0  0  0  0  0  0  0  0  0  0  0  0
    4.4194   -7.9461   27.0072 He  0  0  0  0  0  0  0  0  0  0  0  0
    2.8146   -9.8169   14.5973 He  0  0  0  0  0  0  0  0  0  0  0  0
    5.9050   -6.7621   27.0175 He  0  0  0  0  0  0  0  0  0  0  0  0
  1  8  2  0
  1 12  3  0
  2  7  2  0
  2  9  2  0
  2 16  2  0
  2 17  1  0
  3  6  4  0
  3 14  1  0
  4  6  1  0
  4  8  1  0
  4 15  1  0
  5 12  4  0
  5 15  2  0
  6  7  1  0
  6 11  2  0
  6 14  1  0
  6 16  2  0
  7 11  3  0
  7 17  3  0
  8 11  2  0
  8 12  1  0
  8 17  1  0
  9 10  4  0
  9 11  1  0
  9 15  4  0
 10 14  4  0
 10 16  3  0
 11 12  2  0
 11 15  4  0
 12 17  1  0
 13 14  2  0
 13 15  2  0
 13 16  3  0
 16 17  2  0
M  END
$$$$

 Created by Python create_sdf_string function

 28 39  0  0  0  0  0  0  0  0999 V2000
    3.1166   -6.5021   26.8641 S   0  0  0  0  0  0  0  0  0  0  0  0
    4.8110   -5.7426   27.2744 C   0  0  0  0  0  0  0  0  0  0  0  0
    3.1635   -3.3733   26.4766 Cl  0  0  0  0  0  0  0  0  0  0  0  0
    8.6434   -6.7440   28.1160 C   0  0  0  0  0  0  0  0  0  0  0  0
    2.6760   -2.8200   26.8015 C   0  0  0  0  0  0  0  0  0  0  0  0
    1.5169  -11.3825   13.8630 C   0  0  0  0  0  0  0  0  0  0  0  0
    0.6702   -5.1977   27.3655 S   0  0  0  0  0  0  0  0  0  0  0  0
    3.0632  -12.4143   13.9328 C   0  0  0  0  0  0  0  0  0  0  0  0
    1.5471  -11.0613   15.1327 C   0  0  0  0  0  0  0  0  0  0  0  0
    8.1998   -7.8239   26.3395 C   0  0  0  0  0  0  0  0  0  0  0  0
    6.6632   -6.1145   27.5500 C   0  0  0  0  0  0  0  0  0  0  0  0
    4.5586   -3.3144   27.4989 N   0  0  0  0  0  0  0  0  0  0  0  0
    7.4027   -5.3352   27.3867 C   0  0  0  0  0  0  0  0  0  0  0  0
   -0.1397  -10.6207   16.5273 O   0  0  0  0  0  0  0  0  0  0  0  0
    0.2479  -12.2378   14.2590 Cl  0  0  0  0  0  0  0  0  0  0  0  0
    5.0151   -7.1852   27.0077 C   0  0  0  0  0  0  0  0  0  0  0  0
    1.9828  -10.1209   15.4650 C   0  0  0  0  0  0  0  0  0  0  0  0
    5.8433   -4.6891   27.3359 N   0  0  0  0  0  0  0  0  0  0  0  0
    2.1267   -4.8966   27.5249 C   0  0  0  0  0  0  0  0  0  0  0  0
    4.5325   -5.2502   27.3270 C   0  0  0  0  0  0  0  0  0  0  0  0
    4.0439   -6.7449   27.6873 He  0  0  0  0  0  0  0  0  0  0  0  0
   -0.5340   -9.7598   14.4972 He  0  0  0  0  0  0  0  0  0  0  0  0
    3.8124  -12.4939   13.1246 He  0  0  0  0  0  0  0  0  0  0  0  0
   -0.8339   -6.1619   27.0999 He  0  0  0  0  0  0  0  0  0  0  0  0
    1.6240   -7.1402   26.3316 He  0  0  0  0  0  0  0  0  0  0  0  0
    7.4923   -8.3614   27.2742 He  0  0  0  0  0  0  0  0  0  0  0  0
    2.7615   -9.6656   14.5139 He  0  0  0  0  0  0  0  0  0  0  0  0
    6.6907   -7.4804   27.4445 He  0  0  0  0  0  0  0  0  0  0  0  0
  1  6  1  0
  1  7  4  0
  1  8  4  0
  1 10  2  0
  2  5  2  0
  2 11  4  0
  2 14  1  0
  2 18  2  0
  3  5  4  0
  4  9  2  0
  4 12  4  0
  4 13  4  0
  4 18  4  0
  5  7  3  0
  5 11  1  0
  5 12  2  0
  5 18  2  0
  5 19  3  0
  5 20  3  0
  6  7  3  0
  6  8  4  0
  6 12  3  0
  6 13  3  0
  6 15  1  0
  6 19  2  0
  6 20  2  0
  7  8  3  0
  7 10  1  0
  7 16  1  0
  7 20  3  0
  8 16  4  0
  8 20  2  0
  9 10  4  0
  9 12  4  0
  9 13  4  0
 10 12  2  0
 10 19  4  0
 12 19  2  0
 13 15  2  0
M  END
$$$$

 Created by Python create_sdf_string function

 28 41  0  0  0  0  0  0  0  0999 V2000
    3.9322   -6.2253   26.5925 Cl  0  0  0  0  0  0  0  0  0  0  0  0
    5.3841   -5.3196   27.9537 C   0  0  0  0  0  0  0  0  0  0  0  0
    2.5437   -2.7775   26.4085 C   0  0  0  0  0  0  0  0  0  0  0  0
    3.3018  -12.2525   13.7551 C   0  0  0  0  0  0  0  0  0  0  0  0
    2.1968   -3.8132   26.6167 P   0  0  0  0  0  0  0  0  0  0  0  0
    0.0037  -11.1982   14.2171 C   0  0  0  0  0  0  0  0  0  0  0  0
   -0.0961   -6.2271   27.0387 C   0  0  0  0  0  0  0  0  0  0  0  0
    3.2716  -11.8633   14.1348 F   0  0  0  0  0  0  0  0  0  0  0  0
    0.4443   -7.2366   27.2954 O   0  0  0  0  0  0  0  0  0  0  0  0
    8.9400   -7.5679   27.3037 N   0  0  0  0  0  0  0  0  0  0  0  0
    6.3737   -5.6119   27.5910 F   0  0  0  0  0  0  0  0  0  0  0  0
    3.8604   -3.4183   27.1583 N   0  0  0  0  0  0  0  0  0  0  0  0
    0.3693  -11.3563   15.7330 O   0  0  0  0  0  0  0  0  0  0  0  0
    0.1844  -13.0682   14.2222 C   0  0  0  0  0  0  0  0  0  0  0  0
    8.2883   -7.9058   26.7863 Cl  0  0  0  0  0  0  0  0  0  0  0  0
    5.4238   -7.9277   27.0630 N   0  0  0  0  0  0  0  0  0  0  0  0
    1.5002  -10.0254   15.7170 C   0  0  0  0  0  0  0  0  0  0  0  0
    6.1220   -4.4499   26.7365 N   0  0  0  0  0  0  0  0  0  0  0  0
    6.6649   -8.2795   27.7471 C   0  0  0  0  0  0  0  0  0  0  0  0
    1.4171   -5.3552   27.9945 C   0  0  0  0  0  0  0  0  0  0  0  0
    3.6638   -4.3062   27.8849 C   0  0  0  0  0  0  0  0  0  0  0  0
    3.0538   -6.0539   27.0089 He  0  0  0  0  0  0  0  0  0  0  0  0
   -0.0938  -11.3971   15.7874 He  0  0  0  0  0  0  0  0  0  0  0  0
    8.8016   -5.8178   28.2660 He  0  0  0  0  0  0  0  0  0  0  0  0
    0.0430   -5.8205   26.9880 He  0  0  0  0  0  0  0  0  0  0  0  0
    0.4250  -10.8162   14.2502 He  0  0  0  0  0  0  0  0  0  0  0  0
    7.7985   -6.2595   27.7501 He  0  0  0  0  0  0  0  0  0  0  0  0
    3.6955   -9.9004   15.0860 He  0  0  0  0  0  0  0  0  0  0  0  0
  1 12  4  0
  1 16  4  0
  2  4  1  0
  2  7  3  0
  2  9  2  0
  2 15  1  0
  2 19  3  0
  3  5  4  0
  3 10  3  0
  3 12  3  0
  3 15  1  0
  3 18  3  0
  4  5  4  0
  4 13  3  0
  4 14  4  0
  4 17  4  0
  4 20  4  0
  5  7  1  0
  5 15  2  0
  6 11  2  0
  6 14  1  0
  6 18  2  0
  7  9  2  0
  7 20  2  0
  7 21  3  0
  8 10  3  0
  8 11  2  0
  8 14  2  0
  8 19  2  0
  9 10  1  0
 10 13  1  0
 10 14  3  0
 10 20  2  0
 11 13  3  0
 11 17  2  0
 11 18  4  0
 13 19  1  0
 14 21  3  0
 16 19  4  0
 18 20  3  0
 18 21  3  0
M  END
$$$$

 Created by Python create_sdf_string function

 28 52  0  0  0  0  0  0  0  0999 V2000
    4.6194   -6.6615   26.8960 C   0  0  0  0  0  0  0  0  0  0  0  0
    0.2507  -11.6882   15.9599 C   0  0  0  0  0  0  0  0  0  0  0  0
    5.3033   -4.9748   27.0013 C   0  0  0  0  0  0  0  0  0  0  0  0
    2.6299   -2.5482   27.0596 C   0  0  0  0  0  0  0  0  0  0  0  0
    2.3351  -11.3554   13.0579 C   0  0  0  0  0  0  0  0  0  0  0  0
    9.5842   -7.2386   27.0775 C   0  0  0  0  0  0  0  0  0  0  0  0
    0.2424   -4.2848   26.5612 S   0  0  0  0  0  0  0  0  0  0  0  0
   -1.2147  -11.9174   13.4551 I   0  0  0  0  0  0  0  0  0  0  0  0
    0.3997   -5.9713   27.9950 C   0  0  0  0  0  0  0  0  0  0  0  0
    3.8231  -12.4772   14.3277 Br  0  0  0  0  0  0  0  0  0  0  0  0
    0.3732  -11.0300   13.7992 C   0  0  0  0  0  0  0  0  0  0  0  0
    6.7228   -5.8538   27.9509 N   0  0  0  0  0  0  0  0  0  0  0  0
    3.0395   -3.2336   26.3075 C   0  0  0  0  0  0  0  0  0  0  0  0
    0.4296  -12.0883   13.9501 C   0  0  0  0  0  0  0  0  0  0  0  0
    7.0653   -7.9157   27.2663 C   0  0  0  0  0  0  0  0  0  0  0  0
    5.6815   -6.0580   27.3522 O   0  0  0  0  0  0  0  0  0  0  0  0
    2.1050  -10.2195   14.6221 C   0  0  0  0  0  0  0  0  0  0  0  0
    5.9023   -4.7462   28.0214 N   0  0  0  0  0  0  0  0  0  0  0  0
    7.5644   -7.3981   26.8742 C   0  0  0  0  0  0  0  0  0  0  0  0
    1.3484   -5.8638   27.3620 C   0  0  0  0  0  0  0  0  0  0  0  0
    4.4441   -4.5173   27.2732 C   0  0  0  0  0  0  0  0  0  0  0  0
    3.1798   -5.9215   27.3359 He  0  0  0  0  0  0  0  0  0  0  0  0
   -1.0277   -6.9135   27.1698 He  0  0  0  0  0  0  0  0  0  0  0  0
    0.9569   -7.4212   27.9318 He  0  0  0  0  0  0  0  0  0  0  0  0
    9.4507   -7.7486   28.6420 He  0  0  0  0  0  0  0  0  0  0  0  0
    7.6071   -5.2096   27.1535 He  0  0  0  0  0  0  0  0  0  0  0  0
   -0.1526   -9.9216   16.8289 He  0  0  0  0  0  0  0  0  0  0  0  0
    1.8931  -10.1765   14.8780 He  0  0  0  0  0  0  0  0  0  0  0  0
  1  3  4  0
  1  4  3  0
  1  6  4  0
  1  9  1  0
  1 10  2  0
  1 16  4  0
  1 19  3  0
  2  3  1  0
  2 12  3  0
  2 20  2  0
  2 21  1  0
  3  6  3  0
  3 10  3  0
  3 11  1  0
  3 17  4  0
  3 20  3  0
  3 21  1  0
  4  7  4  0
  4 10  1  0
  4 14  4  0
  4 18  3  0
  5 10  4  0
  5 13  4  0
  6 11  3  0
  7 14  1  0
  7 15  1  0
  7 17  4  0
  7 19  4  0
  7 20  4  0
  8 10  3  0
  8 11  4  0
  8 13  1  0
  8 16  3  0
  8 18  2  0
  8 19  4  0
  9 10  3  0
  9 12  1  0
 11 12  4  0
 11 13  2  0
 11 17  3  0
 11 18  4  0
 11 20  2  0
 12 16  2  0
 12 18  4  0
 12 19  1  0
 13 15  2  0
 13 16  1  0
 15 19  4  0
 15 21  1  0
 16 18  4  0
 19 20  1  0
 20 21  3  0
M  END
$$$$

 Created by Python create_sdf_string function

 28 56  0  0  0  0  0  0  0  0999 V2000
    2.1142   -4.5970   28.2034 N   0  0  0  0  0  0  0  0  0  0  0  0
    0.2086  -10.2160   14.8844 C   0  0  0  0  0  0  0  0  0  0  0  0
    1.0702   -2.7450   25.6177 Br  0  0  0  0  0  0  0  0  0  0  0  0
    2.0055  -11.9632   13.6874 C   0  0  0  0  0  0  0  0  0  0  0  0
    9.6593   -6.9048   27.6673 F   0  0  0  0  0  0  0  0  0  0  0  0
    0.8496   -4.4264   25.9023 C   0  0  0  0  0  0  0  0  0  0  0  0
   -1.1742  -11.0199   13.3396 P   0  0  0  0  0  0  0  0  0  0  0  0
   -0.3405   -6.6754   27.7432 C   0  0  0  0  0  0  0  0  0  0  0  0
    3.5967  -12.1695   13.2126 C   0  0  0  0  0  0  0  0  0  0  0  0
    0.0031  -11.6160   14.2528 C   0  0  0  0  0  0  0  0  0  0  0  0
    1.2583   -8.7213   27.7992 O   0  0  0  0  0  0  0  0  0  0  0  0
    8.9743   -7.0182   27.2002 C   0  0  0  0  0  0  0  0  0  0  0  0
    6.4217   -5.6418   27.5093 C   0  0  0  0  0  0  0  0  0  0  0  0
    2.6725   -3.4298   27.6600 N   0  0  0  0  0  0  0  0  0  0  0  0
    8.6059   -5.6302   27.1505 C   0  0  0  0  0  0  0  0  0  0  0  0
    0.6258  -10.2269   17.0473 C   0  0  0  0  0  0  0  0  0  0  0  0
    0.4256  -12.1463   12.8413 C   0  0  0  0  0  0  0  0  0  0  0  0
    7.0795   -8.9128   29.2901 O   0  0  0  0  0  0  0  0  0  0  0  0
    0.9695  -10.6065   15.1667 F   0  0  0  0  0  0  0  0  0  0  0  0
    1.4913  -10.0115   15.2751 C   0  0  0  0  0  0  0  0  0  0  0  0
    7.8593   -7.4758   26.5605 C   0  0  0  0  0  0  0  0  0  0  0  0
    3.0263   -5.2629   26.7704 F   0  0  0  0  0  0  0  0  0  0  0  0
    6.0762   -6.8819   27.2955 He  0  0  0  0  0  0  0  0  0  0  0  0
    5.0423   -5.1456   27.3328 He  0  0  0  0  0  0  0  0  0  0  0  0
   -1.2549   -5.8887   27.2459 He  0  0  0  0  0  0  0  0  0  0  0  0
    5.6973   -7.5181   26.3848 He  0  0  0  0  0  0  0  0  0  0  0  0
    6.6604   -5.0438   27.1900 He  0  0  0  0  0  0  0  0  0  0  0  0
    0.7899   -5.7307   26.7006 He  0  0  0  0  0  0  0  0  0  0  0  0
  1  3  2  0
  1 16  1  0
  1 20  2  0
  2  3  1  0
  2  4  4  0
  2  8  2  0
  2 13  1  0
  2 16  1  0
  3  9  3  0
  3 10  4  0
  3 13  3  0
  3 14  4  0
  3 21  4  0
  4  7  1  0
  4  9  4  0
  4 16  4  0
  4 17  2  0
  5  7  4  0
  5  9  1  0
  5 12  4  0
  5 15  4  0
  5 18  4  0
  5 19  3  0
  6 10  2  0
  6 11  3  0
  6 20  3  0
  7 10  4  0
  7 13  4  0
  7 15  3  0
  7 17  4  0
  7 21  3  0
  8 11  4  0
  8 14  4  0
  8 18  1  0
  9 12  4  0
  9 21  2  0
 10 15  4  0
 10 17  2  0
 11 20  3  0
 12 14  2  0
 12 18  4  0
 13 15  4  0
 13 21  4  0
 13 22  1  0
 14 16  1  0
 14 18  2  0
 14 20  2  0
 14 22  4  0
 15 20  1  0
 16 21  3  0
 17 18  2  0
 17 20  1  0
 17 22  1  0
 18 20  1  0
 19 20  4  0
 21 22  1  0
M  END
$$$$

 Created by Python create_sdf_string function

 28 52  0  0  0  0  0  0  0  0999 V2000
    0.3361   -9.9572   14.4043 C   0  0  0  0  0  0  0  0  0  0  0  0
    5.0410   -5.1058   27.3378 C   0  0  0  0  0  0  0  0  0  0  0  0
    1.6819  -11.1038   13.7693 C   0  0  0  0  0  0  0  0  0  0  0  0
    9.5882   -6.9583   27.3936 C   0  0  0  0  0  0  0  0  0  0  0  0
    0.4558   -3.9393   27.2186 C   0  0  0  0  0  0  0  0  0  0  0  0
   -0.2693  -11.3103   14.6002 C   0  0  0  0  0  0  0  0  0  0  0  0
   -1.1716   -6.4490   27.8201 O   0  0  0  0  0  0  0  0  0  0  0  0
    3.9080  -12.0608   13.5777 C   0  0  0  0  0  0  0  0  0  0  0  0
   -0.1596  -12.2054   13.5276 C   0  0  0  0  0  0  0  0  0  0  0  0
    1.0352   -7.3987   27.5659 O   0  0  0  0  0  0  0  0  0  0  0  0
    9.3674   -8.1581   27.7175 N   0  0  0  0  0  0  0  0  0  0  0  0
    3.0426   -4.4149   26.8131 O   0  0  0  0  0  0  0  0  0  0  0  0
    7.6321   -5.9811   27.9656 C   0  0  0  0  0  0  0  0  0  0  0  0
    0.0939  -10.1738   16.7873 C   0  0  0  0  0  0  0  0  0  0  0  0
    0.6865  -13.2064   13.2573 C   0  0  0  0  0  0  0  0  0  0  0  0
    8.9223   -7.6740   28.1774 C   0  0  0  0  0  0  0  0  0  0  0  0
    6.8747   -7.5230   27.2187 N   0  0  0  0  0  0  0  0  0  0  0  0
    1.0517  -10.3088   15.3034 C   0  0  0  0  0  0  0  0  0  0  0  0
    2.3901  -10.7902   15.5022 C   0  0  0  0  0  0  0  0  0  0  0  0
    5.9149   -4.4756   26.9676 Cl  0  0  0  0  0  0  0  0  0  0  0  0
    7.0306   -6.4749   27.7027 C   0  0  0  0  0  0  0  0  0  0  0  0
    0.8268   -5.5206   27.9399 C   0  0  0  0  0  0  0  0  0  0  0  0
    3.6080   -5.1289   27.6195 C   0  0  0  0  0  0  0  0  0  0  0  0
    5.2101   -7.2377   27.6135 He  0  0  0  0  0  0  0  0  0  0  0  0
    3.1455   -5.6287   27.2561 He  0  0  0  0  0  0  0  0  0  0  0  0
    1.5420   -2.4802   25.5437 He  0  0  0  0  0  0  0  0  0  0  0  0
   -0.1246   -5.4628   27.7865 He  0  0  0  0  0  0  0  0  0  0  0  0
    6.5364   -5.8280   28.2903 He  0  0  0  0  0  0  0  0  0  0  0  0
  1  3  3  0
  1  6  3  0
  1  9  4  0
  1 12  2  0
  1 14  1  0
  1 17  3  0
  1 18  4  0
  2  5  3  0
  2  9  1  0
  2 10  2  0
  2 12  2  0
  2 19  2  0
  3  8  1  0
  3 10  2  0
  3 14  2  0
  3 15  1  0
  3 20  2  0
  3 21  4  0
  3 22  3  0
  4 10  3  0
  4 11  4  0
  4 14  1  0
  4 17  3  0
  5  9  4  0
  5 10  4  0
  5 16  3  0
  5 20  3  0
  5 22  4  0
  5 23  4  0
  6  7  3  0
  6  9  4  0
  6 10  1  0
  8 12  2  0
  9 20  1  0
  9 23  2  0
 10 13  3  0
 10 21  1  0
 12 15  3  0
 12 23  4  0
 14 19  1  0
 14 20  3  0
 14 22  1  0
 15 16  4  0
 15 19  2  0
 15 23  3  0
 16 21  2  0
 16 23  4  0
 17 21  4  0
 18 23  3  0
 19 21  4  0
 20 22  2  0
 22 23  2  0
M  END
$$$$

 Created by Python create_sdf_string function

 28 52  0  0  0  0  0  0  0  0999 V2000
    5.9852   -7.3455   27.7126 C   0  0  0  0  0  0  0  0  0  0  0  0
    2.4675   -5.2383   27.1647 C   0  0  0  0  0  0  0  0  0  0  0  0
    0.2058  -10.7378   14.0069 C   0  0  0  0  0  0  0  0  0  0  0  0
    5.4183   -4.8422   26.7001 C   0  0  0  0  0  0  0  0  0  0  0  0
    1.6302   -2.8608   26.0683 O   0  0  0  0  0  0  0  0  0  0  0  0
    9.4754   -7.1826   27.8718 C   0  0  0  0  0  0  0  0  0  0  0  0
    0.9807   -3.9319   27.8926 C   0  0  0  0  0  0  0  0  0  0  0  0
   -0.7634  -10.4475   14.3556 C   0  0  0  0  0  0  0  0  0  0  0  0
   -1.4100   -5.1079   27.6942 O   0  0  0  0  0  0  0  0  0  0  0  0
    2.0757   -7.6011   29.0704 P   0  0  0  0  0  0  0  0  0  0  0  0
    9.5463   -7.8365   28.3460 F   0  0  0  0  0  0  0  0  0  0  0  0
    3.5455   -3.7893   26.8757 C   0  0  0  0  0  0  0  0  0  0  0  0
    0.2521   -8.8969   16.2639 C   0  0  0  0  0  0  0  0  0  0  0  0
    1.2376  -12.1127   13.5558 C   0  0  0  0  0  0  0  0  0  0  0  0
    9.0128   -7.9631   27.5212 C   0  0  0  0  0  0  0  0  0  0  0  0
    5.5203   -7.9068   26.8081 N   0  0  0  0  0  0  0  0  0  0  0  0
    1.4813  -10.8267   15.3172 C   0  0  0  0  0  0  0  0  0  0  0  0
    2.1544  -10.5578   16.1046 C   0  0  0  0  0  0  0  0  0  0  0  0
    4.9415   -4.6243   26.8546 C   0  0  0  0  0  0  0  0  0  0  0  0
    2.9988   -4.8324   26.3687 C   0  0  0  0  0  0  0  0  0  0  0  0
    2.4712  -12.8437   13.5725 He  0  0  0  0  0  0  0  0  0  0  0  0
   -0.4947   -6.4329   27.3922 He  0  0  0  0  0  0  0  0  0  0  0  0
    3.1259  -12.4800   12.9608 He  0  0  0  0  0  0  0  0  0  0  0  0
   -0.8742  -11.1884   12.6345 He  0  0  0  0  0  0  0  0  0  0  0  0
    7.5339   -5.7155   27.7745 He  0  0  0  0  0  0  0  0  0  0  0  0
    9.0730   -5.3255   27.6615 He  0  0  0  0  0  0  0  0  0  0  0  0
    6.7728   -7.3416   27.2977 He  0  0  0  0  0  0  0  0  0  0  0  0
    1.4918   -5.2530   27.1163 He  0  0  0  0  0  0  0  0  0  0  0  0
  1  4  4  0
  1  7  4  0
  1  9  1  0
  1 10  1  0
  1 12  3  0
  1 16  4  0
  2  3  4  0
  2  7  3  0
  2 11  2  0
  2 12  3  0
  2 13  3  0
  2 15  1  0
  2 17  4  0
  2 19  1  0
  3  8  1  0
  3 14  1  0
  3 17  2  0
  3 18  4  0
  3 20  3  0
  4 11  3  0
  4 12  4  0
  4 19  4  0
  4 20  2  0
  5  7  4  0
  5  9  4  0
  5 10  3  0
  5 12  4  0
  5 13  3  0
  5 14  1  0
  5 17  2  0
  6 10  3  0
  6 11  1  0
  6 15  3  0
  7 12  4  0
  7 15  4  0
  7 18  3  0
  8 16  3  0
  8 18  3  0
  8 20  2  0
 10 14  2  0
 11 14  2  0
 11 15  2  0
 11 16  3  0
 12 16  2  0
 12 20  4  0
 13 15  2  0
 13 18  3  0
 15 17  4  0
 15 18  3  0
 15 20  4  0
 16 19  3  0
 19 20  3  0
M  END
$$$$

 Created by Python create_sdf_string function

 28 38  0  0  0  0  0  0  0  0999 V2000
    5.8159   -7.4124   26.9677 C   0  0  0  0  0  0  0  0  0  0  0  0
    2.2299   -5.2099   26.5095 C   0  0  0  0  0  0  0  0  0  0  0  0
    0.6598  -10.2455   14.5157 C   0  0  0  0  0  0  0  0  0  0  0  0
    5.7892   -5.4662   26.9968 C   0  0  0  0  0  0  0  0  0  0  0  0
    1.4566   -3.8092   26.3219 C   0  0  0  0  0  0  0  0  0  0  0  0
    9.1825   -7.0420   28.2870 C   0  0  0  0  0  0  0  0  0  0  0  0
    0.4381   -3.7081   26.8107 C   0  0  0  0  0  0  0  0  0  0  0  0
   -1.0316   -5.6356   28.0618 O   0  0  0  0  0  0  0  0  0  0  0  0
    3.5432  -11.7907   13.3149 C   0  0  0  0  0  0  0  0  0  0  0  0
   -0.2712  -11.0192   12.9009 C   0  0  0  0  0  0  0  0  0  0  0  0
    0.6717   -7.1612   27.6621 O   0  0  0  0  0  0  0  0  0  0  0  0
   10.4384   -7.6715   27.3486 F   0  0  0  0  0  0  0  0  0  0  0  0
    3.7708   -3.6695   25.7777 Br  0  0  0  0  0  0  0  0  0  0  0  0
    8.3038   -5.3088   27.2703 C   0  0  0  0  0  0  0  0  0  0  0  0
   -0.0140   -9.0407   15.6372 C   0  0  0  0  0  0  0  0  0  0  0  0
    8.7672   -8.0030   27.8952 Se  0  0  0  0  0  0  0  0  0  0  0  0
    5.3345   -6.9263   26.9820 Cl  0  0  0  0  0  0  0  0  0  0  0  0
    1.9127  -10.0994   15.6770 C   0  0  0  0  0  0  0  0  0  0  0  0
    5.5214   -5.0977   26.6280 C   0  0  0  0  0  0  0  0  0  0  0  0
    1.3146   -5.2422   26.5912 F   0  0  0  0  0  0  0  0  0  0  0  0
    3.6017   -5.5510   26.3525 C   0  0  0  0  0  0  0  0  0  0  0  0
    2.0441  -11.9945   13.7625 He  0  0  0  0  0  0  0  0  0  0  0  0
   -0.1379  -10.9612   14.3300 He  0  0  0  0  0  0  0  0  0  0  0  0
    0.4757   -6.0730   28.2572 He  0  0  0  0  0  0  0  0  0  0  0  0
    7.8952   -6.1441   27.5919 He  0  0  0  0  0  0  0  0  0  0  0  0
    1.3005  -12.4388   13.9472 He  0  0  0  0  0  0  0  0  0  0  0  0
    1.2925  -10.4378   14.9855 He  0  0  0  0  0  0  0  0  0  0  0  0
    7.9688   -7.4821   27.6248 He  0  0  0  0  0  0  0  0  0  0  0  0
  1  6  1  0
  1 15  3  0
  1 17  4  0
  1 21  1  0
  2  8  4  0
  2 11  1  0
  2 13  2  0
  2 15  1  0
  2 16  3  0
  2 19  3  0
  2 20  3  0
  3  4  4  0
  3  7  3  0
  3 13  1  0
  3 21  4  0
  4  5  3  0
  4 13  3  0
  4 15  4  0
  5  8  3  0
  5 11  4  0
  5 13  4  0
  5 14  1  0
  6 13  2  0
  6 16  4  0
  7 16  3  0
  7 20  4  0
  8 15  3  0
  8 17  3  0
  9 11  3  0
  9 15  1  0
  9 18  1  0
 11 15  3  0
 11 18  1  0
 13 21  4  0
 14 17  2  0
 15 16  1  0
 15 20  4  0
 18 21  1  0
M  END
$$$$

 Created by Python create_sdf_string function

 28 59  0  0  0  0  0  0  0  0999 V2000
    5.7043   -8.4310   26.6809 I   0  0  0  0  0  0  0  0  0  0  0  0
    2.3845   -6.0937   26.7887 P   0  0  0  0  0  0  0  0  0  0  0  0
   -0.3382  -10.8693   14.3936 S   0  0  0  0  0  0  0  0  0  0  0  0
    1.8748   -2.7556   26.7419 C   0  0  0  0  0  0  0  0  0  0  0  0
    2.5572  -11.9773   14.1765 C   0  0  0  0  0  0  0  0  0  0  0  0
    9.7383   -7.0386   28.1300 C   0  0  0  0  0  0  0  0  0  0  0  0
    1.5286   -4.3261   26.6401 C   0  0  0  0  0  0  0  0  0  0  0  0
   -0.6739  -10.0811   14.8280 C   0  0  0  0  0  0  0  0  0  0  0  0
   -0.5120   -6.1561   27.3163 C   0  0  0  0  0  0  0  0  0  0  0  0
    0.2351   -7.3252   28.1987 C   0  0  0  0  0  0  0  0  0  0  0  0
   10.3739   -7.5997   27.1625 C   0  0  0  0  0  0  0  0  0  0  0  0
    2.6684   -3.8377   26.1607 C   0  0  0  0  0  0  0  0  0  0  0  0
    8.8384   -6.0197   26.6756 C   0  0  0  0  0  0  0  0  0  0  0  0
    0.2937   -9.2982   16.2119 C   0  0  0  0  0  0  0  0  0  0  0  0
    7.4677   -7.8724   28.1914 C   0  0  0  0  0  0  0  0  0  0  0  0
    5.3912   -8.2047   27.3603 N   0  0  0  0  0  0  0  0  0  0  0  0
    1.6485  -10.5575   15.2481 C   0  0  0  0  0  0  0  0  0  0  0  0
    1.6866  -10.5853   15.4792 C   0  0  0  0  0  0  0  0  0  0  0  0
    4.8883   -5.8397   27.8069 C   0  0  0  0  0  0  0  0  0  0  0  0
    6.7761   -6.8695   28.2078 C   0  0  0  0  0  0  0  0  0  0  0  0
    1.2922   -4.9222   26.8313 C   0  0  0  0  0  0  0  0  0  0  0  0
    3.1543   -5.1035   26.7713 C   0  0  0  0  0  0  0  0  0  0  0  0
    5.4990   -5.6453   27.2624 He  0  0  0  0  0  0  0  0  0  0  0  0
   -0.9349   -5.2008   27.2341 He  0  0  0  0  0  0  0  0  0  0  0  0
    3.9722  -12.5278   12.9459 He  0  0  0  0  0  0  0  0  0  0  0  0
   -0.1520  -11.7311   12.0170 He  0  0  0  0  0  0  0  0  0  0  0  0
    7.4465   -6.6330   27.5910 He  0  0  0  0  0  0  0  0  0  0  0  0
    1.5539  -11.4036   13.5897 He  0  0  0  0  0  0  0  0  0  0  0  0
  1  5  3  0
  1  8  2  0
  1 11  2  0
  1 12  4  0
  1 13  2  0
  1 16  4  0
  2  7  3  0
  2 11  3  0
  2 13  1  0
  2 15  3  0
  2 20  4  0
  2 22  1  0
  3  5  4  0
  3  9  4  0
  3 11  3  0
  3 15  2  0
  4  7  4  0
  4 11  2  0
  4 12  4  0
  4 17  2  0
  4 19  3  0
  5  6  1  0
  5  9  2  0
  5 11  1  0
  5 13  3  0
  5 16  3  0
  5 19  1  0
  5 21  3  0
  6 12  2  0
  6 15  1  0
  6 16  3  0
  6 18  3  0
  6 19  2  0
  7 10  1  0
  7 11  4  0
  7 16  3  0
  7 20  3  0
  7 21  4  0
  8 11  3  0
  8 19  1  0
  9 10  2  0
  9 11  4  0
  9 21  1  0
  9 22  4  0
 10 11  1  0
 10 19  4  0
 11 20  1  0
 13 22  4  0
 14 15  4  0
 14 18  4  0
 14 21  1  0
 16 18  1  0
 16 19  2  0
 17 18  4  0
 18 19  1  0
 18 21  3  0
 18 22  2  0
 20 22  1  0
 21 22  2  0
M  END
$$$$

 Created by Python create_sdf_string function

 28 45  0  0  0  0  0  0  0  0999 V2000
    6.3459   -8.8182   26.7487 N   0  0  0  0  0  0  0  0  0  0  0  0
   -0.6541  -10.3670   14.6326 C   0  0  0  0  0  0  0  0  0  0  0  0
    5.1737   -5.8566   27.9921 C   0  0  0  0  0  0  0  0  0  0  0  0
    2.2259   -3.5854   27.2446 C   0  0  0  0  0  0  0  0  0  0  0  0
    2.2279  -11.1799   13.8264 C   0  0  0  0  0  0  0  0  0  0  0  0
    1.5966   -3.7921   26.2738 C   0  0  0  0  0  0  0  0  0  0  0  0
   -0.7434  -10.4983   14.6939 C   0  0  0  0  0  0  0  0  0  0  0  0
   -0.4481   -5.8054   27.4562 O   0  0  0  0  0  0  0  0  0  0  0  0
    3.6168  -11.9397   13.5526 Cl  0  0  0  0  0  0  0  0  0  0  0  0
    0.8662  -12.1242   12.4133 Cl  0  0  0  0  0  0  0  0  0  0  0  0
   -0.4830   -7.5830   28.1548 O   0  0  0  0  0  0  0  0  0  0  0  0
   10.0406   -7.2988   26.9972 O   0  0  0  0  0  0  0  0  0  0  0  0
    7.3494   -6.9206   27.3276 C   0  0  0  0  0  0  0  0  0  0  0  0
    2.9140   -3.1506   26.9479 C   0  0  0  0  0  0  0  0  0  0  0  0
   -0.0155   -9.9117   16.4679 C   0  0  0  0  0  0  0  0  0  0  0  0
    1.8099  -11.9341   13.9975 C   0  0  0  0  0  0  0  0  0  0  0  0
    8.8203   -9.0227   27.4867 C   0  0  0  0  0  0  0  0  0  0  0  0
    2.2330  -10.4456   15.4261 C   0  0  0  0  0  0  0  0  0  0  0  0
    1.6167  -10.4036   15.8274 C   0  0  0  0  0  0  0  0  0  0  0  0
    5.9823   -6.4759   27.9197 O   0  0  0  0  0  0  0  0  0  0  0  0
    6.4600   -6.7391   26.8018 C   0  0  0  0  0  0  0  0  0  0  0  0
    3.2999   -4.9528   27.0691 N   0  0  0  0  0  0  0  0  0  0  0  0
    1.9256   -6.6827   27.5524 He  0  0  0  0  0  0  0  0  0  0  0  0
    9.7572   -7.5599   27.7247 He  0  0  0  0  0  0  0  0  0  0  0  0
   -0.2302   -5.7737   28.1204 He  0  0  0  0  0  0  0  0  0  0  0  0
    9.1154   -5.9981   27.8560 He  0  0  0  0  0  0  0  0  0  0  0  0
    4.9501   -7.9545   27.1497 He  0  0  0  0  0  0  0  0  0  0  0  0
    1.8914   -4.5383   26.6837 He  0  0  0  0  0  0  0  0  0  0  0  0
  1  3  3  0
  1  7  2  0
  1 11  2  0
  1 14  4  0
  1 21  3  0
  2  7  4  0
  2  9  4  0
  2 10  2  0
  2 11  2  0
  3  4  3  0
  3 20  4  0
  3 22  1  0
  4  9  1  0
  4 14  4  0
  4 21  1  0
  5  9  1  0
  5 13  2  0
  5 16  1  0
  5 18  2  0
  6 15  1  0
  6 17  4  0
  7 12  2  0
  7 15  2  0
  7 16  3  0
  7 18  1  0
  8 14  3  0
  8 17  4  0
  8 22  2  0
  9 11  2  0
  9 15  2  0
  9 16  3  0
 10 16  3  0
 10 22  3  0
 11 21  2  0
 12 13  4  0
 12 15  4  0
 12 21  4  0
 13 21  4  0
 14 22  1  0
 15 19  4  0
 15 21  3  0
 17 19  4  0
 17 21  4  0
 17 22  1  0
 18 19  4  0
M  END
$$$$

 Created by Python create_sdf_string function

 28 73  0  0  0  0  0  0  0  0999 V2000
    6.0849   -8.9133   26.7079 C   0  0  0  0  0  0  0  0  0  0  0  0
    1.3588   -6.4151   27.0822 F   0  0  0  0  0  0  0  0  0  0  0  0
    4.9893   -6.9743   27.7953 C   0  0  0  0  0  0  0  0  0  0  0  0
    1.7287   -3.2257   25.7789 C   0  0  0  0  0  0  0  0  0  0  0  0
    3.0613  -11.1024   13.9485 C   0  0  0  0  0  0  0  0  0  0  0  0
   10.0657   -7.4393   27.6569 C   0  0  0  0  0  0  0  0  0  0  0  0
    1.1974   -3.9757   27.6792 C   0  0  0  0  0  0  0  0  0  0  0  0
   -0.7391  -10.7394   15.4967 C   0  0  0  0  0  0  0  0  0  0  0  0
   -1.2113   -5.6963   26.9722 S   0  0  0  0  0  0  0  0  0  0  0  0
    0.1355   -5.3849   27.9598 N   0  0  0  0  0  0  0  0  0  0  0  0
    3.7692  -11.6396   13.1898 C   0  0  0  0  0  0  0  0  0  0  0  0
    1.0312  -12.5015   11.6022 N   0  0  0  0  0  0  0  0  0  0  0  0
   -0.0292   -6.8478   28.6559 O   0  0  0  0  0  0  0  0  0  0  0  0
    9.8839   -7.8569   26.3306 O   0  0  0  0  0  0  0  0  0  0  0  0
    6.2380   -6.4597   27.7366 C   0  0  0  0  0  0  0  0  0  0  0  0
    3.2917   -4.4416   28.2252 C   0  0  0  0  0  0  0  0  0  0  0  0
    9.3948   -6.4708   27.9054 O   0  0  0  0  0  0  0  0  0  0  0  0
    0.1380   -9.5158   15.4387 C   0  0  0  0  0  0  0  0  0  0  0  0
    0.7369  -11.5986   13.6305 C   0  0  0  0  0  0  0  0  0  0  0  0
    8.1582   -7.3864   27.4286 C   0  0  0  0  0  0  0  0  0  0  0  0
    5.6188   -7.7854   26.8735 C   0  0  0  0  0  0  0  0  0  0  0  0
    2.9742  -10.3816   15.1279 C   0  0  0  0  0  0  0  0  0  0  0  0
    5.5384   -5.6805   28.0934 C   0  0  0  0  0  0  0  0  0  0  0  0
    1.7424   -5.7482   27.3697 C   0  0  0  0  0  0  0  0  0  0  0  0
    2.8562   -5.5366   27.0588 C   0  0  0  0  0  0  0  0  0  0  0  0
    0.3250  -11.1775   14.1115 He  0  0  0  0  0  0  0  0  0  0  0  0
    1.7252   -9.5005   15.8094 He  0  0  0  0  0  0  0  0  0  0  0  0
    6.6737   -6.9763   27.9609 He  0  0  0  0  0  0  0  0  0  0  0  0
  1  5  4  0
  1  6  2  0
  1 11  2  0
  1 13  2  0
  1 23  4  0
  1 25  4  0
  2  3  3  0
  2  4  4  0
  2  9  3  0
  2 11  1  0
  2 18  2  0
  2 20  1  0
  2 22  1  0
  2 25  4  0
  3  6  4  0
  3 21  4  0
  3 24  4  0
  3 25  1  0
  4  7  4  0
  4 15  1  0
  4 16  2  0
  4 22  1  0
  4 24  1  0
  5  6  2  0
  5 10  2  0
  5 11  1  0
  5 13  3  0
  5 16  1  0
  5 19  4  0
  5 21  1  0
  5 23  3  0
  5 24  2  0
  6  8  3  0
  6 10  4  0
  6 17  1  0
  6 20  1  0
  6 21  4  0
  7 19  2  0
  8 12  3  0
  8 18  4  0
  8 20  1  0
  8 23  1  0
  8 25  1  0
  9 10  2  0
  9 21  3  0
  9 25  2  0
 10 12  4  0
 10 13  2  0
 10 18  1  0
 10 24  1  0
 11 19  4  0
 11 20  2  0
 11 23  1  0
 11 25  4  0
 12 19  1  0
 13 16  4  0
 13 17  1  0
 13 18  3  0
 13 23  3  0
 14 16  1  0
 14 19  4  0
 14 20  1  0
 14 21  3  0
 15 17  1  0
 15 23  4  0
 16 17  3  0
 16 23  3  0
 16 24  3  0
 16 25  4  0
 17 22  4  0
 17 25  3  0
 19 23  1  0
 19 25  3  0
M  END
$$$$

 Created by Python create_sdf_string function

 28 57  0  0  0  0  0  0  0  0999 V2000
    6.3733   -8.1376   26.9402 C   0  0  0  0  0  0  0  0  0  0  0  0
    2.7796   -6.5119   27.7553 C   0  0  0  0  0  0  0  0  0  0  0  0
    4.5554   -6.0915   27.7554 Cl  0  0  0  0  0  0  0  0  0  0  0  0
    2.5435   -3.8113   27.3058 N   0  0  0  0  0  0  0  0  0  0  0  0
    2.3830  -11.0744   13.3434 C   0  0  0  0  0  0  0  0  0  0  0  0
    9.1720   -7.6234   27.3984 C   0  0  0  0  0  0  0  0  0  0  0  0
   -0.2603  -10.8662   15.0269 C   0  0  0  0  0  0  0  0  0  0  0  0
   -1.8800   -5.8185   26.7772 O   0  0  0  0  0  0  0  0  0  0  0  0
   -0.1235   -6.0336   27.5331 P   0  0  0  0  0  0  0  0  0  0  0  0
    3.0699  -11.6791   12.5075 C   0  0  0  0  0  0  0  0  0  0  0  0
    1.0617  -12.2185   12.1539 N   0  0  0  0  0  0  0  0  0  0  0  0
   -0.2899   -7.2317   28.3934 O   0  0  0  0  0  0  0  0  0  0  0  0
   10.2383   -8.2412   26.8403 O   0  0  0  0  0  0  0  0  0  0  0  0
    3.1921   -4.4200   27.0772 C   0  0  0  0  0  0  0  0  0  0  0  0
    9.2500   -7.0661   29.0510 C   0  0  0  0  0  0  0  0  0  0  0  0
    1.1385  -11.5763   14.5023 C   0  0  0  0  0  0  0  0  0  0  0  0
    8.2212   -7.6187   28.3002 C   0  0  0  0  0  0  0  0  0  0  0  0
    4.2886   -8.4904   26.9567 C   0  0  0  0  0  0  0  0  0  0  0  0
    3.0559  -10.9002   14.5630 C   0  0  0  0  0  0  0  0  0  0  0  0
    1.8240   -9.9706   15.2283 C   0  0  0  0  0  0  0  0  0  0  0  0
    5.2689   -5.8658   27.9278 C   0  0  0  0  0  0  0  0  0  0  0  0
    6.6919   -7.2393   27.8741 C   0  0  0  0  0  0  0  0  0  0  0  0
    3.4975   -5.1164   27.6848 C   0  0  0  0  0  0  0  0  0  0  0  0
   -0.2379  -11.9878   14.2929 He  0  0  0  0  0  0  0  0  0  0  0  0
    0.7990   -4.6730   26.4870 He  0  0  0  0  0  0  0  0  0  0  0  0
    7.5835   -5.6813   27.7762 He  0  0  0  0  0  0  0  0  0  0  0  0
    0.1823   -9.8979   15.7855 He  0  0  0  0  0  0  0  0  0  0  0  0
    0.2194   -5.3131   28.0050 He  0  0  0  0  0  0  0  0  0  0  0  0
  1 17  1  0
  1 18  4  0
  1 22  4  0
  2  6  3  0
  2  9  2  0
  2 10  3  0
  2 16  4  0
  3 16  4  0
  3 17  1  0
  3 18  4  0
  3 19  3  0
  3 21  4  0
  4 12  4  0
  4 14  4  0
  4 18  4  0
  5 10  1  0
  5 11  2  0
  5 13  4  0
  5 15  3  0
  5 16  4  0
  5 17  1  0
  5 19  4  0
  5 22  4  0
  6 10  3  0
  6 13  2  0
  6 15  1  0
  6 16  1  0
  6 17  1  0
  7  8  4  0
  7 12  2  0
  7 13  4  0
  7 14  4  0
  7 16  1  0
  8  9  2  0
  8 15  3  0
  8 18  3  0
  8 23  2  0
  9 10  3  0
  9 12  2  0
  9 20  1  0
 10 21  2  0
 11 14  2  0
 11 16  1  0
 11 17  1  0
 11 19  3  0
 11 23  2  0
 12 21  3  0
 13 16  4  0
 13 19  3  0
 13 20  1  0
 14 17  3  0
 14 20  2  0
 15 23  1  0
 16 21  1  0
 18 22  4  0
 19 20  4  0
 21 22  1  0
M  END
$$$$

 Created by Python create_sdf_string function

 28 39  0  0  0  0  0  0  0  0999 V2000
    6.0310   -8.4675   26.8293 F   0  0  0  0  0  0  0  0  0  0  0  0
    1.7140   -6.5855   27.3052 C   0  0  0  0  0  0  0  0  0  0  0  0
   -0.7533  -12.1706   14.1136 C   0  0  0  0  0  0  0  0  0  0  0  0
    4.5656   -6.4558   26.9063 C   0  0  0  0  0  0  0  0  0  0  0  0
    1.7560   -2.9075   26.4837 F   0  0  0  0  0  0  0  0  0  0  0  0
    0.6940   -3.9832   26.5892 C   0  0  0  0  0  0  0  0  0  0  0  0
   -2.2678   -6.0095   27.0408 O   0  0  0  0  0  0  0  0  0  0  0  0
   -0.5858   -6.5492   27.6314 O   0  0  0  0  0  0  0  0  0  0  0  0
    0.0341  -12.4603   12.2661 N   0  0  0  0  0  0  0  0  0  0  0  0
    0.0003   -7.6584   28.5143 O   0  0  0  0  0  0  0  0  0  0  0  0
   10.8904   -7.5865   26.8934 C   0  0  0  0  0  0  0  0  0  0  0  0
    6.9339   -6.3576   27.4971 C   0  0  0  0  0  0  0  0  0  0  0  0
    3.0118   -4.0978   27.5762 C   0  0  0  0  0  0  0  0  0  0  0  0
    0.8887   -9.4885   15.9367 C   0  0  0  0  0  0  0  0  0  0  0  0
    1.4878  -12.4195   13.5928 C   0  0  0  0  0  0  0  0  0  0  0  0
    4.4731   -7.9604   27.1003 C   0  0  0  0  0  0  0  0  0  0  0  0
    2.0617   -9.8957   16.0533 C   0  0  0  0  0  0  0  0  0  0  0  0
    5.7488   -6.0726   27.2708 C   0  0  0  0  0  0  0  0  0  0  0  0
    7.5794   -8.0267   27.2783 C   0  0  0  0  0  0  0  0  0  0  0  0
    1.0425   -5.6950   26.9616 C   0  0  0  0  0  0  0  0  0  0  0  0
    3.6075   -5.7171   27.2885 Se  0  0  0  0  0  0  0  0  0  0  0  0
    2.3459  -10.8919   13.3816 He  0  0  0  0  0  0  0  0  0  0  0  0
    9.9152   -8.4522   27.7990 He  0  0  0  0  0  0  0  0  0  0  0  0
    0.0238  -10.4356   14.6943 He  0  0  0  0  0  0  0  0  0  0  0  0
    3.0693  -12.2548   12.7318 He  0  0  0  0  0  0  0  0  0  0  0  0
    9.8687   -7.2236   28.8869 He  0  0  0  0  0  0  0  0  0  0  0  0
    8.1133   -7.9699   27.0027 He  0  0  0  0  0  0  0  0  0  0  0  0
    2.5459   -9.9462   14.9425 He  0  0  0  0  0  0  0  0  0  0  0  0
  1 13  4  0
  1 16  4  0
  1 19  4  0
  2 20  4  0
  2 21  4  0
  3  8  3  0
  3 12  1  0
  3 13  4  0
  3 15  4  0
  4 13  3  0
  4 21  1  0
  5  6  1  0
  5 11  1  0
  5 12  1  0
  5 13  4  0
  5 17  4  0
  5 21  2  0
  6 10  2  0
  6 20  4  0
  7  8  3  0
  7 18  3  0
  7 21  2  0
  8 10  2  0
  8 14  2  0
  8 15  2  0
  9 16  1  0
  9 18  1  0
  9 21  1  0
 12 13  4  0
 12 17  2  0
 12 18  4  0
 12 19  4  0
 13 18  3  0
 13 21  4  0
 14 18  1  0
 15 19  2  0
 16 21  1  0
 17 19  2  0
 19 21  3  0
M  END
$$$$

 Created by Python create_sdf_string function

 28 74  0  0  0  0  0  0  0  0999 V2000
    1.7596   -5.7783   26.7781 C   0  0  0  0  0  0  0  0  0  0  0  0
   -0.0684  -11.2243   14.4142 C   0  0  0  0  0  0  0  0  0  0  0  0
    4.4556   -6.1688   27.0251 C   0  0  0  0  0  0  0  0  0  0  0  0
    1.0580   -3.8166   26.9323 C   0  0  0  0  0  0  0  0  0  0  0  0
    2.5313  -11.5547   14.0768 C   0  0  0  0  0  0  0  0  0  0  0  0
    9.3320   -7.7985   27.6400 Cl  0  0  0  0  0  0  0  0  0  0  0  0
    0.7918   -4.5751   27.0095 C   0  0  0  0  0  0  0  0  0  0  0  0
   -0.3177  -10.5416   15.5565 C   0  0  0  0  0  0  0  0  0  0  0  0
   -1.6027   -5.4075   27.0737 O   0  0  0  0  0  0  0  0  0  0  0  0
   -0.3505   -5.8693   27.6670 C   0  0  0  0  0  0  0  0  0  0  0  0
    3.1342  -11.9159   13.0087 Cl  0  0  0  0  0  0  0  0  0  0  0  0
    0.5839  -12.7891   12.5715 N   0  0  0  0  0  0  0  0  0  0  0  0
   -0.0876   -7.0169   28.3933 O   0  0  0  0  0  0  0  0  0  0  0  0
   10.5935   -8.1883   26.6498 C   0  0  0  0  0  0  0  0  0  0  0  0
    6.5647   -6.6201   27.3838 C   0  0  0  0  0  0  0  0  0  0  0  0
    3.4843   -4.1550   27.3784 C   0  0  0  0  0  0  0  0  0  0  0  0
   10.3363   -6.9782   29.4422 N   0  0  0  0  0  0  0  0  0  0  0  0
    1.3818   -9.6069   15.7385 C   0  0  0  0  0  0  0  0  0  0  0  0
    0.5222  -12.0827   13.7111 O   0  0  0  0  0  0  0  0  0  0  0  0
    8.0471   -8.0614   26.3816 N   0  0  0  0  0  0  0  0  0  0  0  0
    2.3040  -10.4370   15.2659 C   0  0  0  0  0  0  0  0  0  0  0  0
    2.4810   -9.5541   15.1641 C   0  0  0  0  0  0  0  0  0  0  0  0
    5.6062   -5.8897   27.2654 F   0  0  0  0  0  0  0  0  0  0  0  0
    7.3516   -8.0567   27.5192 C   0  0  0  0  0  0  0  0  0  0  0  0
    0.9758   -5.1581   27.0243 C   0  0  0  0  0  0  0  0  0  0  0  0
    3.5695   -6.0332   27.0996 C   0  0  0  0  0  0  0  0  0  0  0  0
    5.5426   -8.3476   26.5963 He  0  0  0  0  0  0  0  0  0  0  0  0
    4.4536   -6.8316   26.8172 He  0  0  0  0  0  0  0  0  0  0  0  0
  1  3  4  0
  1  4  3  0
  1 19  2  0
  1 20  3  0
  1 22  1  0
  1 23  2  0
  1 24  4  0
  1 26  4  0
  2  8  4  0
  2 13  2  0
  2 16  4  0
  2 19  4  0
  2 21  2  0
  3  6  1  0
  3 11  1  0
  3 12  3  0
  3 17  2  0
  3 19  1  0
  3 20  2  0
  3 22  4  0
  3 23  4  0
  3 24  3  0
  3 26  1  0
  4  5  1  0
  4 13  4  0
  4 16  4  0
  4 23  2  0
  5 11  2  0
  5 15  3  0
  5 21  4  0
  6  9  1  0
  6 14  2  0
  6 17  2  0
  6 20  1  0
  6 24  4  0
  7 14  1  0
  7 20  1  0
  7 21  4  0
  7 24  3  0
  7 25  4  0
  8 13  4  0
  8 15  2  0
  8 18  4  0
  8 24  4  0
  9 10  1  0
  9 24  2  0
 10 11  2  0
 10 15  2  0
 10 22  3  0
 10 25  1  0
 12 19  1  0
 12 24  1  0
 12 26  1  0
 13 24  2  0
 14 16  2  0
 14 18  1  0
 14 21  4  0
 14 26  3  0
 15 20  1  0
 15 21  2  0
 15 22  2  0
 15 23  4  0
 15 24  4  0
 15 25  1  0
 16 24  4  0
 16 25  2  0
 18 21  4  0
 18 22  4  0
 19 20  4  0
 19 26  4  0
 20 22  2  0
 20 24  1  0
 21 22  4  0
 22 26  3  0
M  END
$$$$

 Created by Python create_sdf_string function

 28 60  0  0  0  0  0  0  0  0999 V2000
   -0.6121  -11.4370   14.5852 F   0  0  0  0  0  0  0  0  0  0  0  0
    3.8071   -6.6382   27.0136 C   0  0  0  0  0  0  0  0  0  0  0  0
    1.4516   -2.8180   27.0348 C   0  0  0  0  0  0  0  0  0  0  0  0
    1.3544  -11.3089   14.1156 C   0  0  0  0  0  0  0  0  0  0  0  0
    9.7031   -8.8748   28.1580 F   0  0  0  0  0  0  0  0  0  0  0  0
    0.4631   -4.1389   27.0873 C   0  0  0  0  0  0  0  0  0  0  0  0
   -0.5355  -10.4879   15.3115 F   0  0  0  0  0  0  0  0  0  0  0  0
   -1.5591   -5.1924   27.2802 O   0  0  0  0  0  0  0  0  0  0  0  0
   -0.3450   -5.6292   27.8878 Cl  0  0  0  0  0  0  0  0  0  0  0  0
    3.1818  -12.2685   13.0539 C   0  0  0  0  0  0  0  0  0  0  0  0
    0.1916  -13.3352   13.1155 N   0  0  0  0  0  0  0  0  0  0  0  0
   -0.4978   -6.5775   28.4431 O   0  0  0  0  0  0  0  0  0  0  0  0
   11.2341   -7.5382   26.7099 O   0  0  0  0  0  0  0  0  0  0  0  0
    6.5811   -6.7980   27.1030 O   0  0  0  0  0  0  0  0  0  0  0  0
    2.9157   -4.0592   27.8928 C   0  0  0  0  0  0  0  0  0  0  0  0
    0.5987   -9.9023   15.9592 C   0  0  0  0  0  0  0  0  0  0  0  0
    1.2118  -11.3968   14.0141 C   0  0  0  0  0  0  0  0  0  0  0  0
    8.5463   -7.4170   26.7708 C   0  0  0  0  0  0  0  0  0  0  0  0
    4.2096   -7.9313   26.6604 C   0  0  0  0  0  0  0  0  0  0  0  0
    2.1960  -10.0322   14.8162 C   0  0  0  0  0  0  0  0  0  0  0  0
    2.8830   -9.9313   15.5263 C   0  0  0  0  0  0  0  0  0  0  0  0
    5.5956   -5.4177   27.1298 C   0  0  0  0  0  0  0  0  0  0  0  0
    6.8846   -7.9762   27.1922 C   0  0  0  0  0  0  0  0  0  0  0  0
    0.7770   -5.3136   27.1101 C   0  0  0  0  0  0  0  0  0  0  0  0
    3.2126   -5.2263   27.1130 C   0  0  0  0  0  0  0  0  0  0  0  0
    5.9784   -8.0369   26.6570 He  0  0  0  0  0  0  0  0  0  0  0  0
    1.5082   -5.8042   26.8624 He  0  0  0  0  0  0  0  0  0  0  0  0
    9.7122   -7.3988   28.0685 He  0  0  0  0  0  0  0  0  0  0  0  0
  1  5  1  0
  1  7  4  0
  1  8  3  0
  1  9  2  0
  1 17  2  0
  1 21  3  0
  1 25  1  0
  2  4  3  0
  2  8  1  0
  2 10  2  0
  2 19  1  0
  2 22  4  0
  2 25  1  0
  3  9  3  0
  3 15  4  0
  3 16  1  0
  3 17  2  0
  4  7  4  0
  4  9  2  0
  5  9  1  0
  5 11  3  0
  5 12  3  0
  5 18  4  0
  5 21  3  0
  6 19  2  0
  6 20  2  0
  6 21  1  0
  6 22  2  0
  6 24  4  0
  6 25  1  0
  7  9  4  0
  7 10  1  0
  7 12  3  0
  7 16  4  0
  8  9  2  0
  8 10  3  0
  8 16  3  0
  9 12  2  0
  9 16  3  0
  9 25  1  0
 11 21  3  0
 12 19  3  0
 13 20  4  0
 13 25  2  0
 14 15  3  0
 14 21  4  0
 14 22  4  0
 15 17  1  0
 15 21  2  0
 15 23  1  0
 15 25  4  0
 16 21  4  0
 17 19  4  0
 17 24  3  0
 18 19  4  0
 18 23  1  0
 20 21  4  0
 21 23  1  0
 23 24  3  0
 23 25  4  0
M  END
$$$$

 Created by Python create_sdf_string function

 28 58  0  0  0  0  0  0  0  0999 V2000
    5.6207   -8.4710   26.6052 C   0  0  0  0  0  0  0  0  0  0  0  0
    1.7888   -5.7087   27.0466 C   0  0  0  0  0  0  0  0  0  0  0  0
   -0.2857  -12.0504   15.1170 C   0  0  0  0  0  0  0  0  0  0  0  0
    4.4287   -6.3138   26.7926 C   0  0  0  0  0  0  0  0  0  0  0  0
    2.1916   -3.5091   27.3147 C   0  0  0  0  0  0  0  0  0  0  0  0
    1.0350  -11.3046   13.7123 C   0  0  0  0  0  0  0  0  0  0  0  0
    9.9501   -9.0425   29.4045 O   0  0  0  0  0  0  0  0  0  0  0  0
    0.8109   -3.8264   27.2180 C   0  0  0  0  0  0  0  0  0  0  0  0
   -0.1851  -10.9863   15.3033 C   0  0  0  0  0  0  0  0  0  0  0  0
   -1.6314   -5.4043   27.5983 O   0  0  0  0  0  0  0  0  0  0  0  0
   -0.4317   -5.7545   28.5637 N   0  0  0  0  0  0  0  0  0  0  0  0
    3.3274  -12.3931   12.9421 C   0  0  0  0  0  0  0  0  0  0  0  0
   -0.1442  -12.1527   13.0423 N   0  0  0  0  0  0  0  0  0  0  0  0
   -0.7213   -6.3510   28.5734 O   0  0  0  0  0  0  0  0  0  0  0  0
   11.2363   -7.0454   27.0490 O   0  0  0  0  0  0  0  0  0  0  0  0
    6.7808   -6.3120   27.4785 C   0  0  0  0  0  0  0  0  0  0  0  0
    2.7239   -4.6143   27.0864 C   0  0  0  0  0  0  0  0  0  0  0  0
    9.3047   -8.4137   27.8701 C   0  0  0  0  0  0  0  0  0  0  0  0
    0.6325  -12.5209   14.4152 Cl  0  0  0  0  0  0  0  0  0  0  0  0
    8.9182   -7.5244   27.0283 C   0  0  0  0  0  0  0  0  0  0  0  0
    4.2893   -7.7431   26.1294 C   0  0  0  0  0  0  0  0  0  0  0  0
    2.2410  -10.4396   14.8775 C   0  0  0  0  0  0  0  0  0  0  0  0
    2.3225   -9.3698   15.5822 C   0  0  0  0  0  0  0  0  0  0  0  0
    4.6385   -5.8663   27.8391 C   0  0  0  0  0  0  0  0  0  0  0  0
    6.6878   -7.5522   27.2378 C   0  0  0  0  0  0  0  0  0  0  0  0
    0.8908   -5.4862   27.1064 C   0  0  0  0  0  0  0  0  0  0  0  0
    2.7580   -5.8087   26.8693 C   0  0  0  0  0  0  0  0  0  0  0  0
    0.8380   -9.8150   16.2211 He  0  0  0  0  0  0  0  0  0  0  0  0
  1  4  3  0
  1 12  2  0
  1 13  4  0
  1 17  3  0
  1 20  4  0
  1 21  4  0
  1 25  4  0
  2  5  1  0
  2 13  1  0
  2 24  3  0
  2 26  4  0
  2 27  4  0
  3 13  4  0
  3 21  3  0
  3 23  2  0
  3 27  1  0
  4 13  1  0
  4 14  3  0
  4 16  3  0
  4 27  1  0
  5 11  1  0
  5 17  4  0
  5 25  1  0
  6  7  1  0
  6  9  2  0
  6 12  1  0
  6 16  1  0
  6 22  4  0
  7 18  2  0
  7 27  3  0
  8 13  2  0
  8 17  4  0
  8 26  4  0
  9 18  2  0
 10 11  1  0
 11 14  2  0
 11 26  1  0
 12 20  4  0
 13 19  2  0
 13 22  1  0
 14 15  1  0
 14 16  2  0
 14 21  2  0
 15 18  3  0
 15 24  4  0
 15 27  3  0
 16 24  4  0
 16 25  4  0
 17 26  2  0
 17 27  4  0
 18 20  1  0
 18 25  4  0
 19 21  1  0
 20 24  1  0
 20 25  1  0
 20 26  4  0
 22 23  4  0
 24 25  2  0
M  END
$$$$

 Created by Python create_sdf_string function

 28 38  0  0  0  0  0  0  0  0999 V2000
    6.2517   -8.1161   26.9350 C   0  0  0  0  0  0  0  0  0  0  0  0
    1.8254   -6.0918   27.5407 C   0  0  0  0  0  0  0  0  0  0  0  0
    4.2231   -6.3672   26.8914 C   0  0  0  0  0  0  0  0  0  0  0  0
    2.5009   -3.6755   26.9802 C   0  0  0  0  0  0  0  0  0  0  0  0
    1.9815  -11.9230   13.5307 C   0  0  0  0  0  0  0  0  0  0  0  0
    9.5574   -9.2137   29.2694 O   0  0  0  0  0  0  0  0  0  0  0  0
   -0.1101  -10.6269   15.7632 C   0  0  0  0  0  0  0  0  0  0  0  0
   -0.3662   -6.0562   27.9255 N   0  0  0  0  0  0  0  0  0  0  0  0
   -0.6948  -12.6041   13.1028 N   0  0  0  0  0  0  0  0  0  0  0  0
   11.0397   -7.3571   27.3685 C   0  0  0  0  0  0  0  0  0  0  0  0
    6.9806   -6.6856   28.5033 C   0  0  0  0  0  0  0  0  0  0  0  0
    3.0063   -3.9171   26.9878 S   0  0  0  0  0  0  0  0  0  0  0  0
    9.5741   -8.2831   28.1362 C   0  0  0  0  0  0  0  0  0  0  0  0
    0.3971   -9.7241   16.2574 C   0  0  0  0  0  0  0  0  0  0  0  0
    0.7267  -11.6563   13.5111 C   0  0  0  0  0  0  0  0  0  0  0  0
    8.1059   -8.0856   27.1814 C   0  0  0  0  0  0  0  0  0  0  0  0
    1.9705  -10.8047   15.0732 C   0  0  0  0  0  0  0  0  0  0  0  0
    5.5928   -5.8376   27.7585 C   0  0  0  0  0  0  0  0  0  0  0  0
    6.8751   -7.6040   27.2990 C   0  0  0  0  0  0  0  0  0  0  0  0
    1.3935   -4.9315   26.7131 C   0  0  0  0  0  0  0  0  0  0  0  0
    3.8925   -5.5922   26.9436 B   0  0  0  0  0  0  0  0  0  0  0  0
   -0.3164  -11.2346   14.7095 He  0  0  0  0  0  0  0  0  0  0  0  0
    0.0079   -3.7257   27.2187 He  0  0  0  0  0  0  0  0  0  0  0  0
   -1.8429   -4.6346   27.3201 He  0  0  0  0  0  0  0  0  0  0  0  0
    2.2854  -12.5795   13.4705 He  0  0  0  0  0  0  0  0  0  0  0  0
   -0.8076   -6.3106   29.1957 He  0  0  0  0  0  0  0  0  0  0  0  0
    4.2180   -7.5795   26.6955 He  0  0  0  0  0  0  0  0  0  0  0  0
    1.9736  -10.0294   15.7344 He  0  0  0  0  0  0  0  0  0  0  0  0
  1  5  3  0
  1 19  4  0
  1 21  1  0
  2 11  1  0
  2 12  3  0
  2 20  4  0
  2 21  4  0
  3  8  1  0
  3 11  2  0
  3 18  3  0
  3 21  1  0
  4 11  4  0
  4 12  4  0
  5 10  3  0
  5 15  4  0
  5 17  4  0
  5 19  1  0
  6  7  3  0
  6 13  2  0
  6 16  2  0
  7 14  1  0
  8 12  2  0
  8 20  1  0
  9 10  2  0
  9 15  2  0
  9 17  3  0
  9 19  4  0
 10 15  1  0
 11 18  4  0
 11 19  4  0
 12 16  4  0
 12 20  2  0
 12 21  4  0
 13 16  1  0
 14 19  3  0
 16 18  3  0
 16 20  4  0
 18 21  1  0
M  END
$$$$

 Created by Python create_sdf_string function

 28 41  0  0  0  0  0  0  0  0999 V2000
    5.2605   -8.3904   27.1077 C   0  0  0  0  0  0  0  0  0  0  0  0
    2.3182   -6.3327   27.3854 C   0  0  0  0  0  0  0  0  0  0  0  0
   -0.2095  -11.0586   14.2575 N   0  0  0  0  0  0  0  0  0  0  0  0
    4.5932   -6.3804   26.8708 C   0  0  0  0  0  0  0  0  0  0  0  0
    2.1899   -3.6492   26.3422 C   0  0  0  0  0  0  0  0  0  0  0  0
    1.3751  -11.3977   13.6219 C   0  0  0  0  0  0  0  0  0  0  0  0
    9.1125   -9.1320   29.2321 O   0  0  0  0  0  0  0  0  0  0  0  0
    0.2629   -9.9410   15.7489 C   0  0  0  0  0  0  0  0  0  0  0  0
   -1.9011   -5.0618   27.2147 O   0  0  0  0  0  0  0  0  0  0  0  0
   -0.4947   -5.5982   27.7147 N   0  0  0  0  0  0  0  0  0  0  0  0
    2.5529  -12.6208   12.7982 F   0  0  0  0  0  0  0  0  0  0  0  0
   -0.0433  -13.1119   13.1611 N   0  0  0  0  0  0  0  0  0  0  0  0
   -0.7696   -6.4050   28.9953 O   0  0  0  0  0  0  0  0  0  0  0  0
   11.0087   -6.9358   27.7387 C   0  0  0  0  0  0  0  0  0  0  0  0
    3.6454   -3.8575   27.1251 C   0  0  0  0  0  0  0  0  0  0  0  0
    8.9719   -8.4310   27.6575 C   0  0  0  0  0  0  0  0  0  0  0  0
   -0.2719   -9.5596   16.5063 C   0  0  0  0  0  0  0  0  0  0  0  0
    4.5622   -7.3319   26.7049 C   0  0  0  0  0  0  0  0  0  0  0  0
    2.9010  -10.2912   15.6373 C   0  0  0  0  0  0  0  0  0  0  0  0
    5.3007   -5.9055   28.3131 C   0  0  0  0  0  0  0  0  0  0  0  0
    7.0731   -7.6163   27.4626 C   0  0  0  0  0  0  0  0  0  0  0  0
    0.8171   -5.2604   27.2118 C   0  0  0  0  0  0  0  0  0  0  0  0
    3.3457   -5.1016   27.1536 C   0  0  0  0  0  0  0  0  0  0  0  0
    0.9690   -4.5448   27.3613 He  0  0  0  0  0  0  0  0  0  0  0  0
    7.1139   -6.1817   27.6567 He  0  0  0  0  0  0  0  0  0  0  0  0
    0.3280  -12.2406   13.8537 He  0  0  0  0  0  0  0  0  0  0  0  0
    8.8240   -7.7627   27.2548 He  0  0  0  0  0  0  0  0  0  0  0  0
    1.9873  -10.5254   14.8150 He  0  0  0  0  0  0  0  0  0  0  0  0
  1  3  4  0
  1 16  2  0
  1 18  3  0
  1 21  4  0
  1 22  4  0
  2  3  1  0
  2  7  1  0
  2  9  4  0
  2 13  4  0
  2 16  1  0
  2 20  4  0
  3  8  4  0
  3 11  4  0
  3 14  4  0
  3 20  2  0
  3 21  4  0
  4 11  4  0
  5 11  4  0
  5 15  4  0
  6 11  1  0
  6 23  4  0
  7  8  4  0
  7 12  4  0
  7 14  3  0
  7 16  2  0
  8 17  1  0
  8 21  4  0
  9 10  1  0
 10 13  2  0
 10 15  2  0
 10 22  1  0
 13 20  2  0
 14 16  1  0
 14 21  4  0
 15 23  4  0
 18 21  1  0
 18 23  1  0
 19 22  1  0
 19 23  4  0
 20 21  4  0
 21 23  3  0
M  END
$$$$

 Created by Python create_sdf_string function

 28 51  0  0  0  0  0  0  0  0999 V2000
    5.9328   -8.1890   26.9488 C   0  0  0  0  0  0  0  0  0  0  0  0
    2.2771   -5.5799   27.3773 C   0  0  0  0  0  0  0  0  0  0  0  0
   -0.4369  -10.6804   14.2281 N   0  0  0  0  0  0  0  0  0  0  0  0
    4.4359   -5.9789   26.7983 C   0  0  0  0  0  0  0  0  0  0  0  0
    1.7648  -11.6896   13.9608 C   0  0  0  0  0  0  0  0  0  0  0  0
    9.0210   -8.9934   29.2309 O   0  0  0  0  0  0  0  0  0  0  0  0
    0.9936   -4.3601   26.4753 Cl  0  0  0  0  0  0  0  0  0  0  0  0
    0.5042  -10.2416   15.1360 C   0  0  0  0  0  0  0  0  0  0  0  0
   -1.7683   -5.1035   27.1234 O   0  0  0  0  0  0  0  0  0  0  0  0
   -0.4553   -5.9749   27.3921 N   0  0  0  0  0  0  0  0  0  0  0  0
    2.9439  -12.5987   13.3880 C   0  0  0  0  0  0  0  0  0  0  0  0
    0.0780  -12.8319   13.3019 N   0  0  0  0  0  0  0  0  0  0  0  0
   -0.1971   -6.1976   28.7845 O   0  0  0  0  0  0  0  0  0  0  0  0
    9.9554   -6.9344   27.8552 C   0  0  0  0  0  0  0  0  0  0  0  0
    7.0163   -6.7511   27.7270 C   0  0  0  0  0  0  0  0  0  0  0  0
    3.6000   -4.0306   26.3836 C   0  0  0  0  0  0  0  0  0  0  0  0
    8.9107   -8.0554   28.1682 C   0  0  0  0  0  0  0  0  0  0  0  0
    0.4721  -12.1659   13.3040 C   0  0  0  0  0  0  0  0  0  0  0  0
    7.9000   -7.4768   27.0438 N   0  0  0  0  0  0  0  0  0  0  0  0
    1.3116  -10.8251   15.1591 C   0  0  0  0  0  0  0  0  0  0  0  0
    2.8806   -9.5933   15.6192 C   0  0  0  0  0  0  0  0  0  0  0  0
    5.9148   -5.6022   27.6765 C   0  0  0  0  0  0  0  0  0  0  0  0
    7.4068   -7.3957   27.3665 C   0  0  0  0  0  0  0  0  0  0  0  0
    1.1884   -5.4212   27.4321 O   0  0  0  0  0  0  0  0  0  0  0  0
    3.0484   -5.6520   27.1312 C   0  0  0  0  0  0  0  0  0  0  0  0
    2.6168   -3.1963   26.3809 He  0  0  0  0  0  0  0  0  0  0  0  0
    0.1655   -9.4652   16.0790 He  0  0  0  0  0  0  0  0  0  0  0  0
    4.8168   -7.5405   26.6357 He  0  0  0  0  0  0  0  0  0  0  0  0
  1  3  4  0
  1 19  2  0
  1 23  4  0
  2  3  2  0
  2 23  2  0
  2 24  4  0
  2 25  4  0
  3  4  1  0
  3  9  4  0
  3 11  4  0
  4  9  4  0
  4 17  4  0
  4 25  1  0
  5  7  4  0
  5 11  1  0
  5 12  4  0
  5 16  1  0
  5 18  4  0
  5 21  2  0
  6  7  2  0
  6 13  3  0
  6 17  2  0
  7 22  3  0
  7 24  4  0
  8 13  2  0
  8 15  1  0
  8 20  4  0
  9 10  1  0
  9 13  1  0
 10 12  4  0
 10 13  2  0
 10 24  1  0
 11 18  3  0
 12 18  2  0
 12 25  2  0
 14 17  1  0
 15 18  1  0
 15 20  2  0
 15 22  4  0
 15 23  4  0
 15 25  3  0
 16 25  3  0
 17 18  1  0
 17 19  1  0
 17 23  3  0
 17 24  2  0
 17 25  2  0
 19 23  1  0
 20 21  1  0
 20 24  4  0
 22 23  2  0
M  END
$$$$

 Created by Python create_sdf_string function

 28 50  0  0  0  0  0  0  0  0999 V2000
    6.0331   -8.2080   26.9517 C   0  0  0  0  0  0  0  0  0  0  0  0
    1.3937   -5.8450   27.3901 C   0  0  0  0  0  0  0  0  0  0  0  0
    4.5631   -6.5931   26.7868 C   0  0  0  0  0  0  0  0  0  0  0  0
    2.1575   -3.2092   26.4895 C   0  0  0  0  0  0  0  0  0  0  0  0
    1.8191  -11.1364   14.1315 C   0  0  0  0  0  0  0  0  0  0  0  0
    8.6982   -8.8650   29.1783 O   0  0  0  0  0  0  0  0  0  0  0  0
    1.0694   -4.5533   26.5758 C   0  0  0  0  0  0  0  0  0  0  0  0
   -1.4216   -5.2221   27.2741 O   0  0  0  0  0  0  0  0  0  0  0  0
   -0.1665   -5.4613   27.7708 N   0  0  0  0  0  0  0  0  0  0  0  0
    2.5216  -12.7251   13.3217 C   0  0  0  0  0  0  0  0  0  0  0  0
   -0.2294  -12.8653   12.9144 N   0  0  0  0  0  0  0  0  0  0  0  0
   -0.6210   -6.6143   28.6744 B   0  0  0  0  0  0  0  0  0  0  0  0
   10.3166   -7.2114   28.2356 C   0  0  0  0  0  0  0  0  0  0  0  0
    7.1516   -6.2582   27.6045 C   0  0  0  0  0  0  0  0  0  0  0  0
    3.4830   -4.3174   26.3320 C   0  0  0  0  0  0  0  0  0  0  0  0
    9.4285   -7.6125   28.2055 C   0  0  0  0  0  0  0  0  0  0  0  0
   -0.2188   -8.8236   16.0059 C   0  0  0  0  0  0  0  0  0  0  0  0
    0.1018  -12.1062   13.7941 C   0  0  0  0  0  0  0  0  0  0  0  0
    4.5721   -7.3810   27.0953 C   0  0  0  0  0  0  0  0  0  0  0  0
    1.7799  -10.7042   14.9266 C   0  0  0  0  0  0  0  0  0  0  0  0
    2.8489  -10.0481   15.2185 C   0  0  0  0  0  0  0  0  0  0  0  0
    7.0481   -7.4317   27.0324 C   0  0  0  0  0  0  0  0  0  0  0  0
    1.0794   -5.2298   27.2252 C   0  0  0  0  0  0  0  0  0  0  0  0
    4.0131   -5.2320   27.0100 S   0  0  0  0  0  0  0  0  0  0  0  0
   -0.2605  -10.7974   14.2287 He  0  0  0  0  0  0  0  0  0  0  0  0
    0.2927  -10.3420   14.7868 He  0  0  0  0  0  0  0  0  0  0  0  0
    7.9341   -8.3101   27.1138 He  0  0  0  0  0  0  0  0  0  0  0  0
    5.7551   -5.9956   26.9062 He  0  0  0  0  0  0  0  0  0  0  0  0
  1  5  2  0
  1 18  3  0
  1 22  4  0
  2 17  2  0
  2 20  2  0
  2 23  4  0
  2 24  4  0
  3  7  3  0
  3  8  2  0
  3 19  4  0
  3 24  1  0
  4  7  4  0
  4 13  2  0
  4 15  4  0
  4 23  1  0
  5 10  1  0
  5 15  4  0
  5 16  3  0
  5 18  4  0
  5 19  2  0
  5 20  4  0
  6 13  3  0
  6 16  2  0
  6 19  4  0
  7 23  4  0
  8 11  4  0
  8 15  4  0
  8 19  3  0
  8 20  3  0
  8 24  3  0
  9 12  2  0
  9 23  1  0
 10 22  2  0
 10 24  1  0
 11 18  2  0
 12 14  2  0
 12 24  4  0
 13 16  1  0
 14 19  3  0
 14 22  4  0
 15 19  1  0
 15 20  3  0
 15 21  3  0
 15 24  4  0
 16 19  2  0
 16 22  2  0
 18 22  4  0
 20 21  1  0
 20 24  3  0
 22 23  3  0
M  END
$$$$

 Created by Python create_sdf_string function

 28 47  0  0  0  0  0  0  0  0999 V2000
    6.3118   -8.1061   27.0036 C   0  0  0  0  0  0  0  0  0  0  0  0
    2.1886   -6.2379   27.3959 C   0  0  0  0  0  0  0  0  0  0  0  0
   -0.4666  -10.9727   14.4702 O   0  0  0  0  0  0  0  0  0  0  0  0
    4.6249   -5.8347   27.0060 C   0  0  0  0  0  0  0  0  0  0  0  0
    2.2573   -3.3800   26.4928 C   0  0  0  0  0  0  0  0  0  0  0  0
    1.7102  -11.5762   13.6669 C   0  0  0  0  0  0  0  0  0  0  0  0
    8.4918   -8.3366   29.5408 O   0  0  0  0  0  0  0  0  0  0  0  0
    0.9412   -3.7253   26.9801 C   0  0  0  0  0  0  0  0  0  0  0  0
    0.2092   -9.8205   15.3649 N   0  0  0  0  0  0  0  0  0  0  0  0
   -1.5328   -5.0696   27.2510 O   0  0  0  0  0  0  0  0  0  0  0  0
   -0.1900   -6.2788   27.8681 N   0  0  0  0  0  0  0  0  0  0  0  0
    2.7625  -12.1975   13.1338 C   0  0  0  0  0  0  0  0  0  0  0  0
   -0.1016  -12.4964   13.0096 N   0  0  0  0  0  0  0  0  0  0  0  0
   10.2125   -7.1599   28.1206 C   0  0  0  0  0  0  0  0  0  0  0  0
    7.2284   -6.5317   27.5147 C   0  0  0  0  0  0  0  0  0  0  0  0
    3.6073   -3.8818   26.3240 C   0  0  0  0  0  0  0  0  0  0  0  0
    9.4473   -7.9900   28.2733 C   0  0  0  0  0  0  0  0  0  0  0  0
   -0.0983   -8.5679   16.2188 C   0  0  0  0  0  0  0  0  0  0  0  0
    0.1260  -12.1384   13.2242 C   0  0  0  0  0  0  0  0  0  0  0  0
    8.6073   -8.3484   27.5089 N   0  0  0  0  0  0  0  0  0  0  0  0
    1.6163  -10.5637   14.3808 C   0  0  0  0  0  0  0  0  0  0  0  0
    2.3766   -9.8303   15.6621 C   0  0  0  0  0  0  0  0  0  0  0  0
    5.9506   -5.5719   27.8663 C   0  0  0  0  0  0  0  0  0  0  0  0
    7.1090   -7.7264   27.5937 C   0  0  0  0  0  0  0  0  0  0  0  0
    0.9217   -5.0983   27.3399 C   0  0  0  0  0  0  0  0  0  0  0  0
    3.6670   -5.5171   27.0344 I   0  0  0  0  0  0  0  0  0  0  0  0
   -0.8744   -6.6989   28.6772 He  0  0  0  0  0  0  0  0  0  0  0  0
    4.7889   -7.6899   26.8298 He  0  0  0  0  0  0  0  0  0  0  0  0
  1  2  1  0
  1 14  1  0
  1 24  4  0
  2 14  4  0
  2 16  4  0
  2 22  4  0
  2 25  4  0
  2 26  4  0
  3  7  2  0
  3  9  4  0
  3 18  1  0
  3 26  4  0
  4  7  3  0
  4 16  3  0
  4 23  4  0
  5  8  4  0
  5 13  4  0
  5 16  4  0
  6  8  4  0
  6 10  2  0
  6 12  2  0
  6 15  1  0
  6 19  1  0
  6 21  4  0
  7 17  2  0
  8 25  4  0
  9 10  3  0
  9 17  2  0
  9 18  1  0
  9 21  4  0
  9 22  2  0
 10 11  1  0
 11 12  1  0
 11 17  3  0
 11 25  1  0
 12 19  4  0
 13 14  1  0
 13 19  4  0
 14 17  1  0
 15 18  1  0
 15 23  3  0
 15 24  4  0
 16 20  4  0
 17 20  1  0
 18 23  4  0
 21 22  1  0
 21 23  1  0
M  END
$$$$

 Created by Python create_sdf_string function

 28 39  0  0  0  0  0  0  0  0999 V2000
   -0.3898  -10.8712   14.5694 O   0  0  0  0  0  0  0  0  0  0  0  0
    4.5514   -6.4828   27.2112 C   0  0  0  0  0  0  0  0  0  0  0  0
    1.9167   -3.4532   26.3088 C   0  0  0  0  0  0  0  0  0  0  0  0
    1.5454  -11.2603   14.1759 C   0  0  0  0  0  0  0  0  0  0  0  0
    8.5475   -8.5874   29.8278 O   0  0  0  0  0  0  0  0  0  0  0  0
    1.0614   -3.9143   27.1558 P   0  0  0  0  0  0  0  0  0  0  0  0
    0.5477   -9.8806   15.2808 N   0  0  0  0  0  0  0  0  0  0  0  0
   -1.2589   -5.1164   26.7923 O   0  0  0  0  0  0  0  0  0  0  0  0
   -0.3400   -5.7328   27.5795 N   0  0  0  0  0  0  0  0  0  0  0  0
    0.1609  -12.7958   12.9188 N   0  0  0  0  0  0  0  0  0  0  0  0
    0.0884   -6.9189   28.2118 O   0  0  0  0  0  0  0  0  0  0  0  0
   10.0416   -6.9665   27.5342 O   0  0  0  0  0  0  0  0  0  0  0  0
    6.7416   -6.4651   27.8509 C   0  0  0  0  0  0  0  0  0  0  0  0
    3.4846   -4.2180   27.0484 C   0  0  0  0  0  0  0  0  0  0  0  0
    9.1286   -7.9613   28.3806 C   0  0  0  0  0  0  0  0  0  0  0  0
    0.5126   -8.6568   15.9211 C   0  0  0  0  0  0  0  0  0  0  0  0
    0.0252  -12.1606   14.0611 C   0  0  0  0  0  0  0  0  0  0  0  0
    8.1935   -8.1989   27.5033 N   0  0  0  0  0  0  0  0  0  0  0  0
    4.9290   -6.8582   27.3140 C   0  0  0  0  0  0  0  0  0  0  0  0
    1.8375  -10.3657   14.3055 F   0  0  0  0  0  0  0  0  0  0  0  0
    5.3199   -5.1335   27.7416 C   0  0  0  0  0  0  0  0  0  0  0  0
    3.3688   -5.4666   26.9605 C   0  0  0  0  0  0  0  0  0  0  0  0
    5.8121   -7.9200   26.9944 He  0  0  0  0  0  0  0  0  0  0  0  0
    2.2681   -5.9349   27.4546 He  0  0  0  0  0  0  0  0  0  0  0  0
    2.5260  -12.4844   13.4635 He  0  0  0  0  0  0  0  0  0  0  0  0
    3.0303   -9.2882   15.8852 He  0  0  0  0  0  0  0  0  0  0  0  0
    6.9752   -7.4270   26.8331 He  0  0  0  0  0  0  0  0  0  0  0  0
    0.9945   -5.1760   27.5285 He  0  0  0  0  0  0  0  0  0  0  0  0
  1  3  1  0
  1  4  2  0
  1  7  4  0
  1  8  2  0
  1  9  2  0
  1 11  1  0
  1 16  1  0
  1 17  4  0
  2 21  4  0
  3 13  2  0
  3 14  4  0
  4 17  4  0
  4 18  3  0
  4 19  1  0
  5 11  2  0
  5 15  2  0
  5 20  2  0
  6 10  2  0
  6 12  4  0
  7 12  3  0
  7 15  1  0
  7 16  4  0
  7 20  4  0
  8  9  1  0
  8 20  4  0
  9 10  2  0
  9 11  2  0
  9 15  4  0
 10 17  2  0
 11 12  3  0
 11 21  3  0
 12 15  1  0
 13 17  1  0
 13 21  4  0
 14 19  3  0
 14 22  4  0
 15 16  2  0
 15 18  1  0
 15 20  2  0
M  END
$$$$

 Created by Python create_sdf_string function

 28 40  0  0  0  0  0  0  0  0999 V2000
    1.7646   -5.8190   27.5567 C   0  0  0  0  0  0  0  0  0  0  0  0
   -0.4343  -10.8161   14.5003 N   0  0  0  0  0  0  0  0  0  0  0  0
    4.4639   -6.1730   27.3443 C   0  0  0  0  0  0  0  0  0  0  0  0
    1.9077   -3.1398   26.8201 C   0  0  0  0  0  0  0  0  0  0  0  0
    1.8245  -11.4849   14.0144 C   0  0  0  0  0  0  0  0  0  0  0  0
    8.7662   -8.5572   29.5652 O   0  0  0  0  0  0  0  0  0  0  0  0
    1.3146   -3.6405   26.5674 C   0  0  0  0  0  0  0  0  0  0  0  0
    0.5962   -9.7499   15.3112 N   0  0  0  0  0  0  0  0  0  0  0  0
   -1.1910   -5.9342   26.7988 O   0  0  0  0  0  0  0  0  0  0  0  0
   -0.3349   -5.6844   27.8002 N   0  0  0  0  0  0  0  0  0  0  0  0
   -0.2863  -13.0356   13.3568 N   0  0  0  0  0  0  0  0  0  0  0  0
   -0.1497   -6.6310   28.1690 O   0  0  0  0  0  0  0  0  0  0  0  0
    9.5783   -7.4094   28.1495 C   0  0  0  0  0  0  0  0  0  0  0  0
    6.6162   -6.0102   27.9396 C   0  0  0  0  0  0  0  0  0  0  0  0
    3.8060   -3.9916   27.2339 C   0  0  0  0  0  0  0  0  0  0  0  0
    9.1164   -7.7846   28.5948 C   0  0  0  0  0  0  0  0  0  0  0  0
   -0.2254   -8.5787   15.7554 C   0  0  0  0  0  0  0  0  0  0  0  0
    0.2031  -11.5585   14.4492 C   0  0  0  0  0  0  0  0  0  0  0  0
    8.0351   -8.2622   27.5879 N   0  0  0  0  0  0  0  0  0  0  0  0
    2.0282  -10.6484   15.0750 C   0  0  0  0  0  0  0  0  0  0  0  0
    2.8581   -9.2174   15.2561 C   0  0  0  0  0  0  0  0  0  0  0  0
    5.5593   -5.6488   27.4771 C   0  0  0  0  0  0  0  0  0  0  0  0
    6.7476   -7.4190   27.2229 C   0  0  0  0  0  0  0  0  0  0  0  0
    0.7638   -5.5862   26.9035 N   0  0  0  0  0  0  0  0  0  0  0  0
    3.2508   -5.5777   27.6204 C   0  0  0  0  0  0  0  0  0  0  0  0
    5.8140   -8.6018   26.9748 He  0  0  0  0  0  0  0  0  0  0  0  0
    2.8242  -12.2139   13.7207 He  0  0  0  0  0  0  0  0  0  0  0  0
    4.2824   -6.9824   27.2967 He  0  0  0  0  0  0  0  0  0  0  0  0
  1  5  4  0
  1 11  4  0
  1 24  4  0
  1 25  4  0
  2  6  2  0
  2  8  4  0
  2 18  4  0
  3 19  3  0
  3 21  2  0
  3 22  4  0
  3 25  1  0
  4  5  4  0
  4  7  4  0
  5 11  1  0
  5 17  4  0
  5 20  4  0
  6  8  1  0
  6 20  3  0
  6 22  3  0
  7 24  4  0
  8 17  1  0
  8 18  3  0
  8 20  4  0
  9 10  1  0
  9 15  3  0
  9 22  1  0
 10 12  1  0
 10 18  4  0
 10 24  1  0
 11 13  1  0
 11 18  4  0
 13 15  2  0
 13 16  1  0
 13 19  3  0
 14 17  4  0
 14 23  4  0
 17 20  3  0
 19 23  1  0
 20 21  1  0
 21 22  2  0
M  END
$$$$

 Created by Python create_sdf_string function

 28 46  0  0  0  0  0  0  0  0999 V2000
    5.6843   -8.5344   26.8849 C   0  0  0  0  0  0  0  0  0  0  0  0
    1.9959   -5.9340   27.3156 C   0  0  0  0  0  0  0  0  0  0  0  0
   -0.5436  -11.1152   14.3672 N   0  0  0  0  0  0  0  0  0  0  0  0
    2.1903  -11.2670   13.8031 C   0  0  0  0  0  0  0  0  0  0  0  0
    8.9551   -8.6037   29.7295 O   0  0  0  0  0  0  0  0  0  0  0  0
    0.8884   -3.9054   27.0449 C   0  0  0  0  0  0  0  0  0  0  0  0
   -0.0309   -9.7520   15.3509 C   0  0  0  0  0  0  0  0  0  0  0  0
   -1.3562   -5.4525   26.7610 O   0  0  0  0  0  0  0  0  0  0  0  0
   -0.5725   -5.8218   27.1023 N   0  0  0  0  0  0  0  0  0  0  0  0
    2.8888  -12.1802   13.8491 O   0  0  0  0  0  0  0  0  0  0  0  0
   -0.2302  -12.8937   13.2915 N   0  0  0  0  0  0  0  0  0  0  0  0
   -0.6527   -6.8698   28.4504 N   0  0  0  0  0  0  0  0  0  0  0  0
    9.6182   -6.9793   27.9595 C   0  0  0  0  0  0  0  0  0  0  0  0
    6.4680   -6.0193   27.4913 C   0  0  0  0  0  0  0  0  0  0  0  0
    3.3293   -3.9319   27.3445 C   0  0  0  0  0  0  0  0  0  0  0  0
    9.2763   -8.2080   28.0742 C   0  0  0  0  0  0  0  0  0  0  0  0
    0.2448   -8.5681   15.9711 C   0  0  0  0  0  0  0  0  0  0  0  0
    0.2276  -12.2652   13.8418 C   0  0  0  0  0  0  0  0  0  0  0  0
    7.9533   -8.3933   27.4136 F   0  0  0  0  0  0  0  0  0  0  0  0
    4.2156   -7.2922   27.1065 C   0  0  0  0  0  0  0  0  0  0  0  0
    1.8683  -10.5450   15.3382 C   0  0  0  0  0  0  0  0  0  0  0  0
    2.9621   -9.2789   15.3696 C   0  0  0  0  0  0  0  0  0  0  0  0
    6.9483   -7.6956   27.2511 C   0  0  0  0  0  0  0  0  0  0  0  0
    0.8551   -5.3734   27.3905 S   0  0  0  0  0  0  0  0  0  0  0  0
    3.3793   -5.0345   27.2113 C   0  0  0  0  0  0  0  0  0  0  0  0
    4.5936   -6.0606   27.1231 He  0  0  0  0  0  0  0  0  0  0  0  0
    2.2187   -3.1791   26.7995 He  0  0  0  0  0  0  0  0  0  0  0  0
    5.7953   -5.5271   28.0276 He  0  0  0  0  0  0  0  0  0  0  0  0
  1  8  4  0
  1 13  3  0
  1 15  1  0
  1 20  4  0
  1 23  4  0
  2  5  1  0
  2  7  1  0
  2 21  1  0
  2 24  1  0
  2 25  4  0
  3  9  1  0
  3 10  2  0
  3 20  4  0
  3 21  2  0
  3 24  2  0
  4 10  2  0
  4 18  4  0
  4 21  4  0
  4 23  2  0
  5 16  2  0
  6  7  2  0
  6  8  4  0
  6 24  4  0
  7 16  4  0
  7 17  1  0
  7 21  4  0
  8  9  2  0
  8 16  4  0
  8 20  3  0
  9 23  2  0
  9 24  1  0
 10 14  4  0
 10 22  2  0
 11 12  1  0
 11 18  1  0
 11 24  2  0
 11 25  1  0
 13 14  3  0
 13 16  1  0
 13 20  3  0
 14 18  1  0
 14 23  4  0
 15 25  4  0
 16 19  1  0
 18 25  2  0
 19 23  1  0
M  END
$$$$

 Created by Python create_sdf_string function

 28 49  0  0  0  0  0  0  0  0999 V2000
    5.7206   -8.4011   27.2621 P   0  0  0  0  0  0  0  0  0  0  0  0
    2.4900   -6.0468   27.2848 C   0  0  0  0  0  0  0  0  0  0  0  0
   -0.3758  -11.2170   14.6363 N   0  0  0  0  0  0  0  0  0  0  0  0
    4.0965   -5.9821   26.9167 C   0  0  0  0  0  0  0  0  0  0  0  0
    2.3329   -3.0097   26.8531 C   0  0  0  0  0  0  0  0  0  0  0  0
    1.6100  -11.6907   14.0838 F   0  0  0  0  0  0  0  0  0  0  0  0
    8.9562   -8.6510   29.2049 O   0  0  0  0  0  0  0  0  0  0  0  0
    0.7970   -3.7138   26.9297 C   0  0  0  0  0  0  0  0  0  0  0  0
    0.5529   -9.9659   15.2749 C   0  0  0  0  0  0  0  0  0  0  0  0
   -1.1358   -5.4955   26.5903 O   0  0  0  0  0  0  0  0  0  0  0  0
    2.8513  -12.5510   13.8524 O   0  0  0  0  0  0  0  0  0  0  0  0
   -0.3526  -12.7580   13.3003 N   0  0  0  0  0  0  0  0  0  0  0  0
   -0.6604   -6.7555   28.4128 N   0  0  0  0  0  0  0  0  0  0  0  0
    9.6598   -7.1707   27.6632 C   0  0  0  0  0  0  0  0  0  0  0  0
    6.7280   -6.4056   28.0655 C   0  0  0  0  0  0  0  0  0  0  0  0
    3.1408   -3.9256   27.4144 C   0  0  0  0  0  0  0  0  0  0  0  0
    8.8684   -7.8613   28.1054 C   0  0  0  0  0  0  0  0  0  0  0  0
   -0.0326   -8.7053   15.5305 C   0  0  0  0  0  0  0  0  0  0  0  0
    0.5717  -11.8065   14.1432 F   0  0  0  0  0  0  0  0  0  0  0  0
    1.7533   -9.9704   14.6290 C   0  0  0  0  0  0  0  0  0  0  0  0
    2.9291   -9.3704   15.2200 C   0  0  0  0  0  0  0  0  0  0  0  0
    5.8011   -5.2162   27.7181 C   0  0  0  0  0  0  0  0  0  0  0  0
    7.0764   -7.3371   27.3595 C   0  0  0  0  0  0  0  0  0  0  0  0
    0.6603   -4.9720   27.4779 C   0  0  0  0  0  0  0  0  0  0  0  0
    3.3700   -5.3311   27.0847 C   0  0  0  0  0  0  0  0  0  0  0  0
   -0.1336   -5.7101   27.4925 He  0  0  0  0  0  0  0  0  0  0  0  0
    7.7040   -8.4477   27.3219 He  0  0  0  0  0  0  0  0  0  0  0  0
    4.2913   -7.8215   26.9405 He  0  0  0  0  0  0  0  0  0  0  0  0
  1 23  4  0
  2  4  3  0
  2 17  3  0
  2 20  3  0
  2 22  1  0
  2 24  4  0
  2 25  4  0
  3  8  4  0
  3  9  4  0
  3 19  4  0
  4 22  4  0
  5  6  1  0
  5  8  4  0
  5 11  4  0
  5 14  3  0
  5 16  4  0
  6  8  1  0
  6 11  2  0
  6 16  2  0
  6 18  3  0
  6 19  4  0
  6 20  4  0
  6 21  4  0
  7  8  3  0
  7 17  4  0
  8 20  2  0
  8 22  2  0
  9 18  1  0
  9 20  4  0
 11 22  3  0
 12 17  1  0
 12 19  1  0
 12 20  3  0
 12 25  3  0
 13 15  3  0
 13 18  3  0
 13 25  2  0
 14 17  1  0
 14 24  2  0
 15 16  4  0
 15 22  4  0
 15 23  1  0
 16 21  3  0
 16 25  4  0
 17 18  1  0
 18 19  3  0
 18 24  2  0
 19 21  1  0
 20 21  1  0
M  END
$$$$

 Created by Python create_sdf_string function

 28 46  0  0  0  0  0  0  0  0999 V2000
    5.3326   -7.9721   26.6822 C   0  0  0  0  0  0  0  0  0  0  0  0
    1.9625   -5.9140   27.3107 C   0  0  0  0  0  0  0  0  0  0  0  0
   -0.1091  -10.8736   14.8965 N   0  0  0  0  0  0  0  0  0  0  0  0
    4.7598   -6.3292   27.2787 C   0  0  0  0  0  0  0  0  0  0  0  0
    1.9544   -2.9061   26.8439 C   0  0  0  0  0  0  0  0  0  0  0  0
    2.1008  -11.6432   14.2698 C   0  0  0  0  0  0  0  0  0  0  0  0
    0.9220   -3.4121   26.8637 O   0  0  0  0  0  0  0  0  0  0  0  0
    0.5955   -9.8513   14.9849 C   0  0  0  0  0  0  0  0  0  0  0  0
   -1.3312   -5.2947   26.4616 O   0  0  0  0  0  0  0  0  0  0  0  0
   -0.4913   -5.5672   27.2117 C   0  0  0  0  0  0  0  0  0  0  0  0
    2.8466  -12.3724   13.9732 O   0  0  0  0  0  0  0  0  0  0  0  0
   -0.2383  -12.6826   13.4434 F   0  0  0  0  0  0  0  0  0  0  0  0
   -0.2328   -6.4435   28.2201 N   0  0  0  0  0  0  0  0  0  0  0  0
    9.6914   -7.2059   27.6154 C   0  0  0  0  0  0  0  0  0  0  0  0
    7.0870   -6.2940   28.1122 P   0  0  0  0  0  0  0  0  0  0  0  0
    3.3404   -3.9758   26.7260 C   0  0  0  0  0  0  0  0  0  0  0  0
    9.1612   -7.9183   27.8020 C   0  0  0  0  0  0  0  0  0  0  0  0
   -0.2022   -9.0844   15.3853 C   0  0  0  0  0  0  0  0  0  0  0  0
    0.2383  -11.7443   13.7790 N   0  0  0  0  0  0  0  0  0  0  0  0
    7.9759   -8.5992   27.5084 N   0  0  0  0  0  0  0  0  0  0  0  0
    4.4507   -7.2360   27.0957 O   0  0  0  0  0  0  0  0  0  0  0  0
    2.5632   -9.5790   14.9874 S   0  0  0  0  0  0  0  0  0  0  0  0
    5.9275   -5.5777   28.0355 C   0  0  0  0  0  0  0  0  0  0  0  0
    6.6993   -7.7088   27.3394 C   0  0  0  0  0  0  0  0  0  0  0  0
    0.8785   -5.3264   27.3874 C   0  0  0  0  0  0  0  0  0  0  0  0
    9.1560   -8.6683   29.4523 He  0  0  0  0  0  0  0  0  0  0  0  0
    1.9311  -10.1264   14.9816 He  0  0  0  0  0  0  0  0  0  0  0  0
    3.2037   -5.3498   27.1177 He  0  0  0  0  0  0  0  0  0  0  0  0
  1 11  4  0
  1 13  2  0
  1 24  4  0
  3  8  4  0
  3 10  1  0
  4 11  1  0
  4 23  4  0
  5  6  4  0
  5  7  4  0
  5  8  4  0
  5 16  4  0
  5 21  3  0
  5 22  3  0
  6 11  2  0
  6 13  1  0
  6 19  4  0
  6 21  3  0
  7 19  2  0
  7 25  4  0
  8 16  2  0
  8 18  1  0
  8 19  1  0
  9 10  2  0
  9 11  2  0
  9 15  4  0
  9 23  3  0
 10 13  1  0
 10 18  4  0
 10 25  1  0
 11 18  4  0
 12 19  1  0
 12 20  1  0
 12 21  2  0
 12 25  2  0
 13 17  3  0
 14 16  4  0
 14 17  1  0
 14 19  2  0
 14 25  4  0
 15 19  1  0
 15 23  4  0
 15 24  4  0
 17 20  1  0
 19 20  3  0
 20 24  1  0
 21 23  3  0
M  END
$$$$

 Created by Python create_sdf_string function

 28 32  0  0  0  0  0  0  0  0999 V2000
    5.4998   -8.0073   27.0127 Cl  0  0  0  0  0  0  0  0  0  0  0  0
    1.8973   -6.0207   27.0691 C   0  0  0  0  0  0  0  0  0  0  0  0
   -0.2498  -11.0279   14.5597 N   0  0  0  0  0  0  0  0  0  0  0  0
    4.5480   -6.1323   27.0753 C   0  0  0  0  0  0  0  0  0  0  0  0
    2.2554   -2.9949   26.6911 C   0  0  0  0  0  0  0  0  0  0  0  0
    2.1959  -11.6599   14.4755 C   0  0  0  0  0  0  0  0  0  0  0  0
    9.0288   -8.8925   29.7444 O   0  0  0  0  0  0  0  0  0  0  0  0
    1.0858   -3.4448   27.0185 C   0  0  0  0  0  0  0  0  0  0  0  0
    0.8243   -9.8793   14.9749 C   0  0  0  0  0  0  0  0  0  0  0  0
   -0.9660   -5.3764   26.3453 O   0  0  0  0  0  0  0  0  0  0  0  0
    2.6433  -12.1574   13.6970 O   0  0  0  0  0  0  0  0  0  0  0  0
   -0.0123  -13.0565   13.4502 C   0  0  0  0  0  0  0  0  0  0  0  0
   -0.4776   -6.3999   28.2987 N   0  0  0  0  0  0  0  0  0  0  0  0
   10.0066   -6.8760   27.5728 C   0  0  0  0  0  0  0  0  0  0  0  0
    6.8239   -6.3201   27.7529 C   0  0  0  0  0  0  0  0  0  0  0  0
    3.4158   -3.8540   26.8615 C   0  0  0  0  0  0  0  0  0  0  0  0
    8.9193   -8.2438   28.0087 C   0  0  0  0  0  0  0  0  0  0  0  0
    0.1285   -8.8999   15.5408 C   0  0  0  0  0  0  0  0  0  0  0  0
    4.8379   -7.2897   26.7343 C   0  0  0  0  0  0  0  0  0  0  0  0
    1.8030  -10.0030   14.7463 S   0  0  0  0  0  0  0  0  0  0  0  0
    2.9108   -9.4116   15.2449 C   0  0  0  0  0  0  0  0  0  0  0  0
    0.7459   -5.0326   27.3133 C   0  0  0  0  0  0  0  0  0  0  0  0
    3.2369   -5.3206   27.0396 C   0  0  0  0  0  0  0  0  0  0  0  0
    0.2329   -5.8287   27.4986 He  0  0  0  0  0  0  0  0  0  0  0  0
    0.3809  -11.9572   13.9883 He  0  0  0  0  0  0  0  0  0  0  0  0
    7.9993   -8.5610   27.5837 He  0  0  0  0  0  0  0  0  0  0  0  0
    5.3221   -5.8266   27.6873 He  0  0  0  0  0  0  0  0  0  0  0  0
    6.9980   -7.5791   27.4893 He  0  0  0  0  0  0  0  0  0  0  0  0
  1  8  1  0
  1 19  4  0
  2 12  3  0
  2 19  1  0
  2 23  4  0
  3  9  3  0
  3 10  2  0
  3 18  3  0
  4 19  4  0
  5  8  4  0
  5 13  1  0
  5 16  4  0
  6 11  2  0
  6 16  4  0
  6 20  4  0
  7 17  2  0
  8 10  2  0
  8 18  1  0
  8 22  4  0
  9 13  3  0
  9 18  4  0
  9 20  4  0
  9 22  3  0
 10 13  4  0
 11 13  4  0
 12 20  1  0
 14 17  1  0
 14 18  3  0
 14 20  4  0
 15 18  4  0
 16 23  4  0
 20 22  1  0
M  END
$$$$

 Created by Python create_sdf_string function

 28 40  0  0  0  0  0  0  0  0999 V2000
    5.9159   -7.9688   26.7268 C   0  0  0  0  0  0  0  0  0  0  0  0
    2.5131   -5.7296   27.2050 C   0  0  0  0  0  0  0  0  0  0  0  0
   -0.2902  -10.4604   14.5149 N   0  0  0  0  0  0  0  0  0  0  0  0
    4.3241   -5.9553   26.9270 C   0  0  0  0  0  0  0  0  0  0  0  0
    1.8398   -3.2922   27.0397 C   0  0  0  0  0  0  0  0  0  0  0  0
    2.1456  -11.4207   14.2980 C   0  0  0  0  0  0  0  0  0  0  0  0
    9.3078   -8.8416   29.2630 O   0  0  0  0  0  0  0  0  0  0  0  0
    0.5372   -9.7410   14.9856 C   0  0  0  0  0  0  0  0  0  0  0  0
   -1.3872   -5.2265   26.4109 O   0  0  0  0  0  0  0  0  0  0  0  0
   -0.1927   -5.7774   27.1867 C   0  0  0  0  0  0  0  0  0  0  0  0
    2.9172  -11.9373   13.9688 O   0  0  0  0  0  0  0  0  0  0  0  0
   -0.5989   -6.5494   28.6094 N   0  0  0  0  0  0  0  0  0  0  0  0
    9.7817   -7.3042   27.3821 C   0  0  0  0  0  0  0  0  0  0  0  0
    6.7275   -6.2943   27.8977 C   0  0  0  0  0  0  0  0  0  0  0  0
    9.1256   -8.1026   28.4690 C   0  0  0  0  0  0  0  0  0  0  0  0
    0.0340   -9.0057   15.4927 C   0  0  0  0  0  0  0  0  0  0  0  0
    0.3406  -11.5196   14.1310 N   0  0  0  0  0  0  0  0  0  0  0  0
    8.2863   -8.1720   27.2760 N   0  0  0  0  0  0  0  0  0  0  0  0
    4.1686   -7.4699   26.8466 C   0  0  0  0  0  0  0  0  0  0  0  0
    2.0852  -10.3464   14.8827 C   0  0  0  0  0  0  0  0  0  0  0  0
    2.7377   -9.5812   15.1943 C   0  0  0  0  0  0  0  0  0  0  0  0
    5.4152   -5.4445   27.6972 C   0  0  0  0  0  0  0  0  0  0  0  0
    1.0185   -4.8910   27.1914 C   0  0  0  0  0  0  0  0  0  0  0  0
    3.6815   -5.3984   26.9114 C   0  0  0  0  0  0  0  0  0  0  0  0
    1.1648   -3.5563   26.8556 He  0  0  0  0  0  0  0  0  0  0  0  0
   -0.2569  -13.2079   13.3349 He  0  0  0  0  0  0  0  0  0  0  0  0
    3.2198   -3.8304   26.9689 He  0  0  0  0  0  0  0  0  0  0  0  0
    6.4787   -7.8154   27.2324 He  0  0  0  0  0  0  0  0  0  0  0  0
  1  2  2  0
  1 22  3  0
  2 18  3  0
  2 20  1  0
  3  8  4  0
  3  9  3  0
  3 17  4  0
  3 21  4  0
  4 19  4  0
  4 22  4  0
  4 24  1  0
  5 10  4  0
  6 10  2  0
  6 11  2  0
  6 14  3  0
  6 15  3  0
  6 17  4  0
  6 20  4  0
  6 21  1  0
  7 11  4  0
  7 15  2  0
  7 20  1  0
  8 13  4  0
  8 16  1  0
  8 17  3  0
  8 20  4  0
  8 23  3  0
  9 10  2  0
  9 14  1  0
  9 16  1  0
 10 12  1  0
 10 14  3  0
 10 23  1  0
 11 18  2  0
 13 15  1  0
 14 18  3  0
 14 22  4  0
 15 18  2  0
 17 21  1  0
 20 21  1  0
M  END
$$$$

 Created by Python create_sdf_string function

 28 52  0  0  0  0  0  0  0  0999 V2000
    5.9016   -8.3530   26.7881 N   0  0  0  0  0  0  0  0  0  0  0  0
    2.4956   -5.7597   27.1136 C   0  0  0  0  0  0  0  0  0  0  0  0
   -0.6769  -11.0495   14.2912 F   0  0  0  0  0  0  0  0  0  0  0  0
    4.5022   -5.9491   27.1996 F   0  0  0  0  0  0  0  0  0  0  0  0
    2.2459   -2.8285   26.7550 C   0  0  0  0  0  0  0  0  0  0  0  0
    1.7116  -11.7200   14.0795 C   0  0  0  0  0  0  0  0  0  0  0  0
    9.2313   -8.9254   29.3154 N   0  0  0  0  0  0  0  0  0  0  0  0
    1.0178   -3.7633   26.8467 C   0  0  0  0  0  0  0  0  0  0  0  0
    0.2895   -9.8673   14.9825 C   0  0  0  0  0  0  0  0  0  0  0  0
   -1.1109   -5.0813   26.4400 O   0  0  0  0  0  0  0  0  0  0  0  0
   -0.1556   -5.8612   27.3265 C   0  0  0  0  0  0  0  0  0  0  0  0
    2.9271  -11.9761   13.9983 O   0  0  0  0  0  0  0  0  0  0  0  0
   -0.2697  -13.1156   13.0965 C   0  0  0  0  0  0  0  0  0  0  0  0
   -0.4795   -6.3768   28.5242 N   0  0  0  0  0  0  0  0  0  0  0  0
   10.1963   -7.4780   27.4031 C   0  0  0  0  0  0  0  0  0  0  0  0
    6.7884   -6.3310   27.9186 C   0  0  0  0  0  0  0  0  0  0  0  0
    3.2191   -3.9484   27.0550 C   0  0  0  0  0  0  0  0  0  0  0  0
    8.7819   -8.1340   28.3456 O   0  0  0  0  0  0  0  0  0  0  0  0
   -0.1064   -8.7957   15.6161 C   0  0  0  0  0  0  0  0  0  0  0  0
    0.3543  -11.8454   14.5792 N   0  0  0  0  0  0  0  0  0  0  0  0
    7.6938   -7.9384   27.3320 N   0  0  0  0  0  0  0  0  0  0  0  0
    4.4377   -7.2449   26.8396 C   0  0  0  0  0  0  0  0  0  0  0  0
    1.7889  -10.3752   14.6136 C   0  0  0  0  0  0  0  0  0  0  0  0
    2.9531   -9.2709   15.2663 C   0  0  0  0  0  0  0  0  0  0  0  0
    5.4735   -5.4648   27.7542 C   0  0  0  0  0  0  0  0  0  0  0  0
    6.4273   -7.6445   27.1066 C   0  0  0  0  0  0  0  0  0  0  0  0
    0.8081   -4.8131   27.1310 C   0  0  0  0  0  0  0  0  0  0  0  0
    3.2967   -5.4579   27.1179 C   0  0  0  0  0  0  0  0  0  0  0  0
  1 21  2  0
  1 22  4  0
  1 26  4  0
  2 13  3  0
  2 23  3  0
  2 27  4  0
  2 28  4  0
  3  9  4  0
  3 20  4  0
  3 27  1  0
  4 25  4  0
  4 28  1  0
  5  8  4  0
  5 11  2  0
  5 17  4  0
  5 20  3  0
  6 11  3  0
  6 12  2  0
  6 20  4  0
  6 23  4  0
  6 26  4  0
  7 18  2  0
  8 10  1  0
  8 11  1  0
  8 13  3  0
  8 27  4  0
  9 13  3  0
  9 17  1  0
  9 20  1  0
  9 23  4  0
  9 28  2  0
 10 11  2  0
 10 13  2  0
 11 14  1  0
 11 26  2  0
 11 27  1  0
 12 14  3  0
 13 20  1  0
 13 25  4  0
 14 20  3  0
 15 18  1  0
 15 21  4  0
 15 28  1  0
 16 25  4  0
 16 26  4  0
 18 21  3  0
 19 21  1  0
 19 24  3  0
 21 26  1  0
 23 24  1  0
 23 25  1  0
 26 27  4  0
M  END
$$$$

 Created by Python create_sdf_string function

 28 48  0  0  0  0  0  0  0  0999 V2000
    5.5393   -7.8334   26.7602 C   0  0  0  0  0  0  0  0  0  0  0  0
    1.9369   -6.2655   27.2988 C   0  0  0  0  0  0  0  0  0  0  0  0
   -0.4404  -11.3926   14.5766 I   0  0  0  0  0  0  0  0  0  0  0  0
    4.3471   -6.2207   27.3554 C   0  0  0  0  0  0  0  0  0  0  0  0
    2.2800   -3.3226   26.8904 C   0  0  0  0  0  0  0  0  0  0  0  0
    1.8652  -12.0061   14.2838 C   0  0  0  0  0  0  0  0  0  0  0  0
    8.9527   -8.5784   29.3149 O   0  0  0  0  0  0  0  0  0  0  0  0
    1.1864   -3.8108   26.8028 C   0  0  0  0  0  0  0  0  0  0  0  0
    0.2790   -9.9711   14.7549 C   0  0  0  0  0  0  0  0  0  0  0  0
   -1.4353   -4.7677   26.7033 O   0  0  0  0  0  0  0  0  0  0  0  0
   -0.4281   -5.5970   27.6140 C   0  0  0  0  0  0  0  0  0  0  0  0
    2.6727  -12.1080   13.8592 O   0  0  0  0  0  0  0  0  0  0  0  0
   -0.3276  -12.9600   13.5930 C   0  0  0  0  0  0  0  0  0  0  0  0
   -0.3055   -6.5742   28.3747 N   0  0  0  0  0  0  0  0  0  0  0  0
   10.4142   -7.6658   27.2095 N   0  0  0  0  0  0  0  0  0  0  0  0
    3.1925   -3.7282   26.7386 C   0  0  0  0  0  0  0  0  0  0  0  0
    8.9312   -8.2150   28.1490 F   0  0  0  0  0  0  0  0  0  0  0  0
   -0.3100   -8.6173   15.6962 C   0  0  0  0  0  0  0  0  0  0  0  0
    0.4433  -11.9268   14.2713 N   0  0  0  0  0  0  0  0  0  0  0  0
    7.9247   -8.1163   27.4741 N   0  0  0  0  0  0  0  0  0  0  0  0
    4.4995   -6.9893   26.7411 C   0  0  0  0  0  0  0  0  0  0  0  0
    1.5250  -10.1267   14.5362 C   0  0  0  0  0  0  0  0  0  0  0  0
    2.3286   -9.2920   15.1120 C   0  0  0  0  0  0  0  0  0  0  0  0
    5.9601   -5.5081   27.8754 C   0  0  0  0  0  0  0  0  0  0  0  0
    6.8530   -7.4580   27.2922 C   0  0  0  0  0  0  0  0  0  0  0  0
    1.0215   -5.0906   27.0599 C   0  0  0  0  0  0  0  0  0  0  0  0
    3.5594   -5.2374   27.1503 C   0  0  0  0  0  0  0  0  0  0  0  0
    6.8893   -6.1779   28.0600 He  0  0  0  0  0  0  0  0  0  0  0  0
  1  2  4  0
  1  3  1  0
  1  8  4  0
  1  9  1  0
  1 20  3  0
  1 21  4  0
  1 27  2  0
  2  8  3  0
  2 19  4  0
  2 26  4  0
  2 27  4  0
  3  7  4  0
  3  9  4  0
  3 10  1  0
  3 19  4  0
  4  9  1  0
  4 21  4  0
  4 24  4  0
  4 27  1  0
  5  8  4  0
  5 11  1  0
  5 16  2  0
  6 11  3  0
  6 12  2  0
  6 15  1  0
  6 19  4  0
  6 22  4  0
  7 16  2  0
  7 17  2  0
  7 20  2  0
  8 18  3  0
  8 25  2  0
  8 26  4  0
  9 12  2  0
  9 22  4  0
 10 11  2  0
 10 22  2  0
 10 23  1  0
 11 26  1  0
 13 19  1  0
 15 17  1  0
 16 17  2  0
 16 27  4  0
 17 20  1  0
 19 26  2  0
 20 25  1  0
 21 23  4  0
 22 23  1  0
M  END
$$$$

 Created by Python create_sdf_string function

 28 36  0  0  0  0  0  0  0  0999 V2000
    5.6885   -8.0768   26.8484 C   0  0  0  0  0  0  0  0  0  0  0  0
    1.9836   -6.2184   27.1748 C   0  0  0  0  0  0  0  0  0  0  0  0
    4.4204   -6.1435   27.3985 C   0  0  0  0  0  0  0  0  0  0  0  0
    2.1903   -3.0663   26.8172 C   0  0  0  0  0  0  0  0  0  0  0  0
    1.7726  -11.4722   14.1234 C   0  0  0  0  0  0  0  0  0  0  0  0
    9.0078   -8.2455   29.3492 O   0  0  0  0  0  0  0  0  0  0  0  0
    0.9623   -3.6801   26.6804 C   0  0  0  0  0  0  0  0  0  0  0  0
    0.0711  -10.1241   14.9870 C   0  0  0  0  0  0  0  0  0  0  0  0
   -1.3234   -4.8111   26.8512 O   0  0  0  0  0  0  0  0  0  0  0  0
   -0.1497   -5.6808   27.5052 C   0  0  0  0  0  0  0  0  0  0  0  0
    2.7786  -12.1216   14.2157 O   0  0  0  0  0  0  0  0  0  0  0  0
   -0.4757  -13.1893   13.7093 C   0  0  0  0  0  0  0  0  0  0  0  0
   -0.3852   -6.5430   28.2989 C   0  0  0  0  0  0  0  0  0  0  0  0
   10.1566   -7.7684   27.2122 C   0  0  0  0  0  0  0  0  0  0  0  0
    6.7737   -6.3177   27.7615 C   0  0  0  0  0  0  0  0  0  0  0  0
    3.4852   -3.5724   26.8209 C   0  0  0  0  0  0  0  0  0  0  0  0
    8.9099   -7.7724   27.9591 C   0  0  0  0  0  0  0  0  0  0  0  0
   -0.1972   -8.7885   15.5365 C   0  0  0  0  0  0  0  0  0  0  0  0
    0.1507  -12.1412   14.1731 N   0  0  0  0  0  0  0  0  0  0  0  0
    8.1117   -7.9776   27.2697 N   0  0  0  0  0  0  0  0  0  0  0  0
    4.7982   -7.2838   26.6661 C   0  0  0  0  0  0  0  0  0  0  0  0
    1.4827  -10.3370   14.9165 C   0  0  0  0  0  0  0  0  0  0  0  0
    2.4179   -9.5201   14.8043 C   0  0  0  0  0  0  0  0  0  0  0  0
    6.9860   -7.2654   27.2392 C   0  0  0  0  0  0  0  0  0  0  0  0
    1.1495   -5.1506   27.0942 C   0  0  0  0  0  0  0  0  0  0  0  0
   -0.5165  -10.8556   14.4686 He  0  0  0  0  0  0  0  0  0  0  0  0
    5.3364   -5.6143   27.7242 He  0  0  0  0  0  0  0  0  0  0  0  0
    3.5777   -5.2525   26.9875 He  0  0  0  0  0  0  0  0  0  0  0  0
  1  3  3  0
  1 21  4  0
  1 24  4  0
  2 21  1  0
  2 25  4  0
  4  5  2  0
  4  7  4  0
  4 16  4  0
  5 11  2  0
  5 15  4  0
  5 19  4  0
  5 22  4  0
  5 24  1  0
  6 17  2  0
  6 18  4  0
  7 25  4  0
  8 18  1  0
  8 21  1  0
  8 22  4  0
  8 25  3  0
  9 11  4  0
 10 13  1  0
 10 19  4  0
 10 25  1  0
 11 18  2  0
 11 25  3  0
 12 13  2  0
 12 19  1  0
 13 20  4  0
 13 21  3  0
 14 17  1  0
 15 23  2  0
 15 24  4  0
 17 20  1  0
 20 24  1  0
 22 23  1  0
M  END
$$$$

 Created by Python create_sdf_string function

 28 40  0  0  0  0  0  0  0  0999 V2000
    5.7012   -7.8969   26.6929 C   0  0  0  0  0  0  0  0  0  0  0  0
    2.1273   -5.7639   27.1265 C   0  0  0  0  0  0  0  0  0  0  0  0
   -0.5410  -11.2504   14.4929 N   0  0  0  0  0  0  0  0  0  0  0  0
    4.6732   -6.2248   27.3022 C   0  0  0  0  0  0  0  0  0  0  0  0
    2.3943   -3.3089   26.7261 C   0  0  0  0  0  0  0  0  0  0  0  0
    1.7964  -11.6005   14.0610 C   0  0  0  0  0  0  0  0  0  0  0  0
    9.1584   -8.2059   28.9167 O   0  0  0  0  0  0  0  0  0  0  0  0
    0.8496   -3.9183   26.4816 C   0  0  0  0  0  0  0  0  0  0  0  0
   -0.0625  -10.0782   14.9131 C   0  0  0  0  0  0  0  0  0  0  0  0
   -1.5056   -5.0005   27.2688 O   0  0  0  0  0  0  0  0  0  0  0  0
   -0.0110   -5.4959   27.7025 C   0  0  0  0  0  0  0  0  0  0  0  0
    2.5586  -12.0668   13.9550 O   0  0  0  0  0  0  0  0  0  0  0  0
   -0.5005  -13.2544   13.8509 C   0  0  0  0  0  0  0  0  0  0  0  0
   -0.6865   -6.3957   28.3976 F   0  0  0  0  0  0  0  0  0  0  0  0
   10.4341   -7.9552   27.3321 C   0  0  0  0  0  0  0  0  0  0  0  0
    6.5868   -6.3845   27.8688 C   0  0  0  0  0  0  0  0  0  0  0  0
    9.1122   -8.0948   28.0143 C   0  0  0  0  0  0  0  0  0  0  0  0
   -0.3243   -8.8586   15.5174 C   0  0  0  0  0  0  0  0  0  0  0  0
    0.1706  -11.6738   14.1102 N   0  0  0  0  0  0  0  0  0  0  0  0
    7.8642   -8.0943   27.1514 N   0  0  0  0  0  0  0  0  0  0  0  0
    4.5645   -7.4414   26.8031 C   0  0  0  0  0  0  0  0  0  0  0  0
    1.2842  -10.1565   14.9610 C   0  0  0  0  0  0  0  0  0  0  0  0
    5.4863   -5.8380   27.7673 C   0  0  0  0  0  0  0  0  0  0  0  0
    6.6409   -7.2794   27.4242 P   0  0  0  0  0  0  0  0  0  0  0  0
    0.7832   -4.8619   27.3007 C   0  0  0  0  0  0  0  0  0  0  0  0
    3.3185   -5.2477   27.1650 Cl  0  0  0  0  0  0  0  0  0  0  0  0
    3.3623   -3.8892   26.9001 He  0  0  0  0  0  0  0  0  0  0  0  0
    2.3835   -9.6214   14.7193 He  0  0  0  0  0  0  0  0  0  0  0  0
  1  3  2  0
  1 11  4  0
  1 12  3  0
  1 21  4  0
  2 10  1  0
  2 20  4  0
  2 22  2  0
  2 25  4  0
  2 26  4  0
  3  5  1  0
  3  9  4  0
  3 19  4  0
  4  5  4  0
  4 10  3  0
  4 16  4  0
  4 19  1  0
  4 21  4  0
  4 23  4  0
  4 24  3  0
  4 26  1  0
  5  8  4  0
  5 24  3  0
  6 19  4  0
  6 20  4  0
  6 22  4  0
  7 17  2  0
  8 25  4  0
  9 18  1  0
  9 22  4  0
 10 17  4  0
 11 14  1  0
 11 25  1  0
 13 19  1  0
 15 17  1  0
 16 23  4  0
 16 24  4  0
 17 20  1  0
 20 24  1  0
 21 22  1  0
 23 26  1  0
M  END
$$$$

 Created by Python create_sdf_string function

 28 37  0  0  0  0  0  0  0  0999 V2000
    5.5299   -7.9421   26.4695 C   0  0  0  0  0  0  0  0  0  0  0  0
    1.9728   -5.7559   27.4463 C   0  0  0  0  0  0  0  0  0  0  0  0
   -0.6729  -11.1753   14.6966 N   0  0  0  0  0  0  0  0  0  0  0  0
    4.4006   -6.2042   27.2284 I   0  0  0  0  0  0  0  0  0  0  0  0
    1.6466  -11.8533   14.2112 C   0  0  0  0  0  0  0  0  0  0  0  0
    8.9763   -8.1399   29.0761 O   0  0  0  0  0  0  0  0  0  0  0  0
    1.0353   -3.7649   26.6640 C   0  0  0  0  0  0  0  0  0  0  0  0
    0.2023  -10.0361   15.0997 C   0  0  0  0  0  0  0  0  0  0  0  0
   -0.5412   -5.7312   27.6428 C   0  0  0  0  0  0  0  0  0  0  0  0
    2.6111  -12.0888   13.9762 O   0  0  0  0  0  0  0  0  0  0  0  0
   -0.5450  -13.1824   13.4611 C   0  0  0  0  0  0  0  0  0  0  0  0
   -0.4553   -6.2990   28.7243 N   0  0  0  0  0  0  0  0  0  0  0  0
   10.4497   -8.2469   27.2076 C   0  0  0  0  0  0  0  0  0  0  0  0
    6.5957   -6.5419   27.8174 C   0  0  0  0  0  0  0  0  0  0  0  0
    3.5172   -3.9025   26.7799 C   0  0  0  0  0  0  0  0  0  0  0  0
    9.1194   -8.0100   28.0052 C   0  0  0  0  0  0  0  0  0  0  0  0
   -0.3708   -9.0588   15.7460 C   0  0  0  0  0  0  0  0  0  0  0  0
    0.1574  -11.9129   13.8669 N   0  0  0  0  0  0  0  0  0  0  0  0
    7.7776   -7.9233   26.9374 N   0  0  0  0  0  0  0  0  0  0  0  0
    4.7086   -7.4865   26.7784 C   0  0  0  0  0  0  0  0  0  0  0  0
    1.2609  -10.3503   14.8061 C   0  0  0  0  0  0  0  0  0  0  0  0
    2.5077   -9.3121   14.9557 C   0  0  0  0  0  0  0  0  0  0  0  0
    5.7677   -5.4516   28.1925 C   0  0  0  0  0  0  0  0  0  0  0  0
    6.7586   -7.5763   27.3965 Cl  0  0  0  0  0  0  0  0  0  0  0  0
    1.0166   -4.9586   26.9483 C   0  0  0  0  0  0  0  0  0  0  0  0
    3.2796   -5.0486   27.3600 O   0  0  0  0  0  0  0  0  0  0  0  0
    2.3391   -2.9436   26.8315 He  0  0  0  0  0  0  0  0  0  0  0  0
   -1.4081   -5.0332   27.2318 He  0  0  0  0  0  0  0  0  0  0  0  0
  1 20  4  0
  1 24  4  0
  1 26  4  0
  2 25  1  0
  2 26  4  0
  3 12  4  0
  3 13  1  0
  3 15  3  0
  3 18  4  0
  4 20  4  0
  4 26  2  0
  5 10  2  0
  5 11  2  0
  5 16  3  0
  5 18  4  0
  5 19  3  0
  5 21  4  0
  6 15  3  0
  6 16  2  0
  7  8  3  0
  7 17  4  0
  7 25  4  0
  8 17  1  0
  8 21  2  0
  9 12  1  0
  9 25  1  0
 10 21  4  0
 11 18  1  0
 12 15  4  0
 14 23  4  0
 14 24  4  0
 15 26  4  0
 16 19  1  0
 19 24  1  0
 21 22  1  0
 21 25  1  0
 23 26  4  0
M  END
$$$$

 Created by Python create_sdf_string function

 28 42  0  0  0  0  0  0  0  0999 V2000
    5.7623   -8.0866   26.7507 C   0  0  0  0  0  0  0  0  0  0  0  0
    2.1227   -5.7063   27.5915 C   0  0  0  0  0  0  0  0  0  0  0  0
    4.5488   -6.0263   27.2688 C   0  0  0  0  0  0  0  0  0  0  0  0
    2.1444   -3.3298   26.6438 C   0  0  0  0  0  0  0  0  0  0  0  0
    1.6543  -11.7379   14.1562 C   0  0  0  0  0  0  0  0  0  0  0  0
    8.9623   -8.0922   29.0529 O   0  0  0  0  0  0  0  0  0  0  0  0
    0.9967   -3.2710   26.8310 C   0  0  0  0  0  0  0  0  0  0  0  0
    0.0408  -10.1799   15.3211 C   0  0  0  0  0  0  0  0  0  0  0  0
   -1.3024   -4.9889   26.9911 O   0  0  0  0  0  0  0  0  0  0  0  0
   -0.5510   -5.5551   27.5684 C   0  0  0  0  0  0  0  0  0  0  0  0
    2.5252  -12.1599   13.6971 O   0  0  0  0  0  0  0  0  0  0  0  0
   -0.4563  -13.1648   13.4085 C   0  0  0  0  0  0  0  0  0  0  0  0
   -0.3491   -6.4453   28.6281 N   0  0  0  0  0  0  0  0  0  0  0  0
   10.3873   -8.3875   27.1264 C   0  0  0  0  0  0  0  0  0  0  0  0
    6.7122   -6.2278   28.0193 O   0  0  0  0  0  0  0  0  0  0  0  0
    3.3752   -4.0005   26.9553 C   0  0  0  0  0  0  0  0  0  0  0  0
    8.8851   -8.1695   27.7034 C   0  0  0  0  0  0  0  0  0  0  0  0
   -0.3396   -9.1777   15.7718 C   0  0  0  0  0  0  0  0  0  0  0  0
    0.1702  -12.1163   14.0335 P   0  0  0  0  0  0  0  0  0  0  0  0
    7.9110   -8.1835   26.9579 N   0  0  0  0  0  0  0  0  0  0  0  0
    4.5808   -7.3736   26.5916 C   0  0  0  0  0  0  0  0  0  0  0  0
    1.6568  -10.2698   14.7140 F   0  0  0  0  0  0  0  0  0  0  0  0
    2.3492   -9.2407   15.0744 C   0  0  0  0  0  0  0  0  0  0  0  0
    5.6554   -5.3469   28.1298 C   0  0  0  0  0  0  0  0  0  0  0  0
    6.7445   -7.4435   27.3896 C   0  0  0  0  0  0  0  0  0  0  0  0
    0.8433   -5.2176   27.0468 C   0  0  0  0  0  0  0  0  0  0  0  0
    3.2728   -5.0849   26.9924 C   0  0  0  0  0  0  0  0  0  0  0  0
   -0.6682  -11.1582   14.4403 He  0  0  0  0  0  0  0  0  0  0  0  0
  1  2  4  0
  1  9  4  0
  1 21  2  0
  1 25  4  0
  2  6  4  0
  2 26  4  0
  2 27  4  0
  3  5  1  0
  3 21  4  0
  3 24  4  0
  3 27  1  0
  4  7  4  0
  4 16  4  0
  4 18  3  0
  4 25  2  0
  5 11  2  0
  5 18  2  0
  5 19  4  0
  5 22  4  0
  6 17  2  0
  7 13  4  0
  7 17  2  0
  7 22  1  0
  7 26  4  0
  8 18  1  0
  8 20  4  0
  8 22  4  0
  9 10  2  0
 10 13  1  0
 10 26  4  0
 11 12  4  0
 11 20  4  0
 12 19  1  0
 12 24  4  0
 13 15  3  0
 14 17  1  0
 15 24  4  0
 15 25  4  0
 17 22  4  0
 20 27  3  0
 22 23  1  0
 23 27  2  0
M  END
$$$$

 Created by Python create_sdf_string function

 28 31  0  0  0  0  0  0  0  0999 V2000
    5.9607   -8.1287   26.3647 C   0  0  0  0  0  0  0  0  0  0  0  0
    2.1014   -5.6312   27.3240 C   0  0  0  0  0  0  0  0  0  0  0  0
    4.4719   -6.1015   27.3336 C   0  0  0  0  0  0  0  0  0  0  0  0
    2.1901   -3.1857   26.6072 C   0  0  0  0  0  0  0  0  0  0  0  0
    1.4832  -11.6976   13.9396 C   0  0  0  0  0  0  0  0  0  0  0  0
    8.9916   -8.1258   29.1792 O   0  0  0  0  0  0  0  0  0  0  0  0
    1.0089   -3.7004   26.8558 C   0  0  0  0  0  0  0  0  0  0  0  0
   -0.0255  -10.2018   15.3476 C   0  0  0  0  0  0  0  0  0  0  0  0
   -0.5425   -5.3757   27.6331 C   0  0  0  0  0  0  0  0  0  0  0  0
    2.3933  -12.3374   13.5921 O   0  0  0  0  0  0  0  0  0  0  0  0
   -0.4623   -6.6752   28.3614 N   0  0  0  0  0  0  0  0  0  0  0  0
   10.1877   -8.2779   26.9523 C   0  0  0  0  0  0  0  0  0  0  0  0
    3.3362   -3.8391   26.9996 C   0  0  0  0  0  0  0  0  0  0  0  0
    9.0437   -8.1218   27.8770 C   0  0  0  0  0  0  0  0  0  0  0  0
   -0.4707   -9.2168   15.7949 C   0  0  0  0  0  0  0  0  0  0  0  0
    0.2485  -12.0897   13.9785 N   0  0  0  0  0  0  0  0  0  0  0  0
    7.9305   -8.1843   26.9251 N   0  0  0  0  0  0  0  0  0  0  0  0
    4.7087   -7.2170   26.6741 C   0  0  0  0  0  0  0  0  0  0  0  0
    1.2423  -10.4736   14.9430 C   0  0  0  0  0  0  0  0  0  0  0  0
    2.3994   -9.5106   14.9542 C   0  0  0  0  0  0  0  0  0  0  0  0
    7.1120   -7.4068   27.2408 C   0  0  0  0  0  0  0  0  0  0  0  0
    3.4487   -5.2153   27.3184 C   0  0  0  0  0  0  0  0  0  0  0  0
   -0.6150  -11.1421   14.6616 He  0  0  0  0  0  0  0  0  0  0  0  0
   -1.3975   -5.1316   26.9935 He  0  0  0  0  0  0  0  0  0  0  0  0
   -0.1909  -13.2048   13.3324 He  0  0  0  0  0  0  0  0  0  0  0  0
    6.7072   -6.1982   28.0039 He  0  0  0  0  0  0  0  0  0  0  0  0
    5.5709   -5.5057   27.9466 He  0  0  0  0  0  0  0  0  0  0  0  0
    0.6957   -4.9472   27.2406 He  0  0  0  0  0  0  0  0  0  0  0  0
  1 12  2  0
  1 18  4  0
  1 21  4  0
  2 11  4  0
  2 22  4  0
  3  7  2  0
  3 18  4  0
  3 22  1  0
  4  7  4  0
  4 13  4  0
  4 16  3  0
  5 10  2  0
  5 16  4  0
  5 19  4  0
  5 22  1  0
  6 14  2  0
  6 15  4  0
  7  9  2  0
  7 10  1  0
  8 13  2  0
  8 15  1  0
  8 19  4  0
  9 11  1  0
 10 17  3  0
 11 12  1  0
 12 14  1  0
 13 22  4  0
 14 17  1  0
 16 20  2  0
 17 21  1  0
 19 20  1  0
M  END
$$$$

 Created by Python create_sdf_string function

 28 36  0  0  0  0  0  0  0  0999 V2000
    5.7217   -7.7051   26.6623 C   0  0  0  0  0  0  0  0  0  0  0  0
    2.0069   -5.6827   27.3557 C   0  0  0  0  0  0  0  0  0  0  0  0
   -0.4744  -11.1978   14.5104 N   0  0  0  0  0  0  0  0  0  0  0  0
    4.4667   -5.9607   27.2491 C   0  0  0  0  0  0  0  0  0  0  0  0
    2.1870   -3.1325   26.7249 C   0  0  0  0  0  0  0  0  0  0  0  0
    1.3817  -11.7503   14.2043 C   0  0  0  0  0  0  0  0  0  0  0  0
    9.1804   -8.0027   29.1471 O   0  0  0  0  0  0  0  0  0  0  0  0
    0.9935   -3.5265   26.8037 C   0  0  0  0  0  0  0  0  0  0  0  0
   -0.0723  -10.4415   14.9489 C   0  0  0  0  0  0  0  0  0  0  0  0
   -1.3941   -4.9072   27.0352 O   0  0  0  0  0  0  0  0  0  0  0  0
   -0.3254   -5.4832   27.4429 C   0  0  0  0  0  0  0  0  0  0  0  0
    2.5343  -12.3583   13.6435 O   0  0  0  0  0  0  0  0  0  0  0  0
   -0.2844  -13.1801   13.3235 C   0  0  0  0  0  0  0  0  0  0  0  0
   -0.6653   -6.4797   28.3372 N   0  0  0  0  0  0  0  0  0  0  0  0
   10.3378   -8.5164   27.1287 C   0  0  0  0  0  0  0  0  0  0  0  0
    6.8072   -6.2475   28.0477 C   0  0  0  0  0  0  0  0  0  0  0  0
    3.4097   -3.8309   26.9982 C   0  0  0  0  0  0  0  0  0  0  0  0
    8.9433   -8.0903   27.9760 C   0  0  0  0  0  0  0  0  0  0  0  0
   -0.5195   -9.2027   15.7933 C   0  0  0  0  0  0  0  0  0  0  0  0
    0.1492  -12.0734   13.9257 N   0  0  0  0  0  0  0  0  0  0  0  0
    8.1131   -8.0651   27.2111 N   0  0  0  0  0  0  0  0  0  0  0  0
    4.5743   -7.2989   26.7338 C   0  0  0  0  0  0  0  0  0  0  0  0
    1.3333  -10.3601   14.7863 C   0  0  0  0  0  0  0  0  0  0  0  0
    5.6232   -5.6041   27.8911 C   0  0  0  0  0  0  0  0  0  0  0  0
    6.9382   -7.2918   27.2485 C   0  0  0  0  0  0  0  0  0  0  0  0
    0.7610   -4.9161   27.2880 C   0  0  0  0  0  0  0  0  0  0  0  0
    3.4689   -5.2136   27.2611 C   0  0  0  0  0  0  0  0  0  0  0  0
    2.3626   -9.5153   15.0272 He  0  0  0  0  0  0  0  0  0  0  0  0
  1 22  2  0
  1 25  3  0
  2 26  4  0
  2 27  4  0
  3  9  4  0
  3 20  4  0
  4 22  4  0
  4 24  4  0
  4 27  1  0
  5  8  4  0
  5 17  4  0
  6 12  2  0
  6 20  4  0
  6 23  4  0
  6 24  4  0
  7 18  2  0
  8  9  1  0
  8 26  4  0
  9 19  1  0
  9 23  4  0
 10 11  2  0
 11 14  2  0
 11 19  2  0
 11 26  1  0
 12 18  4  0
 13 16  4  0
 13 20  1  0
 14 17  2  0
 15 18  1  0
 15 27  2  0
 16 24  4  0
 16 25  4  0
 17 27  4  0
 18 21  1  0
 21 22  2  0
 21 25  1  0
M  END
$$$$

 Created by Python create_sdf_string function

 28 36  0  0  0  0  0  0  0  0999 V2000
    5.8399   -7.8402   26.6627 C   0  0  0  0  0  0  0  0  0  0  0  0
    1.9817   -5.5949   27.2345 C   0  0  0  0  0  0  0  0  0  0  0  0
    4.4002   -5.9912   27.1575 C   0  0  0  0  0  0  0  0  0  0  0  0
    2.2157   -2.8680   26.7456 C   0  0  0  0  0  0  0  0  0  0  0  0
    1.6400  -11.6250   14.1904 C   0  0  0  0  0  0  0  0  0  0  0  0
    9.2636   -7.9440   29.1289 O   0  0  0  0  0  0  0  0  0  0  0  0
    1.0221   -3.5621   26.7357 C   0  0  0  0  0  0  0  0  0  0  0  0
    0.1876  -10.2855   14.9881 C   0  0  0  0  0  0  0  0  0  0  0  0
   -1.4001   -5.0076   26.8785 O   0  0  0  0  0  0  0  0  0  0  0  0
   -0.4639   -5.4521   27.4996 C   0  0  0  0  0  0  0  0  0  0  0  0
    2.4459  -12.2811   13.6649 O   0  0  0  0  0  0  0  0  0  0  0  0
   -0.1148  -13.2706   13.1566 C   0  0  0  0  0  0  0  0  0  0  0  0
   -0.6119   -6.5992   28.2793 N   0  0  0  0  0  0  0  0  0  0  0  0
   10.5478   -8.5489   27.2031 C   0  0  0  0  0  0  0  0  0  0  0  0
    6.6245   -6.2640   27.9488 C   0  0  0  0  0  0  0  0  0  0  0  0
    3.4824   -3.9037   26.8030 C   0  0  0  0  0  0  0  0  0  0  0  0
   -0.4618   -9.1442   15.8086 C   0  0  0  0  0  0  0  0  0  0  0  0
    0.2296  -12.2830   13.8519 N   0  0  0  0  0  0  0  0  0  0  0  0
    8.1069   -7.9781   27.2292 N   0  0  0  0  0  0  0  0  0  0  0  0
    4.6595   -7.1908   26.6272 C   0  0  0  0  0  0  0  0  0  0  0  0
    1.3986  -10.4294   14.7961 C   0  0  0  0  0  0  0  0  0  0  0  0
    2.5218   -9.5472   15.0929 C   0  0  0  0  0  0  0  0  0  0  0  0
    5.6189   -5.4997   27.9500 C   0  0  0  0  0  0  0  0  0  0  0  0
    6.8413   -7.2435   27.2476 O   0  0  0  0  0  0  0  0  0  0  0  0
    0.7503   -4.9682   27.1428 C   0  0  0  0  0  0  0  0  0  0  0  0
    3.1528   -5.3460   27.1567 C   0  0  0  0  0  0  0  0  0  0  0  0
   -0.6482  -11.1977   14.6501 He  0  0  0  0  0  0  0  0  0  0  0  0
    9.0222   -7.9434   27.8515 He  0  0  0  0  0  0  0  0  0  0  0  0
  1 17  1  0
  1 20  4  0
  1 24  4  0
  2 25  4  0
  2 26  3  0
  3 18  2  0
  3 20  4  0
  3 23  4  0
  4  7  4  0
  4 13  2  0
  4 16  4  0
  4 24  1  0
  5 10  2  0
  5 11  2  0
  5 18  4  0
  5 21  4  0
  6 16  2  0
  6 23  2  0
  7 25  4  0
  8 17  1  0
  8 21  4  0
  9 10  1  0
  9 15  4  0
 10 13  1  0
 10 25  4  0
 12 15  3  0
 12 18  1  0
 12 25  2  0
 14 21  3  0
 15 23  4  0
 15 24  4  0
 16 26  4  0
 19 24  1  0
 20 24  4  0
 21 22  1  0
 21 26  3  0
M  END
$$$$

 Created by Python create_sdf_string function

 28 33  0  0  0  0  0  0  0  0999 V2000
    5.7462   -7.9789   26.5523 C   0  0  0  0  0  0  0  0  0  0  0  0
    2.0141   -5.6426   27.3280 C   0  0  0  0  0  0  0  0  0  0  0  0
   -0.6986  -11.2454   14.5587 N   0  0  0  0  0  0  0  0  0  0  0  0
    4.5802   -5.9105   27.2101 C   0  0  0  0  0  0  0  0  0  0  0  0
    2.3662   -2.9137   26.7680 S   0  0  0  0  0  0  0  0  0  0  0  0
    1.5967  -11.5882   13.9833 C   0  0  0  0  0  0  0  0  0  0  0  0
    9.3064   -7.8502   29.1587 N   0  0  0  0  0  0  0  0  0  0  0  0
    0.8817   -3.3882   27.0168 C   0  0  0  0  0  0  0  0  0  0  0  0
    0.0586  -10.3685   14.9659 N   0  0  0  0  0  0  0  0  0  0  0  0
   -1.3718   -4.9253   26.8347 O   0  0  0  0  0  0  0  0  0  0  0  0
   -0.3707   -5.4291   27.5460 C   0  0  0  0  0  0  0  0  0  0  0  0
    2.4907  -12.3041   13.7477 O   0  0  0  0  0  0  0  0  0  0  0  0
   -0.1328  -13.2152   13.2507 C   0  0  0  0  0  0  0  0  0  0  0  0
   -0.4030   -6.4417   28.3619 N   0  0  0  0  0  0  0  0  0  0  0  0
   10.4070   -8.6843   27.1145 C   0  0  0  0  0  0  0  0  0  0  0  0
    6.8244   -6.3219   27.8002 C   0  0  0  0  0  0  0  0  0  0  0  0
    3.4335   -3.7254   26.9431 C   0  0  0  0  0  0  0  0  0  0  0  0
   -0.5953   -9.1907   15.9324 C   0  0  0  0  0  0  0  0  0  0  0  0
    0.3848  -12.2159   13.9377 N   0  0  0  0  0  0  0  0  0  0  0  0
    8.2085   -7.8692   27.1193 N   0  0  0  0  0  0  0  0  0  0  0  0
    4.5845   -7.2767   26.6759 C   0  0  0  0  0  0  0  0  0  0  0  0
    1.4451  -10.3453   14.7386 C   0  0  0  0  0  0  0  0  0  0  0  0
    2.4809   -9.3942   14.9469 C   0  0  0  0  0  0  0  0  0  0  0  0
    5.4834   -5.5186   27.8568 O   0  0  0  0  0  0  0  0  0  0  0  0
    6.9940   -7.3141   27.3797 C   0  0  0  0  0  0  0  0  0  0  0  0
    0.9394   -4.9116   27.0573 C   0  0  0  0  0  0  0  0  0  0  0  0
    3.3965   -5.1855   27.0833 C   0  0  0  0  0  0  0  0  0  0  0  0
    9.1404   -8.0826   27.9444 He  0  0  0  0  0  0  0  0  0  0  0  0
  1 10  1  0
  1 21  4  0
  1 25  4  0
  2  6  2  0
  2  7  3  0
  2 26  4  0
  2 27  4  0
  3  9  4  0
  3 19  4  0
  4 21  4  0
  4 24  4  0
  4 27  1  0
  5  8  3  0
  5  9  4  0
  6 12  2  0
  6 13  4  0
  6 19  4  0
  6 22  4  0
  8 26  4  0
  9 14  4  0
  9 15  2  0
  9 18  1  0
  9 22  4  0
 10 11  1  0
 11 14  1  0
 11 26  1  0
 12 15  1  0
 13 19  1  0
 13 27  2  0
 16 24  4  0
 16 25  4  0
 17 27  4  0
 22 23  1  0
M  END
$$$$

 Created by Python create_sdf_string function

 28 37  0  0  0  0  0  0  0  0999 V2000
    2.1628   -5.7337   27.1891 C   0  0  0  0  0  0  0  0  0  0  0  0
   -0.6046  -11.2797   14.6829 N   0  0  0  0  0  0  0  0  0  0  0  0
    4.5291   -6.0604   27.0042 C   0  0  0  0  0  0  0  0  0  0  0  0
    2.2932   -2.9457   26.7871 C   0  0  0  0  0  0  0  0  0  0  0  0
    1.5772  -11.6171   14.0236 C   0  0  0  0  0  0  0  0  0  0  0  0
    9.2721   -7.7564   29.0097 O   0  0  0  0  0  0  0  0  0  0  0  0
    1.1009   -3.4443   27.0362 C   0  0  0  0  0  0  0  0  0  0  0  0
    0.0047  -10.1676   15.1753 N   0  0  0  0  0  0  0  0  0  0  0  0
   -1.3003   -5.0124   26.7606 O   0  0  0  0  0  0  0  0  0  0  0  0
   -0.5876   -5.5342   27.5329 C   0  0  0  0  0  0  0  0  0  0  0  0
    2.5762  -12.2343   13.8363 O   0  0  0  0  0  0  0  0  0  0  0  0
   -0.0836  -13.3150   13.3303 C   0  0  0  0  0  0  0  0  0  0  0  0
   -0.5262   -6.5926   28.2689 N   0  0  0  0  0  0  0  0  0  0  0  0
   10.4673   -8.6185   27.0761 C   0  0  0  0  0  0  0  0  0  0  0  0
    6.8588   -6.2597   27.8341 C   0  0  0  0  0  0  0  0  0  0  0  0
    3.4561   -3.7837   26.9591 C   0  0  0  0  0  0  0  0  0  0  0  0
    9.0346   -7.9877   27.8644 C   0  0  0  0  0  0  0  0  0  0  0  0
   -0.6329   -9.1670   15.8248 N   0  0  0  0  0  0  0  0  0  0  0  0
    0.3412  -12.0398   13.9318 N   0  0  0  0  0  0  0  0  0  0  0  0
    8.0964   -7.9399   27.2810 N   0  0  0  0  0  0  0  0  0  0  0  0
    4.6169   -7.2844   26.5761 C   0  0  0  0  0  0  0  0  0  0  0  0
    1.4219  -10.2937   14.7378 C   0  0  0  0  0  0  0  0  0  0  0  0
    2.4523   -9.4264   15.0869 C   0  0  0  0  0  0  0  0  0  0  0  0
    5.5920   -5.6063   27.7798 C   0  0  0  0  0  0  0  0  0  0  0  0
    6.9209   -7.2736   27.3038 C   0  0  0  0  0  0  0  0  0  0  0  0
    0.8403   -4.8856   27.3086 C   0  0  0  0  0  0  0  0  0  0  0  0
    3.1914   -5.1892   27.2440 C   0  0  0  0  0  0  0  0  0  0  0  0
    5.7105   -7.9817   26.5417 He  0  0  0  0  0  0  0  0  0  0  0  0
  1 26  4  0
  1 27  4  0
  2  8  4  0
  3 21  4  0
  3 24  4  0
  3 27  1  0
  4  7  4  0
  4 11  4  0
  4 16  4  0
  4 26  3  0
  5 11  2  0
  5 19  4  0
  5 22  4  0
  6 17  2  0
  6 27  4  0
  7 18  3  0
  7 26  4  0
  8 18  1  0
  8 22  4  0
  8 26  3  0
  9 10  1  0
 10 13  1  0
 10 26  1  0
 11 23  2  0
 12 19  1  0
 13 14  2  0
 14 17  1  0
 15 24  2  0
 15 25  4  0
 16 27  4  0
 17 20  1  0
 17 21  1  0
 17 26  2  0
 18 19  3  0
 18 21  3  0
 20 25  1  0
 22 23  1  0
M  END
$$$$

 Created by Python create_sdf_string function

 28 32  0  0  0  0  0  0  0  0999 V2000
    5.7004   -7.8601   26.4852 C   0  0  0  0  0  0  0  0  0  0  0  0
    2.1053   -5.7976   27.3609 C   0  0  0  0  0  0  0  0  0  0  0  0
   -0.6366  -11.2830   14.6038 N   0  0  0  0  0  0  0  0  0  0  0  0
    4.4897   -5.9217   27.1930 C   0  0  0  0  0  0  0  0  0  0  0  0
    2.3637   -2.9032   26.8363 C   0  0  0  0  0  0  0  0  0  0  0  0
    1.4792  -11.5012   14.2058 C   0  0  0  0  0  0  0  0  0  0  0  0
    9.3964   -7.6484   29.0839 O   0  0  0  0  0  0  0  0  0  0  0  0
    1.0077   -3.5859   26.9980 C   0  0  0  0  0  0  0  0  0  0  0  0
    0.1086  -10.3109   15.0425 C   0  0  0  0  0  0  0  0  0  0  0  0
   -1.3983   -4.9475   26.8026 O   0  0  0  0  0  0  0  0  0  0  0  0
   -0.3104   -5.5568   27.6659 C   0  0  0  0  0  0  0  0  0  0  0  0
    2.5917  -11.9972   13.8162 O   0  0  0  0  0  0  0  0  0  0  0  0
   -0.0730  -13.3307   13.2264 C   0  0  0  0  0  0  0  0  0  0  0  0
   -0.5244   -6.5757   28.3048 N   0  0  0  0  0  0  0  0  0  0  0  0
   10.6003   -8.4303   27.0698 C   0  0  0  0  0  0  0  0  0  0  0  0
    6.7642   -6.2274   27.8735 C   0  0  0  0  0  0  0  0  0  0  0  0
    3.4672   -3.9159   27.0455 C   0  0  0  0  0  0  0  0  0  0  0  0
    9.0791   -8.0636   27.8415 C   0  0  0  0  0  0  0  0  0  0  0  0
   -0.6037   -9.2855   15.7388 N   0  0  0  0  0  0  0  0  0  0  0  0
    0.3376  -12.0770   14.0114 N   0  0  0  0  0  0  0  0  0  0  0  0
    8.0633   -8.0313   27.1086 N   0  0  0  0  0  0  0  0  0  0  0  0
    4.5402   -7.3082   26.6419 C   0  0  0  0  0  0  0  0  0  0  0  0
    1.5448  -10.2259   14.7651 C   0  0  0  0  0  0  0  0  0  0  0  0
    2.3705   -9.4067   15.2233 C   0  0  0  0  0  0  0  0  0  0  0  0
    5.6440   -5.4583   27.8295 C   0  0  0  0  0  0  0  0  0  0  0  0
    6.8312   -7.3452   27.3588 C   0  0  0  0  0  0  0  0  0  0  0  0
    0.9616   -4.8282   27.1427 C   0  0  0  0  0  0  0  0  0  0  0  0
    3.1991   -5.0814   27.1067 F   0  0  0  0  0  0  0  0  0  0  0  0
  1 22  4  0
  1 26  4  0
  2  7  1  0
  2 27  4  0
  2 28  4  0
  3  9  4  0
  3 20  4  0
  4 22  4  0
  4 25  4  0
  4 28  1  0
  5  8  4  0
  5 17  4  0
  6 12  2  0
  6 20  4  0
  6 23  4  0
  7 18  2  0
  8 27  4  0
  9 19  1  0
  9 23  4  0
 10 11  1  0
 11 14  1  0
 11 27  1  0
 13 20  1  0
 15 18  1  0
 16 25  4  0
 16 26  4  0
 17 28  4  0
 18 21  1  0
 19 24  3  0
 20 25  3  0
 21 26  1  0
 23 24  1  0
M  END
$$$$

 Created by Python create_sdf_string function

 28 36  0  0  0  0  0  0  0  0999 V2000
    5.7937   -7.8137   26.5244 C   0  0  0  0  0  0  0  0  0  0  0  0
    2.0481   -5.7337   27.3469 C   0  0  0  0  0  0  0  0  0  0  0  0
   -0.6254  -11.2934   14.6231 N   0  0  0  0  0  0  0  0  0  0  0  0
    4.5194   -5.9106   27.2125 F   0  0  0  0  0  0  0  0  0  0  0  0
    2.3070   -2.9793   26.7238 C   0  0  0  0  0  0  0  0  0  0  0  0
    1.6162  -11.4579   14.1581 C   0  0  0  0  0  0  0  0  0  0  0  0
    9.1616   -7.5950   29.0403 O   0  0  0  0  0  0  0  0  0  0  0  0
    1.0833   -3.4994   26.9942 C   0  0  0  0  0  0  0  0  0  0  0  0
    0.0967  -10.0975   15.0655 C   0  0  0  0  0  0  0  0  0  0  0  0
   -1.3183   -5.0572   26.8105 O   0  0  0  0  0  0  0  0  0  0  0  0
   -0.4229   -5.4865   27.5833 C   0  0  0  0  0  0  0  0  0  0  0  0
    2.6515  -11.9801   13.8109 O   0  0  0  0  0  0  0  0  0  0  0  0
   -0.0444  -13.2258   13.3318 C   0  0  0  0  0  0  0  0  0  0  0  0
   -0.5387   -6.5727   28.2469 N   0  0  0  0  0  0  0  0  0  0  0  0
   10.4909   -8.4528   27.1525 C   0  0  0  0  0  0  0  0  0  0  0  0
    6.6434   -6.1560   27.9264 C   0  0  0  0  0  0  0  0  0  0  0  0
    3.5069   -3.7320   27.0492 C   0  0  0  0  0  0  0  0  0  0  0  0
    9.2073   -8.0261   27.8842 C   0  0  0  0  0  0  0  0  0  0  0  0
   -0.6025   -9.1761   15.6795 N   0  0  0  0  0  0  0  0  0  0  0  0
    0.2562  -12.1620   13.8710 N   0  0  0  0  0  0  0  0  0  0  0  0
    8.0254   -7.9982   27.1694 N   0  0  0  0  0  0  0  0  0  0  0  0
    4.5893   -7.2856   26.6034 C   0  0  0  0  0  0  0  0  0  0  0  0
    1.3888  -10.3166   14.7436 C   0  0  0  0  0  0  0  0  0  0  0  0
    2.2296   -9.4529   15.4042 C   0  0  0  0  0  0  0  0  0  0  0  0
    5.6356   -5.4730   27.8688 C   0  0  0  0  0  0  0  0  0  0  0  0
    6.7745   -7.2736   27.2612 C   0  0  0  0  0  0  0  0  0  0  0  0
    0.9635   -4.9373   27.1497 C   0  0  0  0  0  0  0  0  0  0  0  0
    3.4031   -5.2336   27.2210 C   0  0  0  0  0  0  0  0  0  0  0  0
  1 22  4  0
  2 13  4  0
  2 27  4  0
  2 28  4  0
  3  4  4  0
  3  9  4  0
  3 20  4  0
  4 22  4  0
  4 25  4  0
  4 28  1  0
  5  8  4  0
  5 17  2  0
  5 22  3  0
  6 12  2  0
  6 20  4  0
  6 23  4  0
  6 25  1  0
  7 12  4  0
  7 18  2  0
  8 11  4  0
  8 12  3  0
  8 15  2  0
  8 18  3  0
  9 19  1  0
  9 23  4  0
 10 11  1  0
 11 14  1  0
 11 27  1  0
 13 20  1  0
 15 18  1  0
 16 25  4  0
 16 26  4  0
 17 28  4  0
 18 21  1  0
 21 26  1  0
 23 24  1  0
M  END
$$$$

 Created by Python create_sdf_string function

 28 38  0  0  0  0  0  0  0  0999 V2000
    5.7171   -7.8271   26.5667 C   0  0  0  0  0  0  0  0  0  0  0  0
    2.0773   -5.6645   27.2656 C   0  0  0  0  0  0  0  0  0  0  0  0
   -0.5766  -11.3435   14.5588 N   0  0  0  0  0  0  0  0  0  0  0  0
    4.5036   -5.8683   27.1735 C   0  0  0  0  0  0  0  0  0  0  0  0
    2.2968   -3.0549   26.7722 C   0  0  0  0  0  0  0  0  0  0  0  0
    1.5819  -11.4376   14.1256 C   0  0  0  0  0  0  0  0  0  0  0  0
    9.1324   -7.6167   28.9947 O   0  0  0  0  0  0  0  0  0  0  0  0
    1.0665   -3.4556   26.8952 C   0  0  0  0  0  0  0  0  0  0  0  0
   -0.0146  -10.1657   15.1525 Cl  0  0  0  0  0  0  0  0  0  0  0  0
   -1.3296   -5.1008   26.9322 O   0  0  0  0  0  0  0  0  0  0  0  0
   -0.3941   -5.4581   27.4497 C   0  0  0  0  0  0  0  0  0  0  0  0
    2.6124  -12.0350   13.7770 O   0  0  0  0  0  0  0  0  0  0  0  0
   -0.0218  -13.2411   13.4455 C   0  0  0  0  0  0  0  0  0  0  0  0
   -0.4587   -6.5440   28.2801 N   0  0  0  0  0  0  0  0  0  0  0  0
   10.3831   -8.5230   27.1405 C   0  0  0  0  0  0  0  0  0  0  0  0
    6.7122   -6.3027   27.8440 C   0  0  0  0  0  0  0  0  0  0  0  0
    3.4841   -3.8655   26.9678 C   0  0  0  0  0  0  0  0  0  0  0  0
    9.2458   -7.8902   27.8711 C   0  0  0  0  0  0  0  0  0  0  0  0
   -0.6598   -9.1111   15.6561 N   0  0  0  0  0  0  0  0  0  0  0  0
    0.3271  -12.0401   14.0159 N   0  0  0  0  0  0  0  0  0  0  0  0
    7.9932   -8.0562   27.1544 N   0  0  0  0  0  0  0  0  0  0  0  0
    4.5294   -7.1590   26.6596 C   0  0  0  0  0  0  0  0  0  0  0  0
    1.4000  -10.2867   14.8274 C   0  0  0  0  0  0  0  0  0  0  0  0
    2.3556   -9.4406   15.2763 C   0  0  0  0  0  0  0  0  0  0  0  0
    5.6502   -5.5124   28.0084 C   0  0  0  0  0  0  0  0  0  0  0  0
    6.8521   -7.3243   27.2734 C   0  0  0  0  0  0  0  0  0  0  0  0
    0.9247   -4.9902   27.2653 C   0  0  0  0  0  0  0  0  0  0  0  0
    3.3824   -5.1702   27.1481 C   0  0  0  0  0  0  0  0  0  0  0  0
  1 22  4  0
  1 26  4  0
  2 27  4  0
  2 28  4  0
  3  9  4  0
  3 20  4  0
  4 16  3  0
  4 22  4  0
  4 25  4  0
  4 28  1  0
  5  6  3  0
  5  8  4  0
  5 17  4  0
  5 19  4  0
  5 26  3  0
  6 12  2  0
  6 20  4  0
  6 23  3  0
  7 18  2  0
  8 13  4  0
  8 27  4  0
  9 19  1  0
  9 23  4  0
 10 11  3  0
 11 14  1  0
 11 27  1  0
 12 27  3  0
 13 14  1  0
 13 20  1  0
 13 22  4  0
 15 18  1  0
 16 25  4  0
 16 26  4  0
 18 21  1  0
 19 24  3  0
 21 26  1  0
 23 24  1  0
 27 28  1  0
M  END
$$$$

 Created by Python create_sdf_string function

 28 32  0  0  0  0  0  0  0  0999 V2000
    5.8462   -7.8996   26.5519 C   0  0  0  0  0  0  0  0  0  0  0  0
   -0.5988  -11.2419   14.5748 N   0  0  0  0  0  0  0  0  0  0  0  0
    4.5618   -5.9434   27.2118 C   0  0  0  0  0  0  0  0  0  0  0  0
    2.2211   -3.0063   26.8257 C   0  0  0  0  0  0  0  0  0  0  0  0
    1.4899  -11.4774   14.1397 C   0  0  0  0  0  0  0  0  0  0  0  0
    9.1686   -7.5846   28.9526 O   0  0  0  0  0  0  0  0  0  0  0  0
    1.0116   -3.5929   26.9665 C   0  0  0  0  0  0  0  0  0  0  0  0
    0.0081  -10.1878   15.0507 C   0  0  0  0  0  0  0  0  0  0  0  0
   -1.4532   -5.0695   26.8066 O   0  0  0  0  0  0  0  0  0  0  0  0
   -0.2943   -5.5135   27.5177 C   0  0  0  0  0  0  0  0  0  0  0  0
   -0.1338  -13.2486   13.5286 C   0  0  0  0  0  0  0  0  0  0  0  0
   -0.5322   -6.5047   28.2416 N   0  0  0  0  0  0  0  0  0  0  0  0
   10.5364   -8.5616   27.1481 C   0  0  0  0  0  0  0  0  0  0  0  0
    6.7506   -6.2148   27.9554 O   0  0  0  0  0  0  0  0  0  0  0  0
    3.4570   -3.8231   26.9210 C   0  0  0  0  0  0  0  0  0  0  0  0
    9.1442   -8.0325   27.8883 C   0  0  0  0  0  0  0  0  0  0  0  0
   -0.6402   -9.1793   15.7378 N   0  0  0  0  0  0  0  0  0  0  0  0
    0.3933  -11.9804   14.0082 N   0  0  0  0  0  0  0  0  0  0  0  0
    8.0168   -8.0191   27.1057 N   0  0  0  0  0  0  0  0  0  0  0  0
    4.5580   -7.2037   26.5349 C   0  0  0  0  0  0  0  0  0  0  0  0
    1.4117  -10.2128   14.8180 C   0  0  0  0  0  0  0  0  0  0  0  0
    2.3101   -9.4504   15.3107 C   0  0  0  0  0  0  0  0  0  0  0  0
    5.4861   -5.5525   27.9707 C   0  0  0  0  0  0  0  0  0  0  0  0
    6.8295   -7.4292   27.2977 C   0  0  0  0  0  0  0  0  0  0  0  0
    1.0537   -4.8426   27.1659 C   0  0  0  0  0  0  0  0  0  0  0  0
    3.4164   -5.2166   27.0970 C   0  0  0  0  0  0  0  0  0  0  0  0
    2.1226   -5.8698   27.1843 He  0  0  0  0  0  0  0  0  0  0  0  0
    2.5859  -12.0038   13.7411 He  0  0  0  0  0  0  0  0  0  0  0  0
  1 20  4  0
  1 24  4  0
  2  7  4  0
  2  8  4  0
  2 11  1  0
  2 18  4  0
  3 20  4  0
  3 23  4  0
  3 26  1  0
  4  7  4  0
  4 15  4  0
  5 18  4  0
  5 21  4  0
  6 16  2  0
  7 25  4  0
  8 17  1  0
  8 21  4  0
  9 10  2  0
 10 12  1  0
 10 25  1  0
 11 16  4  0
 11 18  1  0
 11 26  3  0
 13 16  1  0
 14 23  4  0
 14 24  4  0
 14 26  1  0
 15 26  4  0
 16 19  1  0
 18 22  1  0
 19 24  1  0
 21 22  1  0
M  END
$$$$

 Created by Python create_sdf_string function

 28 34  0  0  0  0  0  0  0  0999 V2000
    5.7899   -7.9401   26.6681 C   0  0  0  0  0  0  0  0  0  0  0  0
    2.0624   -5.7082   27.1530 C   0  0  0  0  0  0  0  0  0  0  0  0
   -0.6692  -11.1710   14.5260 N   0  0  0  0  0  0  0  0  0  0  0  0
    4.5577   -5.8496   27.1510 C   0  0  0  0  0  0  0  0  0  0  0  0
    2.2654   -2.9976   26.8499 C   0  0  0  0  0  0  0  0  0  0  0  0
    1.6012  -11.5469   14.1601 C   0  0  0  0  0  0  0  0  0  0  0  0
    9.1098   -7.5852   29.0179 O   0  0  0  0  0  0  0  0  0  0  0  0
    0.9979   -3.5787   26.8456 C   0  0  0  0  0  0  0  0  0  0  0  0
   -0.0101  -10.1743   15.0526 C   0  0  0  0  0  0  0  0  0  0  0  0
   -1.3488   -5.0411   26.8023 O   0  0  0  0  0  0  0  0  0  0  0  0
   -0.3603   -5.4985   27.3623 C   0  0  0  0  0  0  0  0  0  0  0  0
    2.5740  -11.9828   13.7405 O   0  0  0  0  0  0  0  0  0  0  0  0
   -0.1036  -13.1273   13.5504 C   0  0  0  0  0  0  0  0  0  0  0  0
   -0.5300   -6.5694   28.2880 N   0  0  0  0  0  0  0  0  0  0  0  0
   10.4854   -8.4781   27.1852 C   0  0  0  0  0  0  0  0  0  0  0  0
    6.8014   -6.2266   28.0274 C   0  0  0  0  0  0  0  0  0  0  0  0
    3.5160   -3.7411   26.8561 C   0  0  0  0  0  0  0  0  0  0  0  0
    9.0264   -7.9991   27.8385 C   0  0  0  0  0  0  0  0  0  0  0  0
   -0.6325   -9.1276   15.7540 N   0  0  0  0  0  0  0  0  0  0  0  0
    0.3395  -11.9878   14.0398 N   0  0  0  0  0  0  0  0  0  0  0  0
    8.0459   -8.0529   27.1659 N   0  0  0  0  0  0  0  0  0  0  0  0
    4.5638   -7.1664   26.5875 C   0  0  0  0  0  0  0  0  0  0  0  0
    1.3659  -10.3297   14.7478 C   0  0  0  0  0  0  0  0  0  0  0  0
    2.3413   -9.3675   15.2068 C   0  0  0  0  0  0  0  0  0  0  0  0
    5.5921   -5.5257   27.9059 C   0  0  0  0  0  0  0  0  0  0  0  0
    6.8336   -7.3890   27.2711 C   0  0  0  0  0  0  0  0  0  0  0  0
    1.0341   -4.9382   27.2440 C   0  0  0  0  0  0  0  0  0  0  0  0
    3.3278   -5.1381   27.0991 C   0  0  0  0  0  0  0  0  0  0  0  0
  1 16  3  0
  1 22  4  0
  1 26  4  0
  2 19  3  0
  2 27  4  0
  2 28  4  0
  3  9  4  0
  3 20  4  0
  4 22  4  0
  4 25  4  0
  4 28  1  0
  5  8  4  0
  5 17  4  0
  5 18  3  0
  6 12  2  0
  6 20  4  0
  6 23  4  0
  6 24  4  0
  7 18  2  0
  8 27  4  0
  9 19  1  0
  9 23  4  0
  9 27  1  0
 10 11  2  0
 11 27  1  0
 13 20  1  0
 13 26  4  0
 15 18  1  0
 16 25  4  0
 16 26  4  0
 17 28  4  0
 18 21  1  0
 21 26  1  0
 23 24  1  0
M  END
$$$$

 Created by Python create_sdf_string function

 28 29  0  0  0  0  0  0  0  0999 V2000
    5.7186   -7.9024   26.5527 C   0  0  0  0  0  0  0  0  0  0  0  0
    2.0981   -5.6792   27.2467 C   0  0  0  0  0  0  0  0  0  0  0  0
   -0.8022  -11.1979   14.5089 N   0  0  0  0  0  0  0  0  0  0  0  0
    2.2961   -3.0473   26.7584 C   0  0  0  0  0  0  0  0  0  0  0  0
    1.5753  -11.6110   14.1641 C   0  0  0  0  0  0  0  0  0  0  0  0
    9.1144   -7.6309   29.0378 O   0  0  0  0  0  0  0  0  0  0  0  0
    1.0836   -3.5064   26.8734 S   0  0  0  0  0  0  0  0  0  0  0  0
   -0.0079  -10.1987   15.1165 C   0  0  0  0  0  0  0  0  0  0  0  0
   -1.3147   -5.0420   26.8527 O   0  0  0  0  0  0  0  0  0  0  0  0
   -0.4226   -5.4343   27.3686 C   0  0  0  0  0  0  0  0  0  0  0  0
    2.5386  -11.9940   13.7630 O   0  0  0  0  0  0  0  0  0  0  0  0
   -0.1105  -13.1377   13.5739 C   0  0  0  0  0  0  0  0  0  0  0  0
   -0.4220   -6.5696   28.1606 N   0  0  0  0  0  0  0  0  0  0  0  0
   10.5023   -8.5239   27.1706 C   0  0  0  0  0  0  0  0  0  0  0  0
    6.8119   -6.1813   28.0360 C   0  0  0  0  0  0  0  0  0  0  0  0
    3.3744   -3.6984   26.8377 C   0  0  0  0  0  0  0  0  0  0  0  0
    9.1175   -8.1031   27.8952 C   0  0  0  0  0  0  0  0  0  0  0  0
   -0.6454   -9.1137   15.7936 N   0  0  0  0  0  0  0  0  0  0  0  0
    0.2491  -11.9774   14.1097 N   0  0  0  0  0  0  0  0  0  0  0  0
    8.0940   -8.0498   27.1307 N   0  0  0  0  0  0  0  0  0  0  0  0
    4.5943   -7.2011   26.6329 C   0  0  0  0  0  0  0  0  0  0  0  0
    1.3243  -10.2661   14.8530 C   0  0  0  0  0  0  0  0  0  0  0  0
    2.3255   -9.3661   15.2570 C   0  0  0  0  0  0  0  0  0  0  0  0
    5.6423   -5.4689   27.8520 C   0  0  0  0  0  0  0  0  0  0  0  0
    6.7367   -7.4969   27.2980 C   0  0  0  0  0  0  0  0  0  0  0  0
    1.0006   -4.8917   27.1922 C   0  0  0  0  0  0  0  0  0  0  0  0
    3.3400   -5.1032   27.0652 C   0  0  0  0  0  0  0  0  0  0  0  0
    4.4992   -5.9490   27.1974 He  0  0  0  0  0  0  0  0  0  0  0  0
  1 21  4  0
  1 25  4  0
  2 26  4  0
  2 27  4  0
  3  8  4  0
  3 19  4  0
  4  7  4  0
  4 16  4  0
  5  8  2  0
  5 11  2  0
  5 19  4  0
  5 22  4  0
  6 17  2  0
  7 12  4  0
  7 26  4  0
  8 18  1  0
  8 22  4  0
  9 10  2  0
 10 26  1  0
 12 19  1  0
 14 17  1  0
 15 24  4  0
 15 25  4  0
 16 18  4  0
 16 24  2  0
 16 27  4  0
 17 20  1  0
 20 25  1  0
 22 23  1  0
M  END
$$$$

 Created by Python create_sdf_string function

 28 34  0  0  0  0  0  0  0  0999 V2000
    5.7090   -7.9171   26.5855 C   0  0  0  0  0  0  0  0  0  0  0  0
    2.0297   -5.5276   27.2626 C   0  0  0  0  0  0  0  0  0  0  0  0
   -0.7383  -11.2691   14.6249 N   0  0  0  0  0  0  0  0  0  0  0  0
    4.4698   -5.9199   27.1416 C   0  0  0  0  0  0  0  0  0  0  0  0
    2.2882   -2.9342   26.6749 C   0  0  0  0  0  0  0  0  0  0  0  0
    1.4416  -11.5456   14.1792 C   0  0  0  0  0  0  0  0  0  0  0  0
    9.1653   -7.6252   29.1111 O   0  0  0  0  0  0  0  0  0  0  0  0
    1.0034   -3.5519   26.8750 C   0  0  0  0  0  0  0  0  0  0  0  0
   -0.0602  -10.1416   15.1419 C   0  0  0  0  0  0  0  0  0  0  0  0
   -1.3499   -4.9834   26.8504 O   0  0  0  0  0  0  0  0  0  0  0  0
   -0.3125   -5.5195   27.3615 C   0  0  0  0  0  0  0  0  0  0  0  0
    2.5417  -11.9982   13.7708 O   0  0  0  0  0  0  0  0  0  0  0  0
   -0.2039  -13.2468   13.4824 C   0  0  0  0  0  0  0  0  0  0  0  0
   -0.5088   -6.5568   28.1268 N   0  0  0  0  0  0  0  0  0  0  0  0
   10.4120   -8.5762   27.2235 Br  0  0  0  0  0  0  0  0  0  0  0  0
    6.7583   -6.2005   27.9831 C   0  0  0  0  0  0  0  0  0  0  0  0
    3.4593   -3.7761   26.8289 C   0  0  0  0  0  0  0  0  0  0  0  0
    9.0714   -8.0241   27.8842 C   0  0  0  0  0  0  0  0  0  0  0  0
   -0.6703   -9.1048   15.8149 N   0  0  0  0  0  0  0  0  0  0  0  0
    0.3022  -12.0372   14.1332 N   0  0  0  0  0  0  0  0  0  0  0  0
    8.0908   -8.0845   27.0967 N   0  0  0  0  0  0  0  0  0  0  0  0
    4.6542   -7.1171   26.6187 C   0  0  0  0  0  0  0  0  0  0  0  0
    1.2839  -10.2861   14.8664 C   0  0  0  0  0  0  0  0  0  0  0  0
    2.2832   -9.3732   15.2482 C   0  0  0  0  0  0  0  0  0  0  0  0
    5.6232   -5.4942   27.8834 C   0  0  0  0  0  0  0  0  0  0  0  0
    6.8456   -7.4276   27.2189 C   0  0  0  0  0  0  0  0  0  0  0  0
    0.9656   -4.8867   27.1363 C   0  0  0  0  0  0  0  0  0  0  0  0
    3.3532   -5.0739   27.0322 C   0  0  0  0  0  0  0  0  0  0  0  0
  1 13  2  0
  1 22  4  0
  1 26  4  0
  2  7  3  0
  2 27  4  0
  2 28  4  0
  3  6  3  0
  3  9  4  0
  3 20  4  0
  4 22  4  0
  4 25  4  0
  4 28  1  0
  5  8  4  0
  5 17  4  0
  6 12  2  0
  6 20  4  0
  6 23  4  0
  6 24  1  0
  7 18  2  0
  8 26  1  0
  8 27  4  0
  9 19  1  0
  9 23  4  0
 10 11  2  0
 11 14  1  0
 11 27  1  0
 13 20  1  0
 15 18  1  0
 16 25  4  0
 16 26  4  0
 17 28  4  0
 18 21  1  0
 21 26  4  0
 23 24  1  0
M  END
$$$$

 Created by Python create_sdf_string function

 28 31  0  0  0  0  0  0  0  0999 V2000
    5.6691   -7.9111   26.6350 C   0  0  0  0  0  0  0  0  0  0  0  0
    2.0705   -5.6649   27.2585 C   0  0  0  0  0  0  0  0  0  0  0  0
   -0.7224  -11.2423   14.6167 N   0  0  0  0  0  0  0  0  0  0  0  0
    4.5289   -5.8474   27.1832 C   0  0  0  0  0  0  0  0  0  0  0  0
    2.2141   -2.9035   26.7024 C   0  0  0  0  0  0  0  0  0  0  0  0
    1.4573  -11.4865   14.1700 C   0  0  0  0  0  0  0  0  0  0  0  0
    9.1717   -7.5549   29.0942 O   0  0  0  0  0  0  0  0  0  0  0  0
    1.0412   -3.4800   26.7966 C   0  0  0  0  0  0  0  0  0  0  0  0
   -0.1050  -10.1442   15.1452 C   0  0  0  0  0  0  0  0  0  0  0  0
   -1.3779   -4.9593   26.7760 O   0  0  0  0  0  0  0  0  0  0  0  0
   -0.2907   -5.4880   27.3534 C   0  0  0  0  0  0  0  0  0  0  0  0
    2.4922  -12.0354   13.7616 O   0  0  0  0  0  0  0  0  0  0  0  0
   -0.2114  -13.2201   13.4986 C   0  0  0  0  0  0  0  0  0  0  0  0
   -0.4320   -6.5561   28.1307 N   0  0  0  0  0  0  0  0  0  0  0  0
   10.3813   -8.6180   27.2020 C   0  0  0  0  0  0  0  0  0  0  0  0
    6.7840   -6.2399   27.9581 C   0  0  0  0  0  0  0  0  0  0  0  0
    3.3772   -3.7370   26.8130 C   0  0  0  0  0  0  0  0  0  0  0  0
   -0.6564   -9.0916   15.8154 N   0  0  0  0  0  0  0  0  0  0  0  0
    0.2289  -12.0484   14.0946 N   0  0  0  0  0  0  0  0  0  0  0  0
    7.9855   -8.0860   27.1333 N   0  0  0  0  0  0  0  0  0  0  0  0
    4.6272   -7.1010   26.5548 C   0  0  0  0  0  0  0  0  0  0  0  0
    1.3018  -10.2466   14.8409 C   0  0  0  0  0  0  0  0  0  0  0  0
    2.2879   -9.4717   15.1832 C   0  0  0  0  0  0  0  0  0  0  0  0
    5.6292   -5.4013   27.9160 C   0  0  0  0  0  0  0  0  0  0  0  0
    6.8536   -7.3894   27.2241 C   0  0  0  0  0  0  0  0  0  0  0  0
    0.9534   -4.8867   27.1267 C   0  0  0  0  0  0  0  0  0  0  0  0
    3.2806   -5.0961   27.1188 C   0  0  0  0  0  0  0  0  0  0  0  0
    9.0864   -8.0170   27.8928 He  0  0  0  0  0  0  0  0  0  0  0  0
  1 21  4  0
  1 25  4  0
  2 26  4  0
  2 27  4  0
  3  9  4  0
  3 19  4  0
  4 19  2  0
  4 21  4  0
  4 24  4  0
  4 27  1  0
  5  8  4  0
  5 17  4  0
  6 12  2  0
  6 19  4  0
  6 22  4  0
  8 12  4  0
  8 26  4  0
  9 18  1  0
  9 22  4  0
 10 11  2  0
 11 14  1  0
 11 26  1  0
 13 19  1  0
 13 22  1  0
 14 16  3  0
 16 24  4  0
 16 25  4  0
 17 27  4  0
 20 25  1  0
 20 26  3  0
 22 23  1  0
M  END
$$$$

 Created by Python create_sdf_string function

 28 29  0  0  0  0  0  0  0  0999 V2000
    5.6939   -7.8221   26.6187 C   0  0  0  0  0  0  0  0  0  0  0  0
    2.0863   -5.6560   27.2417 C   0  0  0  0  0  0  0  0  0  0  0  0
   -0.7144  -11.2237   14.6447 N   0  0  0  0  0  0  0  0  0  0  0  0
    4.4833   -5.8356   27.1372 C   0  0  0  0  0  0  0  0  0  0  0  0
    2.2148   -2.9022   26.6754 C   0  0  0  0  0  0  0  0  0  0  0  0
    1.4644  -11.5280   14.2181 C   0  0  0  0  0  0  0  0  0  0  0  0
    9.1648   -7.5819   28.9948 O   0  0  0  0  0  0  0  0  0  0  0  0
    0.9789   -3.4887   26.7926 C   0  0  0  0  0  0  0  0  0  0  0  0
   -0.0852  -10.1626   15.1386 C   0  0  0  0  0  0  0  0  0  0  0  0
   -1.2688   -4.9271   26.8283 O   0  0  0  0  0  0  0  0  0  0  0  0
   -0.3204   -5.4908   27.3264 C   0  0  0  0  0  0  0  0  0  0  0  0
    2.4717  -11.9745   13.7684 O   0  0  0  0  0  0  0  0  0  0  0  0
   -0.2189  -13.1760   13.5468 C   0  0  0  0  0  0  0  0  0  0  0  0
   -0.4105   -6.5531   28.1147 N   0  0  0  0  0  0  0  0  0  0  0  0
   10.3781   -8.6500   27.2511 C   0  0  0  0  0  0  0  0  0  0  0  0
    6.7585   -6.1773   27.9388 C   0  0  0  0  0  0  0  0  0  0  0  0
    3.4273   -3.7261   26.8122 C   0  0  0  0  0  0  0  0  0  0  0  0
    9.0368   -8.0094   27.8493 C   0  0  0  0  0  0  0  0  0  0  0  0
   -0.7352   -9.1337   15.8322 N   0  0  0  0  0  0  0  0  0  0  0  0
    0.2042  -12.0292   14.0233 N   0  0  0  0  0  0  0  0  0  0  0  0
    7.9398   -8.0617   27.1251 N   0  0  0  0  0  0  0  0  0  0  0  0
    4.6234   -7.0729   26.6083 C   0  0  0  0  0  0  0  0  0  0  0  0
    1.2829  -10.2811   14.8289 C   0  0  0  0  0  0  0  0  0  0  0  0
    2.3098   -9.3969   15.1651 C   0  0  0  0  0  0  0  0  0  0  0  0
    5.5998   -5.4181   27.9650 C   0  0  0  0  0  0  0  0  0  0  0  0
    6.8351   -7.3540   27.2535 C   0  0  0  0  0  0  0  0  0  0  0  0
    0.9314   -4.8455   27.1580 C   0  0  0  0  0  0  0  0  0  0  0  0
    3.3261   -5.1302   27.1515 C   0  0  0  0  0  0  0  0  0  0  0  0
  1 22  4  0
  1 26  4  0
  2 27  4  0
  2 28  4  0
  3  9  4  0
  3 20  4  0
  4 22  4  0
  4 25  4  0
  4 28  1  0
  5  8  4  0
  5 17  4  0
  6 12  2  0
  6 20  4  0
  6 23  4  0
  7 18  2  0
  8 27  4  0
  9 19  1  0
  9 21  2  0
  9 23  4  0
 11 14  1  0
 11 27  1  0
 13 20  1  0
 15 18  1  0
 16 25  4  0
 16 26  4  0
 17 28  4  0
 18 21  1  0
 21 26  1  0
 23 24  1  0
M  END
$$$$

 Created by Python create_sdf_string function

 28 32  0  0  0  0  0  0  0  0999 V2000
    5.7221   -7.8339   26.6125 C   0  0  0  0  0  0  0  0  0  0  0  0
    2.0605   -5.6287   27.2575 C   0  0  0  0  0  0  0  0  0  0  0  0
   -0.7479  -11.2046   14.6645 N   0  0  0  0  0  0  0  0  0  0  0  0
    4.4898   -5.8435   27.1764 C   0  0  0  0  0  0  0  0  0  0  0  0
    2.2097   -2.8644   26.6508 C   0  0  0  0  0  0  0  0  0  0  0  0
    1.4652  -11.5206   14.1732 C   0  0  0  0  0  0  0  0  0  0  0  0
    9.1617   -7.5539   28.9439 O   0  0  0  0  0  0  0  0  0  0  0  0
    0.9865   -3.4616   26.7816 C   0  0  0  0  0  0  0  0  0  0  0  0
   -0.1108  -10.1832   15.1157 C   0  0  0  0  0  0  0  0  0  0  0  0
   -1.2990   -4.9705   26.8794 O   0  0  0  0  0  0  0  0  0  0  0  0
   -0.3160   -5.4672   27.3538 C   0  0  0  0  0  0  0  0  0  0  0  0
    2.4878  -12.0059   13.7715 O   0  0  0  0  0  0  0  0  0  0  0  0
   -0.1807  -13.1252   13.4907 C   0  0  0  0  0  0  0  0  0  0  0  0
   -0.3578   -6.5826   28.1060 N   0  0  0  0  0  0  0  0  0  0  0  0
   10.3172   -8.7085   27.2153 C   0  0  0  0  0  0  0  0  0  0  0  0
    6.7656   -6.1656   27.9523 C   0  0  0  0  0  0  0  0  0  0  0  0
    3.3810   -3.6933   26.8353 C   0  0  0  0  0  0  0  0  0  0  0  0
    9.0639   -8.0254   27.8300 C   0  0  0  0  0  0  0  0  0  0  0  0
   -0.7582   -9.1910   15.8472 N   0  0  0  0  0  0  0  0  0  0  0  0
    0.1676  -11.9850   14.0697 N   0  0  0  0  0  0  0  0  0  0  0  0
    7.9379   -8.0714   27.1271 N   0  0  0  0  0  0  0  0  0  0  0  0
    4.5983   -7.1056   26.5457 C   0  0  0  0  0  0  0  0  0  0  0  0
    1.3276  -10.2717   14.8604 C   0  0  0  0  0  0  0  0  0  0  0  0
    2.3003   -9.3583   15.2010 C   0  0  0  0  0  0  0  0  0  0  0  0
    5.6725   -5.3797   27.9111 C   0  0  0  0  0  0  0  0  0  0  0  0
    6.8404   -7.3304   27.2091 C   0  0  0  0  0  0  0  0  0  0  0  0
    0.9783   -4.8781   27.1033 C   0  0  0  0  0  0  0  0  0  0  0  0
    3.3113   -5.1094   27.0951 C   0  0  0  0  0  0  0  0  0  0  0  0
  1 22  4  0
  1 26  4  0
  2 27  4  0
  2 28  4  0
  3  4  4  0
  3  9  4  0
  3 20  4  0
  4 22  4  0
  4 25  4  0
  4 28  1  0
  5  8  2  0
  5 17  4  0
  6 12  2  0
  6 15  4  0
  6 20  4  0
  6 23  4  0
  7 18  2  0
  8 27  4  0
  9 19  1  0
  9 23  4  0
 10 11  2  0
 11 14  1  0
 11 27  1  0
 13 20  1  0
 15 18  1  0
 15 20  1  0
 16 25  4  0
 16 26  4  0
 17 28  4  0
 18 21  1  0
 21 26  1  0
 23 24  1  0
M  END
$$$$

 Created by Python create_sdf_string function

 28 30  0  0  0  0  0  0  0  0999 V2000
    5.6881   -7.8308   26.5956 C   0  0  0  0  0  0  0  0  0  0  0  0
    2.0771   -5.6415   27.2489 C   0  0  0  0  0  0  0  0  0  0  0  0
   -0.7451  -11.2381   14.6809 N   0  0  0  0  0  0  0  0  0  0  0  0
    4.4944   -5.8251   27.1676 C   0  0  0  0  0  0  0  0  0  0  0  0
    2.2366   -2.9105   26.6620 C   0  0  0  0  0  0  0  0  0  0  0  0
    1.4542  -11.4744   14.1782 C   0  0  0  0  0  0  0  0  0  0  0  0
    9.1059   -7.5331   28.9275 O   0  0  0  0  0  0  0  0  0  0  0  0
    0.9674   -3.4995   26.7926 C   0  0  0  0  0  0  0  0  0  0  0  0
   -0.0794  -10.1819   15.1414 C   0  0  0  0  0  0  0  0  0  0  0  0
   -1.3185   -4.9371   26.9223 O   0  0  0  0  0  0  0  0  0  0  0  0
   -0.3094   -5.5100   27.3465 C   0  0  0  0  0  0  0  0  0  0  0  0
    2.4525  -12.0261   13.7675 O   0  0  0  0  0  0  0  0  0  0  0  0
   -0.2088  -13.1242   13.5177 C   0  0  0  0  0  0  0  0  0  0  0  0
   -0.3688   -6.5805   28.0619 N   0  0  0  0  0  0  0  0  0  0  0  0
   10.2873   -8.7431   27.2501 C   0  0  0  0  0  0  0  0  0  0  0  0
    6.7520   -6.1641   27.9657 C   0  0  0  0  0  0  0  0  0  0  0  0
    3.3983   -3.6802   26.8458 C   0  0  0  0  0  0  0  0  0  0  0  0
    9.0459   -8.0295   27.8479 C   0  0  0  0  0  0  0  0  0  0  0  0
   -0.7015   -9.1660   15.8146 N   0  0  0  0  0  0  0  0  0  0  0  0
    0.1370  -11.9597   14.0447 N   0  0  0  0  0  0  0  0  0  0  0  0
    7.9450   -8.0713   27.1252 N   0  0  0  0  0  0  0  0  0  0  0  0
    4.5648   -7.1325   26.5624 C   0  0  0  0  0  0  0  0  0  0  0  0
    1.3032  -10.2505   14.8925 C   0  0  0  0  0  0  0  0  0  0  0  0
    5.5801   -5.3928   27.8836 C   0  0  0  0  0  0  0  0  0  0  0  0
    6.8453   -7.3432   27.2319 C   0  0  0  0  0  0  0  0  0  0  0  0
    0.9907   -4.8641   27.1001 C   0  0  0  0  0  0  0  0  0  0  0  0
    3.3305   -5.0074   27.0508 C   0  0  0  0  0  0  0  0  0  0  0  0
    2.2093   -9.3717   15.1718 He  0  0  0  0  0  0  0  0  0  0  0  0
  1 22  4  0
  1 25  4  0
  2 18  1  0
  2 26  4  0
  2 27  4  0
  3  9  4  0
  3 20  4  0
  4 22  4  0
  4 24  4  0
  4 27  1  0
  5  8  4  0
  5 17  4  0
  6 12  2  0
  6 20  4  0
  6 23  4  0
  7 18  2  0
  8 26  4  0
  9 19  1  0
  9 23  4  0
 10 11  2  0
 11 14  1  0
 11 26  1  0
 13 20  1  0
 14 15  3  0
 15 18  1  0
 16 24  4  0
 16 25  4  0
 17 27  4  0
 18 21  1  0
 21 25  1  0
M  END
$$$$

 Created by Python create_sdf_string function

 28 32  0  0  0  0  0  0  0  0999 V2000
    5.6966   -7.8343   26.5659 C   0  0  0  0  0  0  0  0  0  0  0  0
    2.1096   -5.6152   27.2294 C   0  0  0  0  0  0  0  0  0  0  0  0
   -0.7625  -11.1914   14.6589 N   0  0  0  0  0  0  0  0  0  0  0  0
    4.4879   -5.8289   27.1612 C   0  0  0  0  0  0  0  0  0  0  0  0
    2.2240   -2.8516   26.6659 C   0  0  0  0  0  0  0  0  0  0  0  0
    1.4496  -11.4749   14.1934 C   0  0  0  0  0  0  0  0  0  0  0  0
    9.1004   -7.4800   28.9181 O   0  0  0  0  0  0  0  0  0  0  0  0
    1.0024   -3.5100   26.7549 C   0  0  0  0  0  0  0  0  0  0  0  0
   -0.0951  -10.1837   15.1638 C   0  0  0  0  0  0  0  0  0  0  0  0
   -1.2863   -4.9498   26.8864 O   0  0  0  0  0  0  0  0  0  0  0  0
   -0.2974   -5.4658   27.3113 C   0  0  0  0  0  0  0  0  0  0  0  0
    2.4292  -12.0374   13.7743 O   0  0  0  0  0  0  0  0  0  0  0  0
   -0.2134  -13.1412   13.4867 C   0  0  0  0  0  0  0  0  0  0  0  0
   -0.3653   -6.6008   28.0260 N   0  0  0  0  0  0  0  0  0  0  0  0
   10.2939   -8.7356   27.2625 C   0  0  0  0  0  0  0  0  0  0  0  0
    6.7254   -6.1565   27.9205 C   0  0  0  0  0  0  0  0  0  0  0  0
    3.3616   -3.6731   26.8631 C   0  0  0  0  0  0  0  0  0  0  0  0
    9.0662   -8.0402   27.8277 C   0  0  0  0  0  0  0  0  0  0  0  0
   -0.7218   -9.1501   15.7952 N   0  0  0  0  0  0  0  0  0  0  0  0
    0.1799  -11.9885   14.0552 N   0  0  0  0  0  0  0  0  0  0  0  0
    7.9246   -8.0674   27.1114 N   0  0  0  0  0  0  0  0  0  0  0  0
    4.5436   -7.1186   26.5316 C   0  0  0  0  0  0  0  0  0  0  0  0
    1.2824  -10.2639   14.8597 C   0  0  0  0  0  0  0  0  0  0  0  0
    2.2131   -9.3329   15.2083 F   0  0  0  0  0  0  0  0  0  0  0  0
    5.6028   -5.3599   27.8482 C   0  0  0  0  0  0  0  0  0  0  0  0
    6.8215   -7.3407   27.2405 C   0  0  0  0  0  0  0  0  0  0  0  0
    0.9606   -4.8300   27.1465 C   0  0  0  0  0  0  0  0  0  0  0  0
    3.3193   -5.0320   27.0695 C   0  0  0  0  0  0  0  0  0  0  0  0
  1 22  4  0
  1 26  4  0
  2 27  4  0
  2 28  4  0
  3  9  4  0
  3 20  4  0
  3 23  3  0
  4 22  4  0
  4 25  4  0
  4 28  1  0
  5  8  4  0
  5 17  4  0
  6 12  2  0
  6 20  4  0
  6 23  4  0
  7 18  2  0
  8 27  4  0
  9 19  1  0
  9 23  4  0
  9 24  4  0
 10 11  2  0
 11 14  1  0
 11 23  2  0
 11 27  1  0
 13 20  1  0
 15 18  1  0
 16 25  4  0
 16 26  4  0
 17 28  4  0
 18 21  1  0
 21 26  1  0
 23 24  1  0
M  END
$$$$

 Created by Python create_sdf_string function

 28 31  0  0  0  0  0  0  0  0999 V2000
    5.6783   -7.8237   26.5412 C   0  0  0  0  0  0  0  0  0  0  0  0
    2.0975   -5.5841   27.2296 C   0  0  0  0  0  0  0  0  0  0  0  0
   -0.7614  -11.2062   14.6522 N   0  0  0  0  0  0  0  0  0  0  0  0
    4.4707   -5.8054   27.1488 C   0  0  0  0  0  0  0  0  0  0  0  0
    2.2296   -2.8500   26.6537 C   0  0  0  0  0  0  0  0  0  0  0  0
    1.4462  -11.4837   14.1864 C   0  0  0  0  0  0  0  0  0  0  0  0
    9.0696   -7.4490   28.8863 O   0  0  0  0  0  0  0  0  0  0  0  0
    0.9942   -3.4755   26.7774 C   0  0  0  0  0  0  0  0  0  0  0  0
   -0.1181  -10.1707   15.1277 C   0  0  0  0  0  0  0  0  0  0  0  0
   -1.3195   -4.9373   26.8791 O   0  0  0  0  0  0  0  0  0  0  0  0
   -0.3144   -5.4728   27.3321 C   0  0  0  0  0  0  0  0  0  0  0  0
    2.4130  -12.0027   13.7705 O   0  0  0  0  0  0  0  0  0  0  0  0
   -0.2091  -13.1304   13.4701 C   0  0  0  0  0  0  0  0  0  0  0  0
   -0.3729   -6.6159   28.0146 N   0  0  0  0  0  0  0  0  0  0  0  0
   10.2936   -8.7406   27.2568 C   0  0  0  0  0  0  0  0  0  0  0  0
    6.7177   -6.1533   27.9141 C   0  0  0  0  0  0  0  0  0  0  0  0
    3.3575   -3.6639   26.8692 C   0  0  0  0  0  0  0  0  0  0  0  0
    9.0555   -8.0111   27.8228 C   0  0  0  0  0  0  0  0  0  0  0  0
   -0.7171   -9.1386   15.7875 N   0  0  0  0  0  0  0  0  0  0  0  0
    0.1674  -11.9828   14.0619 N   0  0  0  0  0  0  0  0  0  0  0  0
    7.9420   -8.0577   27.0939 N   0  0  0  0  0  0  0  0  0  0  0  0
    4.5299   -7.1174   26.5664 C   0  0  0  0  0  0  0  0  0  0  0  0
    1.2927  -10.2651   14.8888 C   0  0  0  0  0  0  0  0  0  0  0  0
    2.1907   -9.3536   15.2028 F   0  0  0  0  0  0  0  0  0  0  0  0
    5.5964   -5.3810   27.8235 C   0  0  0  0  0  0  0  0  0  0  0  0
    6.7939   -7.3243   27.2276 C   0  0  0  0  0  0  0  0  0  0  0  0
    0.9780   -4.8279   27.1084 C   0  0  0  0  0  0  0  0  0  0  0  0
    3.2882   -5.0225   27.0685 C   0  0  0  0  0  0  0  0  0  0  0  0
  1 22  4  0
  1 26  4  0
  2 27  4  0
  2 28  4  0
  3  9  4  0
  3 20  4  0
  4 22  4  0
  4 25  4  0
  4 28  1  0
  5  8  4  0
  5 17  4  0
  6 12  2  0
  6 20  4  0
  6 23  4  0
  7 15  4  0
  7 18  2  0
  8 27  4  0
  9 19  1  0
  9 23  4  0
 10 11  2  0
 11 14  1  0
 11 27  1  0
 13 20  1  0
 15 18  1  0
 16 25  4  0
 16 26  4  0
 17 28  4  0
 18 21  1  0
 19 25  3  0
 21 26  1  0
 23 24  1  0
M  END
$$$$

 Created by Python create_sdf_string function

 28 29  0  0  0  0  0  0  0  0999 V2000
    5.6490   -7.8093   26.5214 Cl  0  0  0  0  0  0  0  0  0  0  0  0
    2.0859   -5.6009   27.2017 C   0  0  0  0  0  0  0  0  0  0  0  0
   -0.7448  -11.2093   14.6528 N   0  0  0  0  0  0  0  0  0  0  0  0
    4.4742   -5.8041   27.1388 C   0  0  0  0  0  0  0  0  0  0  0  0
    2.2407   -2.8704   26.6470 C   0  0  0  0  0  0  0  0  0  0  0  0
    1.4550  -11.4637   14.2057 C   0  0  0  0  0  0  0  0  0  0  0  0
    9.0543   -7.4061   28.8570 O   0  0  0  0  0  0  0  0  0  0  0  0
    0.9700   -3.4626   26.7969 C   0  0  0  0  0  0  0  0  0  0  0  0
   -0.1243  -10.1588   15.1355 C   0  0  0  0  0  0  0  0  0  0  0  0
   -1.3030   -4.9448   26.8733 O   0  0  0  0  0  0  0  0  0  0  0  0
   -0.3059   -5.4479   27.3277 C   0  0  0  0  0  0  0  0  0  0  0  0
    2.4096  -11.9864   13.7584 O   0  0  0  0  0  0  0  0  0  0  0  0
   -0.2068  -13.1236   13.4700 C   0  0  0  0  0  0  0  0  0  0  0  0
   -0.3739   -6.6308   27.9918 N   0  0  0  0  0  0  0  0  0  0  0  0
   10.3090   -8.7250   27.2727 C   0  0  0  0  0  0  0  0  0  0  0  0
    6.7176   -6.1532   27.8902 C   0  0  0  0  0  0  0  0  0  0  0  0
    3.3644   -3.6431   26.8604 C   0  0  0  0  0  0  0  0  0  0  0  0
    9.0341   -7.9862   27.8266 C   0  0  0  0  0  0  0  0  0  0  0  0
   -0.7133   -9.1424   15.7820 N   0  0  0  0  0  0  0  0  0  0  0  0
    0.1574  -11.9907   14.0810 N   0  0  0  0  0  0  0  0  0  0  0  0
    7.9049   -8.0474   27.0913 N   0  0  0  0  0  0  0  0  0  0  0  0
    4.5018   -7.0815   26.5641 C   0  0  0  0  0  0  0  0  0  0  0  0
    1.2708  -10.2517   14.8814 C   0  0  0  0  0  0  0  0  0  0  0  0
    2.1973   -9.3740   15.2016 F   0  0  0  0  0  0  0  0  0  0  0  0
    5.6033   -5.3765   27.8285 C   0  0  0  0  0  0  0  0  0  0  0  0
    6.7603   -7.3460   27.1955 C   0  0  0  0  0  0  0  0  0  0  0  0
    0.9335   -4.8285   27.1081 C   0  0  0  0  0  0  0  0  0  0  0  0
    3.3034   -5.0187   27.0615 C   0  0  0  0  0  0  0  0  0  0  0  0
  1 22  4  0
  1 26  4  0
  2 27  4  0
  2 28  4  0
  3  9  4  0
  3 20  4  0
  4 22  4  0
  4 25  4  0
  4 28  1  0
  5  8  4  0
  5 17  4  0
  6 12  2  0
  6 20  4  0
  6 23  4  0
  7 18  2  0
  8 27  4  0
  9 19  1  0
  9 23  4  0
 10 11  2  0
 11 14  1  0
 11 27  1  0
 13 20  1  0
 15 18  1  0
 16 25  4  0
 16 26  4  0
 17 28  4  0
 18 21  1  0
 21 26  1  0
 23 24  1  0
M  END
$$$$

 Created by Python create_sdf_string function

 28 31  0  0  0  0  0  0  0  0999 V2000
    5.6472   -7.7893   26.5301 C   0  0  0  0  0  0  0  0  0  0  0  0
    2.0791   -5.5973   27.1978 C   0  0  0  0  0  0  0  0  0  0  0  0
   -0.7726  -11.2057   14.6527 N   0  0  0  0  0  0  0  0  0  0  0  0
    4.4665   -5.7923   27.1393 C   0  0  0  0  0  0  0  0  0  0  0  0
    2.2303   -2.8477   26.6533 C   0  0  0  0  0  0  0  0  0  0  0  0
    1.4230  -11.4657   14.1980 C   0  0  0  0  0  0  0  0  0  0  0  0
    9.0303   -7.3848   28.8398 O   0  0  0  0  0  0  0  0  0  0  0  0
    0.9824   -3.4524   26.7925 C   0  0  0  0  0  0  0  0  0  0  0  0
   -0.1183  -10.1413   15.1392 C   0  0  0  0  0  0  0  0  0  0  0  0
   -1.3112   -4.9191   26.8783 O   0  0  0  0  0  0  0  0  0  0  0  0
   -0.3007   -5.4617   27.3157 C   0  0  0  0  0  0  0  0  0  0  0  0
    2.4010  -11.9875   13.7710 O   0  0  0  0  0  0  0  0  0  0  0  0
   -0.2024  -13.1264   13.4691 C   0  0  0  0  0  0  0  0  0  0  0  0
   -0.3740   -6.6245   27.9900 N   0  0  0  0  0  0  0  0  0  0  0  0
   10.2916   -8.7103   27.2783 C   0  0  0  0  0  0  0  0  0  0  0  0
    6.7226   -6.1574   27.8774 C   0  0  0  0  0  0  0  0  0  0  0  0
    3.3520   -3.6501   26.8468 C   0  0  0  0  0  0  0  0  0  0  0  0
    9.0130   -7.9959   27.7994 C   0  0  0  0  0  0  0  0  0  0  0  0
   -0.7146   -9.1315   15.7871 N   0  0  0  0  0  0  0  0  0  0  0  0
    0.1564  -11.9693   14.0962 N   0  0  0  0  0  0  0  0  0  0  0  0
    7.8753   -8.0502   27.0905 N   0  0  0  0  0  0  0  0  0  0  0  0
    4.4770   -7.0710   26.5454 C   0  0  0  0  0  0  0  0  0  0  0  0
    1.2518  -10.2391   14.8834 C   0  0  0  0  0  0  0  0  0  0  0  0
    2.1750   -9.3764   15.2065 F   0  0  0  0  0  0  0  0  0  0  0  0
    5.5922   -5.3688   27.8182 C   0  0  0  0  0  0  0  0  0  0  0  0
    6.7615   -7.3216   27.1933 C   0  0  0  0  0  0  0  0  0  0  0  0
    0.9479   -4.8189   27.1058 C   0  0  0  0  0  0  0  0  0  0  0  0
    3.3041   -5.0056   27.0671 C   0  0  0  0  0  0  0  0  0  0  0  0
  1 22  4  0
  1 26  4  0
  2 21  3  0
  2 27  4  0
  2 28  4  0
  3  9  4  0
  3 20  4  0
  4 22  4  0
  4 25  4  0
  4 28  1  0
  5  8  4  0
  5 17  4  0
  6 12  2  0
  6 20  4  0
  6 23  4  0
  7 18  2  0
  8 27  4  0
  9 19  1  0
  9 23  4  0
 10 11  2  0
 11 13  1  0
 11 14  1  0
 11 27  1  0
 13 20  1  0
 15 18  1  0
 16 25  4  0
 16 26  4  0
 17 28  4  0
 18 21  1  0
 21 26  1  0
 23 24  2  0
M  END
$$$$

 Created by Python create_sdf_string function

 28 29  0  0  0  0  0  0  0  0999 V2000
    5.6230   -7.7964   26.5169 C   0  0  0  0  0  0  0  0  0  0  0  0
    2.0821   -5.5849   27.1951 C   0  0  0  0  0  0  0  0  0  0  0  0
   -0.7917  -11.1976   14.6570 N   0  0  0  0  0  0  0  0  0  0  0  0
    4.4486   -5.7810   27.1328 C   0  0  0  0  0  0  0  0  0  0  0  0
    2.2317   -2.8359   26.6600 C   0  0  0  0  0  0  0  0  0  0  0  0
    1.4166  -11.4596   14.1965 C   0  0  0  0  0  0  0  0  0  0  0  0
    9.0145   -7.3663   28.8097 O   0  0  0  0  0  0  0  0  0  0  0  0
    0.9856   -3.4343   26.7876 C   0  0  0  0  0  0  0  0  0  0  0  0
   -0.1299  -10.1416   15.1403 C   0  0  0  0  0  0  0  0  0  0  0  0
   -1.3056   -4.9082   26.8891 O   0  0  0  0  0  0  0  0  0  0  0  0
   -0.3066   -5.4519   27.3161 C   0  0  0  0  0  0  0  0  0  0  0  0
    2.3815  -11.9806   13.7748 O   0  0  0  0  0  0  0  0  0  0  0  0
   -0.2096  -13.1246   13.4736 C   0  0  0  0  0  0  0  0  0  0  0  0
   -0.3653   -6.6190   27.9803 N   0  0  0  0  0  0  0  0  0  0  0  0
   10.2909   -8.7083   27.2835 C   0  0  0  0  0  0  0  0  0  0  0  0
    6.7055   -6.1463   27.8616 C   0  0  0  0  0  0  0  0  0  0  0  0
    3.3523   -3.6319   26.8487 C   0  0  0  0  0  0  0  0  0  0  0  0
    9.0118   -7.9915   27.7907 C   0  0  0  0  0  0  0  0  0  0  0  0
   -0.7138   -9.1331   15.7813 N   0  0  0  0  0  0  0  0  0  0  0  0
    0.1273  -11.9732   14.0958 N   0  0  0  0  0  0  0  0  0  0  0  0
    7.8775   -8.0605   27.0831 N   0  0  0  0  0  0  0  0  0  0  0  0
    4.4916   -7.0662   26.5443 C   0  0  0  0  0  0  0  0  0  0  0  0
    1.2589  -10.2257   14.8881 C   0  0  0  0  0  0  0  0  0  0  0  0
    2.1742   -9.3675   15.2092 F   0  0  0  0  0  0  0  0  0  0  0  0
    5.5980   -5.3647   27.7964 C   0  0  0  0  0  0  0  0  0  0  0  0
    6.7390   -7.3236   27.1809 C   0  0  0  0  0  0  0  0  0  0  0  0
    0.9489   -4.8063   27.1042 C   0  0  0  0  0  0  0  0  0  0  0  0
    3.2988   -5.0054   27.0640 C   0  0  0  0  0  0  0  0  0  0  0  0
  1 22  4  0
  1 26  4  0
  2 27  4  0
  2 28  4  0
  3  9  4  0
  3 20  4  0
  4 22  4  0
  4 25  4  0
  4 28  1  0
  5  8  4  0
  5 17  4  0
  6 12  2  0
  6 20  4  0
  6 23  4  0
  7 18  2  0
  8 27  4  0
  9 19  1  0
  9 23  4  0
 10 11  2  0
 11 14  1  0
 11 27  1  0
 13 20  1  0
 15 18  1  0
 16 25  4  0
 16 26  4  0
 17 28  4  0
 18 21  1  0
 21 26  1  0
 23 24  2  0
M  END
$$$$

 Created by Python create_sdf_string function

 28 55  0  0  0  0  0  0  0  0999 V2000
    5.8356   -8.3308   27.3542 C   0  0  0  0  0  0  0  0  0  0  0  0
    2.1605   -5.7079   27.0214 C   0  0  0  0  0  0  0  0  0  0  0  0
    2.3329  -10.0515   21.4147 P   0  0  0  0  0  0  0  0  0  0  0  0
    2.5614   -2.8274   27.2372 C   0  0  0  0  0  0  0  0  0  0  0  0
    3.9422   -7.7121   23.6061 Cl  0  0  0  0  0  0  0  0  0  0  0  0
    9.0705   -6.8373   28.0910 O   0  0  0  0  0  0  0  0  0  0  0  0
    0.7640   -3.4202   26.8289 O   0  0  0  0  0  0  0  0  0  0  0  0
    1.8315   -8.5355   23.7688 F   0  0  0  0  0  0  0  0  0  0  0  0
   -1.3278   -5.5984   26.9394 O   0  0  0  0  0  0  0  0  0  0  0  0
   -0.7689   -5.6905   27.9916 C   0  0  0  0  0  0  0  0  0  0  0  0
    3.9291   -7.9792   22.0070 O   0  0  0  0  0  0  0  0  0  0  0  0
    6.3603   -6.1620   27.8420 C   0  0  0  0  0  0  0  0  0  0  0  0
    8.6691   -7.6097   28.1805 C   0  0  0  0  0  0  0  0  0  0  0  0
    3.6514   -6.8500   23.4580 C   0  0  0  0  0  0  0  0  0  0  0  0
    7.7396   -8.2211   26.7104 N   0  0  0  0  0  0  0  0  0  0  0  0
    4.3105   -7.6946   26.7618 C   0  0  0  0  0  0  0  0  0  0  0  0
    5.0919   -5.9092   27.9519 C   0  0  0  0  0  0  0  0  0  0  0  0
    0.9512   -4.6359   27.4222 C   0  0  0  0  0  0  0  0  0  0  0  0
    3.1648   -5.3960   26.8068 C   0  0  0  0  0  0  0  0  0  0  0  0
    4.6299   -6.5784   27.6549 He  0  0  0  0  0  0  0  0  0  0  0  0
    2.2079   -7.6839   22.4158 He  0  0  0  0  0  0  0  0  0  0  0  0
   -0.2229   -6.1762   28.2960 He  0  0  0  0  0  0  0  0  0  0  0  0
   10.2181   -8.2206   26.6571 He  0  0  0  0  0  0  0  0  0  0  0  0
    3.8164   -3.7807   26.9897 He  0  0  0  0  0  0  0  0  0  0  0  0
    5.1027   -8.7694   22.1241 He  0  0  0  0  0  0  0  0  0  0  0  0
    3.4797   -9.3973   22.8771 He  0  0  0  0  0  0  0  0  0  0  0  0
    4.7335   -9.7391   21.2620 He  0  0  0  0  0  0  0  0  0  0  0  0
    6.5054   -7.0355   27.1535 He  0  0  0  0  0  0  0  0  0  0  0  0
  1  3  3  0
  1  6  4  0
  1  8  3  0
  1 16  4  0
  2  4  4  0
  2  8  2  0
  2 17  4  0
  2 18  4  0
  2 19  4  0
  3  4  3  0
  3  5  2  0
  3  7  1  0
  3  9  3  0
  3 10  3  0
  3 13  4  0
  3 16  1  0
  3 19  4  0
  4  7  4  0
  4  8  3  0
  4 11  3  0
  4 14  2  0
  4 15  2  0
  5  8  2  0
  5 10  4  0
  5 11  3  0
  5 14  2  0
  5 17  3  0
  6  9  4  0
  6 13  2  0
  6 14  3  0
  7  8  1  0
  7 17  2  0
  8  9  2  0
  8 10  2  0
  8 13  3  0
  8 17  2  0
  8 18  3  0
  8 19  1  0
  9 10  2  0
  9 15  1  0
  9 17  2  0
 10 14  4  0
 10 18  1  0
 11 14  1  0
 11 17  3  0
 11 19  4  0
 12 17  4  0
 12 18  4  0
 13 15  1  0
 14 15  4  0
 14 17  4  0
 14 18  2  0
 15 17  2  0
 16 17  4  0
 17 19  2  0
M  END
$$$$

 Created by Python create_sdf_string function

 28 45  0  0  0  0  0  0  0  0999 V2000
    0.6990   -6.4493   26.8390 C   0  0  0  0  0  0  0  0  0  0  0  0
    4.2373   -6.4285   27.2448 C   0  0  0  0  0  0  0  0  0  0  0  0
    2.6304   -3.2227   27.1451 I   0  0  0  0  0  0  0  0  0  0  0  0
    9.5470   -6.9223   28.8426 O   0  0  0  0  0  0  0  0  0  0  0  0
    1.7938   -8.6459   23.3604 C   0  0  0  0  0  0  0  0  0  0  0  0
   -1.8847   -4.4430   26.6818 O   0  0  0  0  0  0  0  0  0  0  0  0
   -0.7640   -4.9843   28.2908 S   0  0  0  0  0  0  0  0  0  0  0  0
    3.1685   -9.9659   22.9070 O   0  0  0  0  0  0  0  0  0  0  0  0
   -0.2396   -6.3015   27.9425 O   0  0  0  0  0  0  0  0  0  0  0  0
   10.0099   -7.8446   26.2233 C   0  0  0  0  0  0  0  0  0  0  0  0
    3.4621   -3.4554   26.4756 C   0  0  0  0  0  0  0  0  0  0  0  0
    3.5094   -7.8472   23.4552 P   0  0  0  0  0  0  0  0  0  0  0  0
    7.4792   -8.1288   26.8053 O   0  0  0  0  0  0  0  0  0  0  0  0
    4.7590   -7.2236   26.7122 C   0  0  0  0  0  0  0  0  0  0  0  0
    4.6455   -5.4222   27.2536 C   0  0  0  0  0  0  0  0  0  0  0  0
    6.4983   -7.5431   27.1833 C   0  0  0  0  0  0  0  0  0  0  0  0
    1.4152   -5.1315   27.2683 C   0  0  0  0  0  0  0  0  0  0  0  0
    3.6329   -5.3449   26.8737 C   0  0  0  0  0  0  0  0  0  0  0  0
    6.1052   -7.8228   27.0549 He  0  0  0  0  0  0  0  0  0  0  0  0
    5.4848   -9.7529   20.6576 He  0  0  0  0  0  0  0  0  0  0  0  0
    3.7706   -7.4778   23.7996 He  0  0  0  0  0  0  0  0  0  0  0  0
    0.2875   -3.5114   27.0853 He  0  0  0  0  0  0  0  0  0  0  0  0
    5.2945   -8.7613   23.5437 He  0  0  0  0  0  0  0  0  0  0  0  0
    6.4852   -5.9663   28.3458 He  0  0  0  0  0  0  0  0  0  0  0  0
    9.0797   -7.1543   27.6529 He  0  0  0  0  0  0  0  0  0  0  0  0
    4.1364   -8.4454   22.7175 He  0  0  0  0  0  0  0  0  0  0  0  0
    4.8649   -9.1908   21.2845 He  0  0  0  0  0  0  0  0  0  0  0  0
    4.6455   -8.3075   20.9966 He  0  0  0  0  0  0  0  0  0  0  0  0
  1  8  4  0
  1 12  2  0
  1 15  1  0
  1 17  4  0
  1 18  3  0
  2  3  2  0
  2 12  2  0
  2 14  4  0
  2 15  4  0
  2 17  3  0
  2 18  2  0
  3  5  4  0
  3  7  2  0
  3  8  2  0
  3  9  3  0
  3 11  4  0
  4 15  3  0
  5  8  1  0
  5  9  2  0
  5 11  2  0
  5 13  3  0
  5 14  1  0
  5 15  1  0
  5 17  4  0
  6  7  2  0
  6 10  3  0
  6 12  2  0
  6 18  3  0
  7  9  3  0
  7 12  3  0
  7 17  1  0
  8 10  2  0
  8 13  2  0
  8 14  1  0
  8 17  2  0
  9 12  4  0
  9 16  2  0
 10 12  4  0
 11 12  2  0
 11 18  4  0
 12 15  4  0
 12 16  1  0
 12 18  2  0
 13 16  1  0
 14 15  2  0
M  END
$$$$

 Created by Python create_sdf_string function

 28 43  0  0  0  0  0  0  0  0999 V2000
    5.2128   -8.0710   26.1511 C   0  0  0  0  0  0  0  0  0  0  0  0
    4.4416   -9.3556   20.9479 C   0  0  0  0  0  0  0  0  0  0  0  0
    4.3147   -5.6497   27.1618 C   0  0  0  0  0  0  0  0  0  0  0  0
    1.6264   -3.1681   27.3049 C   0  0  0  0  0  0  0  0  0  0  0  0
    8.6331   -6.5050   28.5123 F   0  0  0  0  0  0  0  0  0  0  0  0
    5.6187   -7.7874   23.8546 N   0  0  0  0  0  0  0  0  0  0  0  0
   -0.6281   -6.8522   28.6952 O   0  0  0  0  0  0  0  0  0  0  0  0
   10.8803   -8.1221   25.8891 C   0  0  0  0  0  0  0  0  0  0  0  0
    6.1463   -6.0228   27.8946 C   0  0  0  0  0  0  0  0  0  0  0  0
    9.6476   -7.3327   28.0117 C   0  0  0  0  0  0  0  0  0  0  0  0
    3.2870   -6.1327   23.6084 F   0  0  0  0  0  0  0  0  0  0  0  0
    8.1687   -7.9398   26.9804 N   0  0  0  0  0  0  0  0  0  0  0  0
    5.1603   -7.6115   26.4034 C   0  0  0  0  0  0  0  0  0  0  0  0
    7.1758   -8.8216   22.9057 N   0  0  0  0  0  0  0  0  0  0  0  0
    4.5091   -5.8767   27.9802 S   0  0  0  0  0  0  0  0  0  0  0  0
    7.0806   -7.2151   27.4962 O   0  0  0  0  0  0  0  0  0  0  0  0
    1.0989   -4.7055   27.4543 C   0  0  0  0  0  0  0  0  0  0  0  0
    2.6975   -5.7123   26.2739 C   0  0  0  0  0  0  0  0  0  0  0  0
    2.2322   -6.6711   26.5018 He  0  0  0  0  0  0  0  0  0  0  0  0
    3.6251   -8.6467   24.5830 He  0  0  0  0  0  0  0  0  0  0  0  0
    0.8652   -3.7626   26.9039 He  0  0  0  0  0  0  0  0  0  0  0  0
    3.1145   -8.4346   22.3127 He  0  0  0  0  0  0  0  0  0  0  0  0
   -1.3626   -4.3285   26.6059 He  0  0  0  0  0  0  0  0  0  0  0  0
   -0.9522   -4.6863   27.2738 He  0  0  0  0  0  0  0  0  0  0  0  0
    4.0446  -10.3173   20.7985 He  0  0  0  0  0  0  0  0  0  0  0  0
    3.2429   -4.2864   27.1406 He  0  0  0  0  0  0  0  0  0  0  0  0
    5.0229   -8.5348   22.3462 He  0  0  0  0  0  0  0  0  0  0  0  0
    4.3378   -9.4861   22.6304 He  0  0  0  0  0  0  0  0  0  0  0  0
  1  2  2  0
  1  6  3  0
  1  7  3  0
  1 13  4  0
  1 14  1  0
  1 18  1  0
  2  3  3  0
  2  8  1  0
  2 13  4  0
  2 14  3  0
  2 15  2  0
  3 13  1  0
  3 15  4  0
  3 16  4  0
  3 18  3  0
  4 11  3  0
  4 13  2  0
  4 14  2  0
  4 16  3  0
  5  9  2  0
  5 10  2  0
  5 11  1  0
  5 14  1  0
  5 15  3  0
  6 14  2  0
  6 16  4  0
  7 11  1  0
  7 16  2  0
  8 10  1  0
  8 12  1  0
  9 14  2  0
  9 15  4  0
 10 12  1  0
 10 14  3  0
 10 18  1  0
 11 14  1  0
 11 15  2  0
 12 15  4  0
 12 16  2  0
 12 17  2  0
 14 16  3  0
 14 17  3  0
 14 18  4  0
M  END
$$$$

 Created by Python create_sdf_string function

 28 71  0  0  0  0  0  0  0  0999 V2000
    1.9088   -5.8186   26.5744 C   0  0  0  0  0  0  0  0  0  0  0  0
    2.3833   -9.5665   19.5297 O   0  0  0  0  0  0  0  0  0  0  0  0
    4.1218   -6.3001   27.1861 C   0  0  0  0  0  0  0  0  0  0  0  0
    2.3893   -2.8975   27.2646 C   0  0  0  0  0  0  0  0  0  0  0  0
    4.8125   -8.7865   24.0893 F   0  0  0  0  0  0  0  0  0  0  0  0
    1.0783   -3.9951   27.2383 C   0  0  0  0  0  0  0  0  0  0  0  0
   -2.0782   -4.5985   26.8454 O   0  0  0  0  0  0  0  0  0  0  0  0
    5.7996   -8.6928   23.9263 F   0  0  0  0  0  0  0  0  0  0  0  0
   -1.1901   -6.7388   28.6036 O   0  0  0  0  0  0  0  0  0  0  0  0
   10.6646   -8.0709   26.1610 C   0  0  0  0  0  0  0  0  0  0  0  0
    6.5149   -6.4080   27.7868 C   0  0  0  0  0  0  0  0  0  0  0  0
    3.1609   -4.1893   27.5603 C   0  0  0  0  0  0  0  0  0  0  0  0
    9.2233   -7.7609   27.6726 C   0  0  0  0  0  0  0  0  0  0  0  0
    3.9008   -8.5586   19.4860 F   0  0  0  0  0  0  0  0  0  0  0  0
    8.0831   -7.7595   26.3269 N   0  0  0  0  0  0  0  0  0  0  0  0
    5.4076   -7.3065   26.2937 C   0  0  0  0  0  0  0  0  0  0  0  0
    5.6638   -7.7281   20.5522 F   0  0  0  0  0  0  0  0  0  0  0  0
    3.2970   -9.2896   21.4561 F   0  0  0  0  0  0  0  0  0  0  0  0
    4.8946   -5.5502   27.8926 C   0  0  0  0  0  0  0  0  0  0  0  0
    6.7830   -6.9034   27.8380 C   0  0  0  0  0  0  0  0  0  0  0  0
   -0.2530   -5.4005   27.5510 C   0  0  0  0  0  0  0  0  0  0  0  0
    3.2409   -5.7860   26.9981 C   0  0  0  0  0  0  0  0  0  0  0  0
    5.3921   -8.3011   26.6263 He  0  0  0  0  0  0  0  0  0  0  0  0
    9.9218   -6.5564   28.1388 He  0  0  0  0  0  0  0  0  0  0  0  0
    3.2765   -9.1529   22.8825 He  0  0  0  0  0  0  0  0  0  0  0  0
   -0.8581   -6.2489   27.8879 He  0  0  0  0  0  0  0  0  0  0  0  0
    3.6617   -9.6903   21.3811 He  0  0  0  0  0  0  0  0  0  0  0  0
    2.1314   -6.0424   25.5008 He  0  0  0  0  0  0  0  0  0  0  0  0
  1  3  4  0
  1  5  4  0
  1  8  4  0
  1 21  4  0
  1 22  4  0
  2  4  1  0
  2  7  2  0
  2  8  4  0
  2  9  1  0
  2 13  2  0
  2 18  1  0
  2 20  2  0
  3  6  3  0
  3 11  2  0
  3 16  4  0
  3 19  4  0
  3 21  1  0
  3 22  1  0
  4  5  2  0
  4  6  2  0
  4 15  1  0
  4 16  1  0
  5  8  2  0
  5 10  1  0
  5 14  4  0
  5 16  1  0
  5 18  3  0
  5 19  1  0
  6 14  4  0
  6 18  2  0
  6 21  2  0
  7  8  3  0
  7  9  2  0
  7 12  2  0
  7 14  1  0
  7 15  4  0
  7 17  3  0
  7 18  4  0
  8 10  4  0
  8 14  1  0
  8 16  2  0
  8 17  4  0
  8 21  3  0
  8 22  4  0
  9 17  2  0
 10 12  4  0
 10 13  1  0
 10 14  3  0
 10 15  2  0
 10 17  3  0
 10 21  4  0
 10 22  3  0
 11 17  3  0
 11 19  4  0
 11 20  4  0
 12 14  1  0
 12 21  1  0
 12 22  4  0
 13 15  1  0
 13 17  3  0
 14 15  3  0
 14 17  2  0
 14 18  4  0
 14 20  3  0
 15 20  1  0
 16 18  1  0
 17 22  3  0
 18 20  2  0
 18 21  4  0
 18 22  1  0
 19 20  3  0
M  END
$$$$

 Created by Python create_sdf_string function

 28 76  0  0  0  0  0  0  0  0999 V2000
    5.5113   -8.0683   27.4845 C   0  0  0  0  0  0  0  0  0  0  0  0
    2.1872   -6.5107   27.2655 C   0  0  0  0  0  0  0  0  0  0  0  0
    1.8797   -2.8438   27.2230 C   0  0  0  0  0  0  0  0  0  0  0  0
    5.7257   -8.7589   24.3083 B   0  0  0  0  0  0  0  0  0  0  0  0
    9.8708   -6.5000   28.1380 C   0  0  0  0  0  0  0  0  0  0  0  0
    0.9072   -3.6667   27.7690 C   0  0  0  0  0  0  0  0  0  0  0  0
    3.6961   -7.9455   22.1040 C   0  0  0  0  0  0  0  0  0  0  0  0
   -1.3499   -4.3692   27.0352 N   0  0  0  0  0  0  0  0  0  0  0  0
   -1.1902   -5.6904   27.5598 C   0  0  0  0  0  0  0  0  0  0  0  0
    4.3226   -9.0612   21.6965 C   0  0  0  0  0  0  0  0  0  0  0  0
    5.7841   -9.9656   23.0914 S   0  0  0  0  0  0  0  0  0  0  0  0
   -1.5248   -6.6488   28.0340 O   0  0  0  0  0  0  0  0  0  0  0  0
    9.8880   -8.1082   26.5268 C   0  0  0  0  0  0  0  0  0  0  0  0
    5.5161   -6.0113   27.2168 C   0  0  0  0  0  0  0  0  0  0  0  0
    3.1942   -4.0623   28.1375 C   0  0  0  0  0  0  0  0  0  0  0  0
    9.3110   -7.4106   27.9560 C   0  0  0  0  0  0  0  0  0  0  0  0
    7.8240   -8.1822   26.6616 N   0  0  0  0  0  0  0  0  0  0  0  0
    5.0851   -7.8454   25.7803 C   0  0  0  0  0  0  0  0  0  0  0  0
    4.6678   -9.6892   20.9171 C   0  0  0  0  0  0  0  0  0  0  0  0
    7.6533   -7.2354   27.1974 C   0  0  0  0  0  0  0  0  0  0  0  0
    0.4857   -5.5161   27.0010 C   0  0  0  0  0  0  0  0  0  0  0  0
    3.2894   -4.9007   26.3982 C   0  0  0  0  0  0  0  0  0  0  0  0
    4.6343   -9.2116   19.9394 He  0  0  0  0  0  0  0  0  0  0  0  0
    3.8756   -6.0855   27.4253 He  0  0  0  0  0  0  0  0  0  0  0  0
    3.7494   -8.5736   20.9296 He  0  0  0  0  0  0  0  0  0  0  0  0
    1.6860   -7.0883   27.6754 He  0  0  0  0  0  0  0  0  0  0  0  0
    2.3998   -8.6775   20.6540 He  0  0  0  0  0  0  0  0  0  0  0  0
    4.7124   -5.3481   28.3556 He  0  0  0  0  0  0  0  0  0  0  0  0
  1  3  1  0
  1  8  3  0
  1 18  4  0
  1 20  4  0
  2  6  1  0
  2 11  1  0
  2 15  4  0
  2 18  3  0
  2 19  3  0
  2 22  4  0
  3  6  1  0
  3  7  4  0
  3 13  2  0
  3 15  1  0
  3 17  3  0
  4  7  3  0
  4 10  3  0
  4 16  4  0
  4 17  1  0
  4 19  2  0
  4 20  4  0
  4 21  3  0
  5  6  1  0
  5 11  4  0
  5 16  2  0
  6  7  3  0
  6 15  2  0
  6 17  3  0
  6 19  1  0
  6 21  4  0
  7  9  2  0
  7 10  2  0
  7 11  3  0
  7 12  3  0
  7 16  3  0
  7 18  4  0
  7 21  1  0
  8  9  1  0
  8 10  1  0
  8 11  2  0
  8 15  3  0
  8 16  4  0
  8 17  2  0
  8 19  1  0
  8 22  3  0
  9 10  4  0
  9 12  2  0
  9 16  1  0
  9 19  3  0
  9 21  1  0
  9 22  3  0
 10 12  3  0
 10 13  4  0
 10 18  2  0
 10 20  2  0
 10 21  4  0
 11 12  3  0
 11 13  1  0
 11 16  4  0
 11 22  3  0
 12 15  4  0
 12 16  1  0
 12 17  3  0
 12 18  1  0
 13 16  1  0
 13 21  3  0
 14 20  4  0
 15 19  3  0
 15 21  2  0
 15 22  4  0
 16 17  2  0
 16 22  3  0
 17 19  1  0
 17 20  1  0
 17 22  1  0
 21 22  4  0
M  END
$$$$

 Created by Python create_sdf_string function

 28 51  0  0  0  0  0  0  0  0999 V2000
    2.3813   -6.6130   26.7896 C   0  0  0  0  0  0  0  0  0  0  0  0
    3.8871   -6.4257   27.5903 C   0  0  0  0  0  0  0  0  0  0  0  0
    5.9325   -7.4542   24.8401 N   0  0  0  0  0  0  0  0  0  0  0  0
    8.6220   -6.4652   27.4761 O   0  0  0  0  0  0  0  0  0  0  0  0
    0.6588   -3.3775   26.6950 C   0  0  0  0  0  0  0  0  0  0  0  0
   -1.3902   -4.1735   27.5630 N   0  0  0  0  0  0  0  0  0  0  0  0
   -0.9240   -5.7539   28.1681 C   0  0  0  0  0  0  0  0  0  0  0  0
    3.8858   -8.0981   21.3383 Cl  0  0  0  0  0  0  0  0  0  0  0  0
   -1.6001   -5.9522   27.9236 O   0  0  0  0  0  0  0  0  0  0  0  0
    6.1264   -5.9718   27.5414 C   0  0  0  0  0  0  0  0  0  0  0  0
    2.2803   -4.5676   27.7769 C   0  0  0  0  0  0  0  0  0  0  0  0
    9.2476   -8.2202   26.3475 C   0  0  0  0  0  0  0  0  0  0  0  0
    5.1397   -7.4903   20.8012 F   0  0  0  0  0  0  0  0  0  0  0  0
    7.9401   -8.0293   27.4069 N   0  0  0  0  0  0  0  0  0  0  0  0
    5.2987   -7.6168   25.8160 P   0  0  0  0  0  0  0  0  0  0  0  0
    3.4485   -8.4257   19.6202 O   0  0  0  0  0  0  0  0  0  0  0  0
    4.9983   -5.1599   28.0783 P   0  0  0  0  0  0  0  0  0  0  0  0
    6.9004   -7.5144   26.8691 C   0  0  0  0  0  0  0  0  0  0  0  0
   -0.0975   -5.0285   27.9331 C   0  0  0  0  0  0  0  0  0  0  0  0
    3.2688   -5.8021   27.8141 C   0  0  0  0  0  0  0  0  0  0  0  0
    5.0863   -7.8938   25.7942 He  0  0  0  0  0  0  0  0  0  0  0  0
    5.7080   -8.2645   20.2614 He  0  0  0  0  0  0  0  0  0  0  0  0
    1.9988   -3.0596   27.4563 He  0  0  0  0  0  0  0  0  0  0  0  0
    3.5835   -7.1759   23.4423 He  0  0  0  0  0  0  0  0  0  0  0  0
    3.7217   -7.4423   21.4414 He  0  0  0  0  0  0  0  0  0  0  0  0
   10.1355   -7.9389   26.8873 He  0  0  0  0  0  0  0  0  0  0  0  0
    2.2665   -7.4666   25.2133 He  0  0  0  0  0  0  0  0  0  0  0  0
    4.2583   -8.7265   19.2450 He  0  0  0  0  0  0  0  0  0  0  0  0
  1  4  1  0
  1 14  1  0
  1 20  4  0
  2  3  1  0
  2 15  4  0
  2 16  3  0
  3  5  2  0
  3  7  4  0
  3 10  2  0
  3 15  2  0
  4 12  2  0
  4 13  3  0
  4 14  2  0
  4 16  1  0
  4 18  3  0
  5  9  3  0
  5 10  3  0
  5 16  2  0
  5 19  4  0
  5 20  1  0
  6  7  1  0
  6  8  4  0
  6 11  3  0
  6 17  2  0
  6 18  1  0
  7  9  2  0
  7 13  2  0
  7 14  1  0
  7 16  3  0
  7 19  1  0
  8 10  4  0
  8 16  4  0
  8 18  4  0
  9 11  3  0
  9 16  1  0
  9 17  3  0
  9 18  2  0
  9 19  3  0
 10 16  1  0
 10 17  4  0
 10 18  4  0
 10 19  3  0
 11 17  4  0
 11 19  3  0
 13 18  2  0
 13 19  1  0
 13 20  2  0
 14 16  4  0
 14 17  3  0
 14 18  1  0
 16 18  4  0
M  END
$$$$

 Created by Python create_sdf_string function

 28 69  0  0  0  0  0  0  0  0999 V2000
    4.6896   -8.0539   26.1702 O   0  0  0  0  0  0  0  0  0  0  0  0
    2.0991   -6.1537   26.5510 Se  0  0  0  0  0  0  0  0  0  0  0  0
    3.6557   -6.6874   26.9413 C   0  0  0  0  0  0  0  0  0  0  0  0
    2.0893   -3.4655   27.3147 C   0  0  0  0  0  0  0  0  0  0  0  0
    5.9373   -7.7549   26.1898 C   0  0  0  0  0  0  0  0  0  0  0  0
    9.4980   -6.6708   27.6069 O   0  0  0  0  0  0  0  0  0  0  0  0
    0.6383   -3.3082   27.9556 C   0  0  0  0  0  0  0  0  0  0  0  0
    4.4678   -8.0776   25.0065 C   0  0  0  0  0  0  0  0  0  0  0  0
   -1.8560   -4.2298   27.5214 N   0  0  0  0  0  0  0  0  0  0  0  0
   -1.0941   -4.9635   28.1299 C   0  0  0  0  0  0  0  0  0  0  0  0
   -1.5912   -6.3934   28.1286 O   0  0  0  0  0  0  0  0  0  0  0  0
   10.1968   -7.9351   27.0406 C   0  0  0  0  0  0  0  0  0  0  0  0
    6.3973   -5.9595   27.4739 C   0  0  0  0  0  0  0  0  0  0  0  0
    3.0924   -4.4566   27.6218 C   0  0  0  0  0  0  0  0  0  0  0  0
    9.1858   -8.3092   27.2759 C   0  0  0  0  0  0  0  0  0  0  0  0
    3.8401   -8.8274   19.6595 Br  0  0  0  0  0  0  0  0  0  0  0  0
    2.6509   -6.4764   26.0791 N   0  0  0  0  0  0  0  0  0  0  0  0
    7.6297   -7.8082   27.2473 N   0  0  0  0  0  0  0  0  0  0  0  0
    4.6495   -7.6793   26.6936 C   0  0  0  0  0  0  0  0  0  0  0  0
    5.4432   -5.9588   28.0859 C   0  0  0  0  0  0  0  0  0  0  0  0
    6.9268   -7.0656   27.1817 C   0  0  0  0  0  0  0  0  0  0  0  0
    2.7436   -6.2045   26.8764 C   0  0  0  0  0  0  0  0  0  0  0  0
    7.0718   -9.0930   17.7707 He  0  0  0  0  0  0  0  0  0  0  0  0
    4.5125  -10.0297   22.4542 He  0  0  0  0  0  0  0  0  0  0  0  0
    5.0056   -7.9202   22.8104 He  0  0  0  0  0  0  0  0  0  0  0  0
    4.7613   -7.9746   18.1582 He  0  0  0  0  0  0  0  0  0  0  0  0
    5.4554   -8.8019   20.3217 He  0  0  0  0  0  0  0  0  0  0  0  0
    0.2786   -5.4071   27.5249 He  0  0  0  0  0  0  0  0  0  0  0  0
  1  8  1  0
  1 10  4  0
  1 19  3  0
  2  4  1  0
  2  7  2  0
  2  8  4  0
  2  9  1  0
  2 10  1  0
  2 11  2  0
  2 12  1  0
  2 16  2  0
  2 17  4  0
  3  7  4  0
  3  8  2  0
  3 15  3  0
  3 20  4  0
  3 22  1  0
  4  5  1  0
  4  7  4  0
  4  8  1  0
  4  9  4  0
  4 14  4  0
  4 16  3  0
  5  9  1  0
  5 11  1  0
  5 12  2  0
  5 15  2  0
  5 19  4  0
  5 21  4  0
  6 13  1  0
  6 14  1  0
  6 15  2  0
  7 19  3  0
  8  9  4  0
  8 10  3  0
  8 12  3  0
  8 14  4  0
  8 17  3  0
  8 22  3  0
  9 13  3  0
  9 17  3  0
  9 19  3  0
  9 21  1  0
 10 11  2  0
 10 12  4  0
 10 15  3  0
 10 17  3  0
 10 18  2  0
 11 16  2  0
 11 18  2  0
 11 20  1  0
 12 15  4  0
 13 21  4  0
 14 16  2  0
 14 17  2  0
 15 16  3  0
 15 17  1  0
 15 18  1  0
 15 19  4  0
 15 20  3  0
 15 21  4  0
 16 18  3  0
 16 19  1  0
 16 22  4  0
 17 20  4  0
 17 21  2  0
 18 21  1  0
 18 22  4  0
 19 21  3  0
M  END
$$$$

 Created by Python create_sdf_string function

 28 44  0  0  0  0  0  0  0  0999 V2000
    4.2780   -7.8282   26.1254 O   0  0  0  0  0  0  0  0  0  0  0  0
    4.2991   -7.0523   26.4619 C   0  0  0  0  0  0  0  0  0  0  0  0
    8.4433   -7.5357   26.5511 O   0  0  0  0  0  0  0  0  0  0  0  0
    9.1693   -6.5868   27.8222 Cl  0  0  0  0  0  0  0  0  0  0  0  0
    0.8377   -2.9630   27.4614 C   0  0  0  0  0  0  0  0  0  0  0  0
   -0.6515   -5.3781   27.9791 C   0  0  0  0  0  0  0  0  0  0  0  0
    1.9963   -9.9792   20.0858 Cl  0  0  0  0  0  0  0  0  0  0  0  0
    6.3417   -8.8692   21.6422 F   0  0  0  0  0  0  0  0  0  0  0  0
   -1.2688   -5.9299   28.5882 O   0  0  0  0  0  0  0  0  0  0  0  0
   10.6745   -7.9688   25.9417 C   0  0  0  0  0  0  0  0  0  0  0  0
    6.7138   -6.3641   27.6934 C   0  0  0  0  0  0  0  0  0  0  0  0
    2.6507   -5.1314   27.3021 C   0  0  0  0  0  0  0  0  0  0  0  0
    8.8256   -8.0154   27.1742 C   0  0  0  0  0  0  0  0  0  0  0  0
    8.3186   -7.8774   27.2815 O   0  0  0  0  0  0  0  0  0  0  0  0
    4.6239   -7.0720   25.8638 C   0  0  0  0  0  0  0  0  0  0  0  0
    7.2440   -7.2231   26.7031 C   0  0  0  0  0  0  0  0  0  0  0  0
    1.1001   -5.1472   27.5480 Se  0  0  0  0  0  0  0  0  0  0  0  0
    3.7019   -5.9226   26.5038 C   0  0  0  0  0  0  0  0  0  0  0  0
    0.4352   -6.0617   26.3927 He  0  0  0  0  0  0  0  0  0  0  0  0
    5.4740   -8.5938   16.7681 He  0  0  0  0  0  0  0  0  0  0  0  0
    1.5885   -3.4674   26.9619 He  0  0  0  0  0  0  0  0  0  0  0  0
    6.1906   -7.8281   22.7605 He  0  0  0  0  0  0  0  0  0  0  0  0
   -1.4813   -4.1206   27.0565 He  0  0  0  0  0  0  0  0  0  0  0  0
    5.8575   -8.8322   20.0650 He  0  0  0  0  0  0  0  0  0  0  0  0
    1.9528   -6.7571   28.1917 He  0  0  0  0  0  0  0  0  0  0  0  0
    6.4454   -9.8079   17.9603 He  0  0  0  0  0  0  0  0  0  0  0  0
    4.4328   -9.3052   19.5572 He  0  0  0  0  0  0  0  0  0  0  0  0
    5.0545   -5.6381   27.1172 He  0  0  0  0  0  0  0  0  0  0  0  0
  1  8  4  0
  1 10  1  0
  1 15  4  0
  2  4  3  0
  2 15  4  0
  2 17  4  0
  2 18  1  0
  3  5  4  0
  3  7  2  0
  3  8  1  0
  3  9  3  0
  3 10  3  0
  3 11  1  0
  3 13  2  0
  3 15  2  0
  3 17  3  0
  4  5  2  0
  4  6  3  0
  4  7  3  0
  4  9  4  0
  4 13  2  0
  5  8  1  0
  5 17  4  0
  6  9  2  0
  6 18  3  0
  7  8  2  0
  7 10  1  0
  7 11  1  0
  7 12  3  0
  7 14  4  0
  8 11  2  0
  8 12  3  0
  8 13  3  0
  8 15  2  0
  8 17  2  0
  9 17  3  0
 10 13  1  0
 10 15  2  0
 11 12  4  0
 11 16  4  0
 12 13  1  0
 12 16  3  0
 12 18  1  0
 14 16  1  0
M  END
$$$$

 Created by Python create_sdf_string function

 28 45  0  0  0  0  0  0  0  0999 V2000
    4.9344   -8.4733   25.5972 C   0  0  0  0  0  0  0  0  0  0  0  0
    0.8533   -6.3864   26.7419 C   0  0  0  0  0  0  0  0  0  0  0  0
    4.7460   -6.1695   26.7629 C   0  0  0  0  0  0  0  0  0  0  0  0
    1.9392   -3.6686   27.1507 C   0  0  0  0  0  0  0  0  0  0  0  0
    7.5515   -9.4176   27.0585 C   0  0  0  0  0  0  0  0  0  0  0  0
    1.3209   -3.7711   27.2604 B   0  0  0  0  0  0  0  0  0  0  0  0
   -1.9847   -3.4210   27.3027 O   0  0  0  0  0  0  0  0  0  0  0  0
   -1.0394   -4.9797   27.4385 C   0  0  0  0  0  0  0  0  0  0  0  0
   -1.8026   -6.1754   27.8781 C   0  0  0  0  0  0  0  0  0  0  0  0
   10.7926   -8.6040   26.0292 C   0  0  0  0  0  0  0  0  0  0  0  0
    6.5409   -6.4886   26.9337 C   0  0  0  0  0  0  0  0  0  0  0  0
    2.8027   -4.7388   26.5175 C   0  0  0  0  0  0  0  0  0  0  0  0
    8.7779   -7.9371   27.2811 C   0  0  0  0  0  0  0  0  0  0  0  0
    5.5843  -10.1912   19.0142 C   0  0  0  0  0  0  0  0  0  0  0  0
    7.8673   -7.9418   27.3351 O   0  0  0  0  0  0  0  0  0  0  0  0
    6.2742   -9.6274   17.0566 Br  0  0  0  0  0  0  0  0  0  0  0  0
    6.6164   -7.2948   27.2637 C   0  0  0  0  0  0  0  0  0  0  0  0
    0.3838   -4.9880   27.4951 Cl  0  0  0  0  0  0  0  0  0  0  0  0
    3.6415   -6.5297   27.0393 S   0  0  0  0  0  0  0  0  0  0  0  0
    5.3462   -8.7395   16.4786 He  0  0  0  0  0  0  0  0  0  0  0  0
    9.5004   -6.3214   27.8163 He  0  0  0  0  0  0  0  0  0  0  0  0
    4.2696   -9.6374   22.5007 He  0  0  0  0  0  0  0  0  0  0  0  0
    3.1924  -10.8135   17.4128 He  0  0  0  0  0  0  0  0  0  0  0  0
    4.6894  -11.5780   20.5203 He  0  0  0  0  0  0  0  0  0  0  0  0
    0.9293   -6.9306   26.6128 He  0  0  0  0  0  0  0  0  0  0  0  0
    4.6675   -7.5125   26.2912 He  0  0  0  0  0  0  0  0  0  0  0  0
    6.4693  -10.8587   20.2754 He  0  0  0  0  0  0  0  0  0  0  0  0
    5.6037   -5.3057   27.2895 He  0  0  0  0  0  0  0  0  0  0  0  0
  1  6  1  0
  1 14  2  0
  2  3  2  0
  2  5  2  0
  2  9  4  0
  2 14  4  0
  2 18  4  0
  3 13  1  0
  3 15  2  0
  3 18  3  0
  4  6  4  0
  4  8  2  0
  4 12  4  0
  4 16  3  0
  5  6  3  0
  5  7  4  0
  5  8  1  0
  5 10  2  0
  5 12  4  0
  5 14  1  0
  5 15  4  0
  5 16  3  0
  5 17  4  0
  7  8  1  0
  7 10  3  0
  7 14  4  0
  8  9  2  0
  8 14  3  0
  8 18  1  0
  9 14  3  0
  9 17  3  0
  9 19  3  0
 10 13  1  0
 10 17  3  0
 11 14  3  0
 11 17  4  0
 12 14  4  0
 12 16  1  0
 12 19  1  0
 14 18  2  0
 15 16  2  0
 15 17  1  0
 16 17  2  0
 16 18  4  0
 16 19  2  0
M  END
$$$$

 Created by Python create_sdf_string function

 28 38  0  0  0  0  0  0  0  0999 V2000
    5.0230   -7.8182   25.8905 O   0  0  0  0  0  0  0  0  0  0  0  0
    0.7452   -6.9865   26.9655 C   0  0  0  0  0  0  0  0  0  0  0  0
    5.6749   -7.9045   16.6588 O   0  0  0  0  0  0  0  0  0  0  0  0
    2.7433   -3.2391   26.6579 Cl  0  0  0  0  0  0  0  0  0  0  0  0
   10.0782   -6.9100   27.7053 O   0  0  0  0  0  0  0  0  0  0  0  0
    4.3149  -10.4996   19.6450 N   0  0  0  0  0  0  0  0  0  0  0  0
   -1.7037   -3.7473   27.1779 O   0  0  0  0  0  0  0  0  0  0  0  0
    4.5273   -8.6990   18.1017 B   0  0  0  0  0  0  0  0  0  0  0  0
    4.3084  -10.1073   16.3737 C   0  0  0  0  0  0  0  0  0  0  0  0
   -2.2927   -6.2450   27.7627 O   0  0  0  0  0  0  0  0  0  0  0  0
    5.9678   -5.9597   27.4728 C   0  0  0  0  0  0  0  0  0  0  0  0
    3.0040   -6.0316   27.1604 S   0  0  0  0  0  0  0  0  0  0  0  0
    9.3030   -7.5566   27.7289 C   0  0  0  0  0  0  0  0  0  0  0  0
    8.1308   -8.4926   27.6374 C   0  0  0  0  0  0  0  0  0  0  0  0
    4.8550   -7.9119   26.1126 C   0  0  0  0  0  0  0  0  0  0  0  0
    5.9886   -8.2103   17.1807 B   0  0  0  0  0  0  0  0  0  0  0  0
    6.6019   -7.9456   26.8055 C   0  0  0  0  0  0  0  0  0  0  0  0
   -0.2612   -5.4923   27.8398 I   0  0  0  0  0  0  0  0  0  0  0  0
    4.0956   -5.5122   27.0389 N   0  0  0  0  0  0  0  0  0  0  0  0
    4.0239   -6.3557   26.6936 He  0  0  0  0  0  0  0  0  0  0  0  0
    7.9685   -8.8776   27.7773 He  0  0  0  0  0  0  0  0  0  0  0  0
    0.4860   -4.6684   27.6588 He  0  0  0  0  0  0  0  0  0  0  0  0
   -1.5810   -4.7665   27.7491 He  0  0  0  0  0  0  0  0  0  0  0  0
   10.4955   -9.0677   26.2692 He  0  0  0  0  0  0  0  0  0  0  0  0
    4.5521  -10.3457   17.7901 He  0  0  0  0  0  0  0  0  0  0  0  0
    0.8877   -5.6735   27.1681 He  0  0  0  0  0  0  0  0  0  0  0  0
    4.6280   -9.6562   19.2435 He  0  0  0  0  0  0  0  0  0  0  0  0
    5.7374   -5.0135   27.4318 He  0  0  0  0  0  0  0  0  0  0  0  0
  1  2  3  0
  1  8  3  0
  1 15  4  0
  1 18  2  0
  1 19  4  0
  2 18  4  0
  3  4  1  0
  3  5  4  0
  3  6  2  0
  3  9  2  0
  3 10  4  0
  3 12  1  0
  3 15  2  0
  3 19  2  0
  4  8  2  0
  4 12  4  0
  5 10  2  0
  5 13  2  0
  6  8  1  0
  6 12  4  0
  6 19  1  0
  7  9  4  0
  7 16  1  0
  7 17  1  0
  8 16  3  0
  8 17  3  0
  8 19  2  0
  9 10  2  0
  9 13  1  0
  9 15  3  0
  9 18  4  0
 10 12  1  0
 10 13  2  0
 12 19  1  0
 13 14  1  0
 13 16  2  0
 14 17  4  0
 16 17  4  0
M  END
$$$$

 Created by Python create_sdf_string function

 28 84  0  0  0  0  0  0  0  0999 V2000
    4.5633   -8.2635   26.5074 O   0  0  0  0  0  0  0  0  0  0  0  0
    0.9017   -5.9209   26.8905 Br  0  0  0  0  0  0  0  0  0  0  0  0
    5.1407   -8.1134   16.2944 Br  0  0  0  0  0  0  0  0  0  0  0  0
    4.8971   -6.8889   27.3236 C   0  0  0  0  0  0  0  0  0  0  0  0
    2.7960   -3.9923   27.5729 C   0  0  0  0  0  0  0  0  0  0  0  0
    8.0901   -7.4784   28.8973 C   0  0  0  0  0  0  0  0  0  0  0  0
   10.1343   -6.9391   27.4905 O   0  0  0  0  0  0  0  0  0  0  0  0
    0.3993   -3.8784   27.5380 C   0  0  0  0  0  0  0  0  0  0  0  0
   -2.3924   -4.3655   27.5129 O   0  0  0  0  0  0  0  0  0  0  0  0
   -0.9232   -4.2908   27.8162 C   0  0  0  0  0  0  0  0  0  0  0  0
    5.0901   -8.1756   16.9736 F   0  0  0  0  0  0  0  0  0  0  0  0
    4.2176  -10.7415   17.9050 C   0  0  0  0  0  0  0  0  0  0  0  0
   -2.3247   -5.5650   27.9090 O   0  0  0  0  0  0  0  0  0  0  0  0
   10.8653   -8.2184   26.9677 C   0  0  0  0  0  0  0  0  0  0  0  0
    7.0105   -6.7465   27.8412 C   0  0  0  0  0  0  0  0  0  0  0  0
    2.6976   -5.5972   26.5816 C   0  0  0  0  0  0  0  0  0  0  0  0
    9.3429   -7.3455   27.3127 O   0  0  0  0  0  0  0  0  0  0  0  0
    7.8124   -7.2163   27.8179 C   0  0  0  0  0  0  0  0  0  0  0  0
    5.8485   -7.1797   25.9251 C   0  0  0  0  0  0  0  0  0  0  0  0
    6.1816   -8.4142   18.0933 C   0  0  0  0  0  0  0  0  0  0  0  0
    5.7961   -5.5746   26.8702 C   0  0  0  0  0  0  0  0  0  0  0  0
    6.7491   -7.4566   26.9631 C   0  0  0  0  0  0  0  0  0  0  0  0
    0.1778   -4.5602   27.2443 C   0  0  0  0  0  0  0  0  0  0  0  0
    3.9159   -6.2509   25.9801 N   0  0  0  0  0  0  0  0  0  0  0  0
    4.1253   -9.5630   18.6593 He  0  0  0  0  0  0  0  0  0  0  0  0
    4.4873   -9.9923   16.7758 He  0  0  0  0  0  0  0  0  0  0  0  0
    1.5489   -7.0100   26.8627 He  0  0  0  0  0  0  0  0  0  0  0  0
    5.3247  -10.2517   17.5661 He  0  0  0  0  0  0  0  0  0  0  0  0
  1  3  3  0
  1  6  3  0
  1 12  2  0
  1 15  3  0
  1 19  2  0
  1 20  3  0
  2 12  4  0
  2 13  1  0
  2 16  4  0
  2 23  4  0
  3  5  1  0
  3  7  1  0
  3  9  2  0
  3 18  4  0
  3 21  3  0
  3 22  2  0
  3 24  3  0
  4  5  2  0
  4  6  4  0
  4 11  1  0
  4 13  4  0
  4 21  4  0
  4 24  1  0
  5  7  1  0
  5  8  4  0
  5 11  2  0
  5 13  4  0
  5 16  4  0
  6  8  1  0
  6 14  1  0
  6 19  2  0
  6 22  3  0
  7  8  2  0
  7 11  4  0
  7 15  3  0
  7 17  2  0
  7 20  1  0
  7 22  4  0
  8  9  1  0
  8 11  4  0
  8 12  1  0
  8 18  1  0
  8 20  4  0
  8 23  1  0
  8 24  1  0
  9 10  3  0
  9 16  3  0
  9 18  4  0
  9 19  2  0
  9 21  1  0
  9 24  2  0
 10 11  1  0
 10 13  2  0
 10 14  1  0
 10 23  1  0
 11 14  2  0
 11 16  1  0
 11 18  2  0
 11 19  2  0
 11 21  2  0
 12 14  1  0
 12 18  1  0
 12 20  1  0
 12 24  1  0
 13 14  2  0
 13 17  2  0
 13 20  2  0
 14 17  1  0
 14 19  1  0
 14 20  1  0
 14 21  2  0
 15 16  3  0
 15 17  4  0
 15 22  4  0
 16 20  4  0
 16 24  1  0
 17 18  1  0
 17 20  1  0
 18 22  4  0
 18 24  2  0
 19 20  4  0
 20 23  3  0
 21 23  1  0
 22 23  3  0
M  END
$$$$

 Created by Python create_sdf_string function

 28 70  0  0  0  0  0  0  0  0999 V2000
    4.2329   -8.4858   25.1457 O   0  0  0  0  0  0  0  0  0  0  0  0
    0.2756   -6.6418   26.7600 C   0  0  0  0  0  0  0  0  0  0  0  0
    5.1471   -6.3755   16.9780 N   0  0  0  0  0  0  0  0  0  0  0  0
    2.4246   -4.1265   27.1422 C   0  0  0  0  0  0  0  0  0  0  0  0
    8.2620   -6.1333   28.1435 Se  0  0  0  0  0  0  0  0  0  0  0  0
    0.7292   -4.5682   27.9696 C   0  0  0  0  0  0  0  0  0  0  0  0
   -2.7859   -3.4140   26.5163 O   0  0  0  0  0  0  0  0  0  0  0  0
    6.2561   -7.4672   17.7763 F   0  0  0  0  0  0  0  0  0  0  0  0
   -2.2782   -5.8803   28.2843 O   0  0  0  0  0  0  0  0  0  0  0  0
   10.4738   -7.7877   27.3199 C   0  0  0  0  0  0  0  0  0  0  0  0
    6.6993   -5.1999   27.9278 C   0  0  0  0  0  0  0  0  0  0  0  0
    1.9431   -4.6639   27.1232 C   0  0  0  0  0  0  0  0  0  0  0  0
    9.6180   -7.4456   27.0928 C   0  0  0  0  0  0  0  0  0  0  0  0
    3.9373   -9.0596   17.3345 O   0  0  0  0  0  0  0  0  0  0  0  0
    8.3849   -8.4171   27.4073 F   0  0  0  0  0  0  0  0  0  0  0  0
    5.8455   -7.5258   26.5752 C   0  0  0  0  0  0  0  0  0  0  0  0
    5.5715   -9.6580   17.9236 N   0  0  0  0  0  0  0  0  0  0  0  0
    5.7856   -9.7092   18.6801 N   0  0  0  0  0  0  0  0  0  0  0  0
    7.2040   -8.1196   27.3458 C   0  0  0  0  0  0  0  0  0  0  0  0
    0.2680   -3.9245   27.4819 C   0  0  0  0  0  0  0  0  0  0  0  0
    4.1400   -6.1514   26.4910 N   0  0  0  0  0  0  0  0  0  0  0  0
    5.0427   -6.1584   26.7086 He  0  0  0  0  0  0  0  0  0  0  0  0
    9.8598   -6.4297   27.7336 He  0  0  0  0  0  0  0  0  0  0  0  0
    4.6917  -10.8392   17.3316 He  0  0  0  0  0  0  0  0  0  0  0  0
   -0.9484   -4.7721   27.5608 He  0  0  0  0  0  0  0  0  0  0  0  0
    5.0546  -12.6872   17.5988 He  0  0  0  0  0  0  0  0  0  0  0  0
   -0.1316   -5.3091   27.2133 He  0  0  0  0  0  0  0  0  0  0  0  0
    5.4528   -6.0117   27.7880 He  0  0  0  0  0  0  0  0  0  0  0  0
  1  3  4  0
  1  7  2  0
  1 16  2  0
  1 17  4  0
  1 18  3  0
  2  3  3  0
  2  5  2  0
  2 16  2  0
  2 21  3  0
  3  4  4  0
  3  5  2  0
  3  6  3  0
  3  7  2  0
  3  8  4  0
  3  9  4  0
  3 10  3  0
  3 15  2  0
  3 16  2  0
  3 19  4  0
  4  8  1  0
  4 12  4  0
  4 19  1  0
  4 20  1  0
  5  6  2  0
  5  7  1  0
  5  8  4  0
  5  9  4  0
  5 12  3  0
  5 17  2  0
  5 18  3  0
  5 20  4  0
  6 13  4  0
  6 17  4  0
  6 18  2  0
  6 20  4  0
  6 21  4  0
  7  8  3  0
  7 14  4  0
  7 17  1  0
  7 18  4  0
  8 11  4  0
  8 12  1  0
  8 13  1  0
  8 17  1  0
  8 20  3  0
  9 15  4  0
 10 13  1  0
 10 14  3  0
 10 16  1  0
 10 18  4  0
 10 20  3  0
 11 14  2  0
 11 18  2  0
 11 20  1  0
 12 14  1  0
 12 16  2  0
 12 17  2  0
 12 21  1  0
 13 15  1  0
 13 18  4  0
 14 16  1  0
 14 18  4  0
 14 20  3  0
 15 17  3  0
 16 17  3  0
 16 19  4  0
 17 20  2  0
 17 21  1  0
 18 19  3  0
 19 20  1  0
M  END
$$$$

 Created by Python create_sdf_string function

 28 54  0  0  0  0  0  0  0  0999 V2000
    1.0608   -6.3199   26.6129 C   0  0  0  0  0  0  0  0  0  0  0  0
    4.7085   -9.6474   18.0344 N   0  0  0  0  0  0  0  0  0  0  0  0
    4.4289   -6.7394   26.7804 C   0  0  0  0  0  0  0  0  0  0  0  0
    2.3451   -4.3780   26.7206 C   0  0  0  0  0  0  0  0  0  0  0  0
    7.1579   -5.8793   27.1552 C   0  0  0  0  0  0  0  0  0  0  0  0
    9.7824   -6.5789   27.2999 C   0  0  0  0  0  0  0  0  0  0  0  0
   -1.5833   -4.4294   26.9079 O   0  0  0  0  0  0  0  0  0  0  0  0
   -1.2407   -4.8650   27.9659 C   0  0  0  0  0  0  0  0  0  0  0  0
    5.6175   -7.2979   18.7783 F   0  0  0  0  0  0  0  0  0  0  0  0
   11.0863   -7.3826   27.6809 C   0  0  0  0  0  0  0  0  0  0  0  0
    2.6064   -6.3662   26.9343 C   0  0  0  0  0  0  0  0  0  0  0  0
    9.3939   -7.6387   27.5846 C   0  0  0  0  0  0  0  0  0  0  0  0
    4.5234   -8.8720   16.0609 N   0  0  0  0  0  0  0  0  0  0  0  0
    5.5648   -6.6231   26.2684 C   0  0  0  0  0  0  0  0  0  0  0  0
    5.2368  -10.0843   18.8305 P   0  0  0  0  0  0  0  0  0  0  0  0
    6.0068   -5.9923   27.7918 C   0  0  0  0  0  0  0  0  0  0  0  0
    7.1911   -7.7384   27.0390 C   0  0  0  0  0  0  0  0  0  0  0  0
    0.5558   -4.4121   27.9931 C   0  0  0  0  0  0  0  0  0  0  0  0
    3.7640   -5.9576   27.1035 C   0  0  0  0  0  0  0  0  0  0  0  0
    4.9380   -8.5787   25.8200 He  0  0  0  0  0  0  0  0  0  0  0  0
    1.2341   -4.0760   27.6144 He  0  0  0  0  0  0  0  0  0  0  0  0
    3.7376  -10.9327   15.6044 He  0  0  0  0  0  0  0  0  0  0  0  0
    4.9547  -10.1302   17.2106 He  0  0  0  0  0  0  0  0  0  0  0  0
   -2.2885   -5.9167   27.8364 He  0  0  0  0  0  0  0  0  0  0  0  0
    6.7420   -5.4519   28.1240 He  0  0  0  0  0  0  0  0  0  0  0  0
    0.8763   -7.2570   27.4007 He  0  0  0  0  0  0  0  0  0  0  0  0
    8.5386   -9.0684   27.9098 He  0  0  0  0  0  0  0  0  0  0  0  0
    4.8423   -8.9886   17.8695 He  0  0  0  0  0  0  0  0  0  0  0  0
  1  5  4  0
  1 10  2  0
  1 13  4  0
  2  4  4  0
  2  5  4  0
  2  7  2  0
  2 14  4  0
  2 16  1  0
  2 17  1  0
  2 18  4  0
  3  5  1  0
  3  9  3  0
  3 13  1  0
  3 14  4  0
  4  5  4  0
  4  9  1  0
  4 10  4  0
  4 11  4  0
  5  6  4  0
  5 11  1  0
  5 13  1  0
  5 14  1  0
  5 15  2  0
  5 16  3  0
  5 17  4  0
  6 17  3  0
  7  8  1  0
  7  9  4  0
  7 10  4  0
  7 11  3  0
  7 16  1  0
  8  9  4  0
  8 18  1  0
  8 19  2  0
  9 17  1  0
  9 19  4  0
 10 13  2  0
 10 18  4  0
 11 19  1  0
 12 15  1  0
 12 16  3  0
 12 17  1  0
 13 14  3  0
 13 17  4  0
 14 15  4  0
 14 17  4  0
 14 18  1  0
 15 16  3  0
 15 17  3  0
 15 18  4  0
 15 19  2  0
 16 17  3  0
 17 18  2  0
 17 19  3  0
M  END
$$$$

 Created by Python create_sdf_string function

 28 80  0  0  0  0  0  0  0  0999 V2000
    4.8465   -8.4430   25.5265 O   0  0  0  0  0  0  0  0  0  0  0  0
    1.0541   -6.0394   26.9443 C   0  0  0  0  0  0  0  0  0  0  0  0
    4.8540  -10.6553   18.1838 O   0  0  0  0  0  0  0  0  0  0  0  0
    4.2875   -6.4249   26.7337 S   0  0  0  0  0  0  0  0  0  0  0  0
    3.0601   -4.3453   27.6374 N   0  0  0  0  0  0  0  0  0  0  0  0
    8.1216   -3.0506   27.2832 N   0  0  0  0  0  0  0  0  0  0  0  0
   10.0313   -6.3319   27.8107 C   0  0  0  0  0  0  0  0  0  0  0  0
    0.9819   -4.2281   27.1569 C   0  0  0  0  0  0  0  0  0  0  0  0
    4.5825  -10.8484   17.4378 C   0  0  0  0  0  0  0  0  0  0  0  0
   -2.0049   -4.6002   26.7235 O   0  0  0  0  0  0  0  0  0  0  0  0
   -1.4892   -5.3602   27.2014 C   0  0  0  0  0  0  0  0  0  0  0  0
    5.1050   -8.7782   16.5769 C   0  0  0  0  0  0  0  0  0  0  0  0
   -2.0593   -5.2928   28.3701 O   0  0  0  0  0  0  0  0  0  0  0  0
    6.9881   -5.3596   27.7149 C   0  0  0  0  0  0  0  0  0  0  0  0
    2.0633   -5.9612   27.4121 C   0  0  0  0  0  0  0  0  0  0  0  0
    9.1843   -7.9518   27.3012 C   0  0  0  0  0  0  0  0  0  0  0  0
    0.7166   -6.7393   26.8966 Cl  0  0  0  0  0  0  0  0  0  0  0  0
    8.6092   -8.7837   27.3950 C   0  0  0  0  0  0  0  0  0  0  0  0
    5.7329   -7.2803   26.4549 C   0  0  0  0  0  0  0  0  0  0  0  0
    5.6377   -8.6809   17.3451 F   0  0  0  0  0  0  0  0  0  0  0  0
    4.9209  -10.9754   19.8615 O   0  0  0  0  0  0  0  0  0  0  0  0
    5.4763   -5.4606   27.4358 C   0  0  0  0  0  0  0  0  0  0  0  0
    7.0536   -7.6488   26.8240 C   0  0  0  0  0  0  0  0  0  0  0  0
    0.8289   -3.9704   27.6806 C   0  0  0  0  0  0  0  0  0  0  0  0
    4.1292   -6.4595   26.4391 C   0  0  0  0  0  0  0  0  0  0  0  0
    6.4623   -7.9699   17.6866 He  0  0  0  0  0  0  0  0  0  0  0  0
   10.0826   -8.0947   27.9071 He  0  0  0  0  0  0  0  0  0  0  0  0
    5.6157   -8.3062   17.3887 He  0  0  0  0  0  0  0  0  0  0  0  0
  1  2  2  0
  1  4  2  0
  1  7  2  0
  1  9  1  0
  1 19  2  0
  1 21  4  0
  1 24  1  0
  2  7  1  0
  2 10  4  0
  2 15  4  0
  2 21  1  0
  2 23  3  0
  3  4  3  0
  3  6  1  0
  3 11  3  0
  3 12  4  0
  3 14  2  0
  3 18  4  0
  3 20  3  0
  3 24  3  0
  4 11  2  0
  4 12  4  0
  4 14  1  0
  4 15  4  0
  4 16  2  0
  4 19  4  0
  4 22  4  0
  4 25  1  0
  5  8  4  0
  5  9  4  0
  5 15  4  0
  6 10  4  0
  6 11  2  0
  6 17  2  0
  6 18  3  0
  6 23  1  0
  6 25  1  0
  7 16  4  0
  7 24  1  0
  7 25  1  0
  8 11  1  0
  8 12  3  0
  8 19  2  0
  8 21  1  0
  8 24  4  0
  9 10  4  0
  9 13  1  0
  9 16  1  0
  9 18  3  0
  9 23  2  0
  9 25  2  0
 10 11  1  0
 10 12  3  0
 10 14  3  0
 10 17  4  0
 10 20  3  0
 11 18  1  0
 11 24  1  0
 12 15  2  0
 12 17  4  0
 12 20  1  0
 12 22  3  0
 12 23  2  0
 12 25  1  0
 14 22  4  0
 14 25  4  0
 15 25  1  0
 16 21  4  0
 16 25  1  0
 17 18  2  0
 17 19  1  0
 17 20  3  0
 17 25  1  0
 18 20  3  0
 18 21  1  0
 18 23  4  0
 18 24  3  0
 19 20  2  0
 21 23  3  0
 24 25  3  0
M  END
$$$$

 Created by Python create_sdf_string function

 28 46  0  0  0  0  0  0  0  0999 V2000
    4.9648   -8.0705   26.0376 O   0  0  0  0  0  0  0  0  0  0  0  0
    1.7654   -6.3242   26.6109 C   0  0  0  0  0  0  0  0  0  0  0  0
    2.1897   -3.7946   27.4150 I   0  0  0  0  0  0  0  0  0  0  0  0
    8.3711   -6.3595   26.6053 C   0  0  0  0  0  0  0  0  0  0  0  0
    8.5566   -6.2359   27.4301 C   0  0  0  0  0  0  0  0  0  0  0  0
    0.8356   -4.1254   26.8753 C   0  0  0  0  0  0  0  0  0  0  0  0
    3.1210  -10.5136   17.3636 F   0  0  0  0  0  0  0  0  0  0  0  0
   -1.9250   -4.5413   26.7761 O   0  0  0  0  0  0  0  0  0  0  0  0
    5.2527  -10.6405   16.2199 C   0  0  0  0  0  0  0  0  0  0  0  0
   -1.8008   -5.6097   27.9831 O   0  0  0  0  0  0  0  0  0  0  0  0
   10.3670   -8.7641   27.9424 C   0  0  0  0  0  0  0  0  0  0  0  0
    2.9413   -5.8610   26.6995 C   0  0  0  0  0  0  0  0  0  0  0  0
    8.7410   -7.0647   27.9220 C   0  0  0  0  0  0  0  0  0  0  0  0
    1.0871   -5.9701   28.4457 O   0  0  0  0  0  0  0  0  0  0  0  0
    7.7923   -8.1643   27.3547 C   0  0  0  0  0  0  0  0  0  0  0  0
    5.2713   -7.6528   26.1510 C   0  0  0  0  0  0  0  0  0  0  0  0
    6.0873   -4.8837   27.2635 C   0  0  0  0  0  0  0  0  0  0  0  0
    7.2631   -7.1071   27.4022 C   0  0  0  0  0  0  0  0  0  0  0  0
    0.4685   -4.8090   27.1200 C   0  0  0  0  0  0  0  0  0  0  0  0
    3.4558   -6.9678   26.6358 C   0  0  0  0  0  0  0  0  0  0  0  0
    5.0034  -10.2513   17.5129 He  0  0  0  0  0  0  0  0  0  0  0  0
    4.5381   -6.2963   26.7083 He  0  0  0  0  0  0  0  0  0  0  0  0
   -1.4773   -4.7828   27.5092 He  0  0  0  0  0  0  0  0  0  0  0  0
    4.7845   -8.4250   19.1121 He  0  0  0  0  0  0  0  0  0  0  0  0
    7.2217   -6.2250   27.8145 He  0  0  0  0  0  0  0  0  0  0  0  0
    5.8679   -6.4301   19.9742 He  0  0  0  0  0  0  0  0  0  0  0  0
    6.3028   -7.8271   17.4293 He  0  0  0  0  0  0  0  0  0  0  0  0
    5.8699  -10.0498   18.1763 He  0  0  0  0  0  0  0  0  0  0  0  0
  1  7  2  0
  1  9  3  0
  1 11  2  0
  1 16  2  0
  2  3  1  0
  2 12  4  0
  3  6  2  0
  3 12  4  0
  4  6  2  0
  4 10  1  0
  4 11  4  0
  4 12  3  0
  4 13  2  0
  4 14  2  0
  4 17  1  0
  4 19  1  0
  5  7  2  0
  5 10  1  0
  5 13  2  0
  5 14  3  0
  6  7  4  0
  6 18  4  0
  6 19  4  0
  7  8  1  0
  7 11  1  0
  7 12  4  0
  7 13  2  0
  7 19  1  0
  8 14  2  0
  9 10  2  0
  9 14  2  0
  9 15  4  0
  9 17  2  0
 11 13  1  0
 12 20  1  0
 13 14  4  0
 13 15  2  0
 13 18  1  0
 14 16  2  0
 14 18  1  0
 15 18  4  0
 15 19  2  0
 15 20  2  0
 16 18  4  0
 17 20  3  0
 18 20  1  0
M  END
$$$$

 Created by Python create_sdf_string function

 28 59  0  0  0  0  0  0  0  0999 V2000
    5.2596   -8.1849   25.8805 O   0  0  0  0  0  0  0  0  0  0  0  0
    1.6325   -6.2299   27.2765 C   0  0  0  0  0  0  0  0  0  0  0  0
    3.5413   -9.9553   15.5305 S   0  0  0  0  0  0  0  0  0  0  0  0
    4.5950   -6.9254   26.9572 N   0  0  0  0  0  0  0  0  0  0  0  0
    2.0881   -4.3683   26.8342 C   0  0  0  0  0  0  0  0  0  0  0  0
    9.3183   -6.6422   28.1041 C   0  0  0  0  0  0  0  0  0  0  0  0
    0.8826   -3.6371   27.1668 C   0  0  0  0  0  0  0  0  0  0  0  0
   -1.5952   -3.7661   27.2680 O   0  0  0  0  0  0  0  0  0  0  0  0
   -0.7779   -4.8153   27.2594 C   0  0  0  0  0  0  0  0  0  0  0  0
   -1.6885   -5.1144   29.0074 C   0  0  0  0  0  0  0  0  0  0  0  0
   10.1705   -8.6086   27.5797 S   0  0  0  0  0  0  0  0  0  0  0  0
    6.4144   -6.4113   28.0025 F   0  0  0  0  0  0  0  0  0  0  0  0
    2.6313   -5.9947   26.5170 I   0  0  0  0  0  0  0  0  0  0  0  0
    8.9798   -7.0481   27.5211 C   0  0  0  0  0  0  0  0  0  0  0  0
    4.9760   -8.0982   18.4526 C   0  0  0  0  0  0  0  0  0  0  0  0
    0.4857   -6.3040   27.6997 N   0  0  0  0  0  0  0  0  0  0  0  0
    7.8235   -7.9249   27.0583 C   0  0  0  0  0  0  0  0  0  0  0  0
    5.3359   -8.0854   26.2215 C   0  0  0  0  0  0  0  0  0  0  0  0
    4.2913   -7.5991   17.5907 Cl  0  0  0  0  0  0  0  0  0  0  0  0
    5.5167   -5.0732   27.4823 C   0  0  0  0  0  0  0  0  0  0  0  0
    7.1215   -7.1455   27.5187 C   0  0  0  0  0  0  0  0  0  0  0  0
   -0.1675   -5.1530   26.9397 C   0  0  0  0  0  0  0  0  0  0  0  0
    3.7415   -6.1420   26.5439 C   0  0  0  0  0  0  0  0  0  0  0  0
    9.2371   -4.8377   29.3493 He  0  0  0  0  0  0  0  0  0  0  0  0
    4.1625  -10.6025   16.4410 He  0  0  0  0  0  0  0  0  0  0  0  0
    5.0803   -9.2041   18.0476 He  0  0  0  0  0  0  0  0  0  0  0  0
    6.0022  -10.6220   16.1661 He  0  0  0  0  0  0  0  0  0  0  0  0
    5.4482   -7.2526   18.1388 He  0  0  0  0  0  0  0  0  0  0  0  0
  1  2  4  0
  1  6  2  0
  1 16  1  0
  1 18  2  0
  2  3  4  0
  2  7  2  0
  2 11  4  0
  2 13  4  0
  2 17  1  0
  2 23  2  0
  3  5  1  0
  3 13  3  0
  3 14  2  0
  3 22  4  0
  3 23  2  0
  4 15  4  0
  4 18  4  0
  4 19  3  0
  5  7  4  0
  5  8  2  0
  5 11  3  0
  5 13  4  0
  5 19  4  0
  5 21  2  0
  6 13  1  0
  6 16  3  0
  6 20  2  0
  6 23  2  0
  7 15  1  0
  7 16  1  0
  7 18  3  0
  7 19  2  0
  7 21  2  0
  8 15  2  0
  9 10  2  0
  9 12  3  0
  9 22  1  0
 10 15  1  0
 10 19  2  0
 10 23  3  0
 11 14  1  0
 11 15  2  0
 11 19  1  0
 11 22  1  0
 12 18  3  0
 12 20  4  0
 12 21  4  0
 13 15  1  0
 13 18  2  0
 14 15  3  0
 14 16  3  0
 14 17  4  0
 15 16  4  0
 15 17  2  0
 15 21  2  0
 16 22  1  0
 17 21  4  0
 18 21  4  0
 19 21  1  0
M  END
$$$$

 Created by Python create_sdf_string function

 28 63  0  0  0  0  0  0  0  0999 V2000
    1.4733   -6.2891   27.4079 C   0  0  0  0  0  0  0  0  0  0  0  0
    3.2123   -9.9514   17.6229 O   0  0  0  0  0  0  0  0  0  0  0  0
    2.4366   -4.4032   26.6782 C   0  0  0  0  0  0  0  0  0  0  0  0
    9.5743   -6.5476   28.4820 C   0  0  0  0  0  0  0  0  0  0  0  0
   -2.0006   -3.2439   27.2319 O   0  0  0  0  0  0  0  0  0  0  0  0
   -1.3401   -4.9551   27.6699 O   0  0  0  0  0  0  0  0  0  0  0  0
    4.1360   -9.4643   16.5271 N   0  0  0  0  0  0  0  0  0  0  0  0
   -1.7529   -5.5558   28.4454 I   0  0  0  0  0  0  0  0  0  0  0  0
   11.0121   -8.5013   27.7459 C   0  0  0  0  0  0  0  0  0  0  0  0
    7.0470   -5.8053   27.1073 C   0  0  0  0  0  0  0  0  0  0  0  0
    1.7268   -5.7933   26.9664 B   0  0  0  0  0  0  0  0  0  0  0  0
    9.3799   -7.5619   27.4637 C   0  0  0  0  0  0  0  0  0  0  0  0
    5.7910   -7.9858   17.8442 C   0  0  0  0  0  0  0  0  0  0  0  0
    1.1346   -7.0720   27.5577 F   0  0  0  0  0  0  0  0  0  0  0  0
    7.7476   -8.7122   26.8965 C   0  0  0  0  0  0  0  0  0  0  0  0
    5.9239   -7.7507   26.5728 C   0  0  0  0  0  0  0  0  0  0  0  0
    5.7936   -7.7095   17.9379 C   0  0  0  0  0  0  0  0  0  0  0  0
    5.1823   -5.5762   27.4417 N   0  0  0  0  0  0  0  0  0  0  0  0
    6.4853   -7.7620   27.0931 C   0  0  0  0  0  0  0  0  0  0  0  0
   -0.4387   -4.5542   27.6440 C   0  0  0  0  0  0  0  0  0  0  0  0
    3.9693   -6.5401   26.8981 C   0  0  0  0  0  0  0  0  0  0  0  0
    5.6754   -8.0679   25.9462 He  0  0  0  0  0  0  0  0  0  0  0  0
    5.3919   -6.4217   27.7821 He  0  0  0  0  0  0  0  0  0  0  0  0
    8.4938   -2.3908   28.8878 He  0  0  0  0  0  0  0  0  0  0  0  0
    0.2992   -4.5501   27.1681 He  0  0  0  0  0  0  0  0  0  0  0  0
    2.6261   -9.8651   16.9485 He  0  0  0  0  0  0  0  0  0  0  0  0
    4.8308   -9.2397   17.6871 He  0  0  0  0  0  0  0  0  0  0  0  0
    3.8439   -8.3293   16.4923 He  0  0  0  0  0  0  0  0  0  0  0  0
  1 11  4  0
  1 13  2  0
  1 14  1  0
  1 17  4  0
  1 20  4  0
  2  9  3  0
  2 14  1  0
  2 15  2  0
  2 17  1  0
  2 18  4  0
  2 20  1  0
  3 11  4  0
  4 10  3  0
  4 13  2  0
  4 14  4  0
  4 17  4  0
  5 12  4  0
  5 13  4  0
  5 14  1  0
  5 16  1  0
  5 17  4  0
  5 21  2  0
  6 13  2  0
  6 20  1  0
  7  8  4  0
  7 10  1  0
  7 11  2  0
  7 12  4  0
  7 17  4  0
  7 18  2  0
  7 20  2  0
  7 21  3  0
  8 10  1  0
  8 12  4  0
  8 18  3  0
  9 12  1  0
  9 14  4  0
  9 16  2  0
  9 17  4  0
 10 11  2  0
 10 14  4  0
 10 16  1  0
 10 18  4  0
 10 19  4  0
 10 20  2  0
 11 13  4  0
 11 14  1  0
 11 15  4  0
 11 19  1  0
 11 21  1  0
 12 15  3  0
 13 14  4  0
 13 16  1  0
 13 17  1  0
 14 15  2  0
 14 16  1  0
 14 17  3  0
 14 19  2  0
 14 21  2  0
 15 19  4  0
 17 19  1  0
 18 19  1  0
 18 20  3  0
M  END
$$$$

 Created by Python create_sdf_string function

 28 41  0  0  0  0  0  0  0  0999 V2000
    5.2470   -8.1109   26.0012 N   0  0  0  0  0  0  0  0  0  0  0  0
    0.8109   -6.5844   27.5697 C   0  0  0  0  0  0  0  0  0  0  0  0
    2.4758   -4.6866   27.3731 C   0  0  0  0  0  0  0  0  0  0  0  0
    9.2868   -5.5486   28.6274 C   0  0  0  0  0  0  0  0  0  0  0  0
    1.0010   -4.2225   26.6147 C   0  0  0  0  0  0  0  0  0  0  0  0
   -1.5770   -3.5944   27.7560 O   0  0  0  0  0  0  0  0  0  0  0  0
   -1.0423   -4.9618   27.6292 C   0  0  0  0  0  0  0  0  0  0  0  0
    4.1259  -10.5233   16.9630 P   0  0  0  0  0  0  0  0  0  0  0  0
    3.7658   -8.3383   16.4115 C   0  0  0  0  0  0  0  0  0  0  0  0
   -2.2037   -5.5286   28.4832 O   0  0  0  0  0  0  0  0  0  0  0  0
   10.5310   -7.6044   27.5375 C   0  0  0  0  0  0  0  0  0  0  0  0
    6.8982   -5.5239   27.4137 P   0  0  0  0  0  0  0  0  0  0  0  0
    9.5105   -7.2653   27.4387 C   0  0  0  0  0  0  0  0  0  0  0  0
    8.3057   -8.5525   27.5313 C   0  0  0  0  0  0  0  0  0  0  0  0
    5.2794   -7.6217   26.5852 Br  0  0  0  0  0  0  0  0  0  0  0  0
    4.6977   -7.6868   15.0929 N   0  0  0  0  0  0  0  0  0  0  0  0
    5.1815   -5.0457   27.0684 S   0  0  0  0  0  0  0  0  0  0  0  0
    7.1618   -6.8003   27.1521 C   0  0  0  0  0  0  0  0  0  0  0  0
    0.3069   -5.4599   26.8041 C   0  0  0  0  0  0  0  0  0  0  0  0
    3.7316   -6.6755   26.6714 C   0  0  0  0  0  0  0  0  0  0  0  0
    3.4234   -8.6450   18.5084 He  0  0  0  0  0  0  0  0  0  0  0  0
    4.8620   -6.3565   26.8564 He  0  0  0  0  0  0  0  0  0  0  0  0
    9.3854   -5.1466   28.0884 He  0  0  0  0  0  0  0  0  0  0  0  0
    2.1534   -8.2620   16.3395 He  0  0  0  0  0  0  0  0  0  0  0  0
    2.5889   -5.5125   27.3866 He  0  0  0  0  0  0  0  0  0  0  0  0
    7.0680   -6.3820   16.6910 He  0  0  0  0  0  0  0  0  0  0  0  0
    0.6884   -7.4573   27.0453 He  0  0  0  0  0  0  0  0  0  0  0  0
    5.4180   -8.8197   17.2925 He  0  0  0  0  0  0  0  0  0  0  0  0
  1  9  4  0
  1 18  1  0
  2  6  3  0
  2  8  4  0
  2  9  4  0
  2 13  4  0
  2 16  3  0
  2 19  3  0
  3  8  4  0
  3  9  1  0
  3 12  4  0
  3 13  2  0
  3 16  3  0
  3 18  4  0
  4 12  1  0
  4 14  1  0
  4 16  2  0
  4 17  2  0
  5 19  4  0
  6  7  1  0
  6  9  4  0
  6 15  4  0
  6 20  2  0
  7  9  3  0
  7 10  2  0
  8 12  2  0
  8 15  2  0
  8 19  3  0
  8 20  3  0
  9 12  2  0
  9 18  3  0
 11 20  4  0
 12 13  1  0
 12 17  4  0
 12 18  4  0
 13 14  4  0
 13 16  1  0
 14 18  4  0
 15 16  3  0
 15 18  4  0
 17 18  4  0
M  END
$$$$

 Created by Python create_sdf_string function

 28 44  0  0  0  0  0  0  0  0999 V2000
    5.3565   -8.1561   26.1302 N   0  0  0  0  0  0  0  0  0  0  0  0
   -0.2776   -6.6059   27.0940 C   0  0  0  0  0  0  0  0  0  0  0  0
    3.0947  -10.4560   14.7657 C   0  0  0  0  0  0  0  0  0  0  0  0
    2.5805   -4.2315   27.5195 C   0  0  0  0  0  0  0  0  0  0  0  0
    7.2654   -6.1790   28.9424 N   0  0  0  0  0  0  0  0  0  0  0  0
    1.1302   -4.5218   26.7673 C   0  0  0  0  0  0  0  0  0  0  0  0
   -1.2620   -5.3576   28.0365 C   0  0  0  0  0  0  0  0  0  0  0  0
    4.7890   -7.4914   16.3770 C   0  0  0  0  0  0  0  0  0  0  0  0
   -2.4007   -5.7651   27.8264 O   0  0  0  0  0  0  0  0  0  0  0  0
    2.1291   -5.6132   27.0402 C   0  0  0  0  0  0  0  0  0  0  0  0
    9.4072   -6.7666   27.1850 C   0  0  0  0  0  0  0  0  0  0  0  0
    2.1249   -7.3895   26.6403 C   0  0  0  0  0  0  0  0  0  0  0  0
    8.3536   -7.6577   27.0114 C   0  0  0  0  0  0  0  0  0  0  0  0
    5.5654   -8.4021   15.8207 N   0  0  0  0  0  0  0  0  0  0  0  0
    5.2986   -5.1577   27.6383 S   0  0  0  0  0  0  0  0  0  0  0  0
    7.0623   -6.7931   26.8017 C   0  0  0  0  0  0  0  0  0  0  0  0
    0.2599   -5.4881   27.1520 O   0  0  0  0  0  0  0  0  0  0  0  0
    3.6476   -6.5851   27.0624 C   0  0  0  0  0  0  0  0  0  0  0  0
    5.5473   -6.4748   26.3434 He  0  0  0  0  0  0  0  0  0  0  0  0
    9.1739   -5.5530   28.8986 He  0  0  0  0  0  0  0  0  0  0  0  0
    3.9112   -7.7525   16.8934 He  0  0  0  0  0  0  0  0  0  0  0  0
   -1.0320   -3.6139   27.6565 He  0  0  0  0  0  0  0  0  0  0  0  0
    3.6513   -8.8962   17.5336 He  0  0  0  0  0  0  0  0  0  0  0  0
   10.6534   -7.9808   27.8679 He  0  0  0  0  0  0  0  0  0  0  0  0
    6.9432   -6.0406   27.2863 He  0  0  0  0  0  0  0  0  0  0  0  0
    6.6715   -7.1704   17.4015 He  0  0  0  0  0  0  0  0  0  0  0  0
    5.5543   -7.1557   26.4830 He  0  0  0  0  0  0  0  0  0  0  0  0
    6.8181   -7.9194   15.2626 He  0  0  0  0  0  0  0  0  0  0  0  0
  1 14  3  0
  2  3  2  0
  2 14  2  0
  2 17  4  0
  3  5  2  0
  3  9  3  0
  3 11  4  0
  3 15  3  0
  3 16  1  0
  4  6  4  0
  4  8  4  0
  4  9  4  0
  4 10  4  0
  4 18  2  0
  5  6  3  0
  5  8  4  0
  5 11  3  0
  5 12  3  0
  6 17  4  0
  7 10  2  0
  7 13  1  0
  7 14  3  0
  7 16  2  0
  7 17  1  0
  8 11  4  0
  8 13  2  0
  8 14  4  0
  8 16  1  0
  8 17  4  0
  9 10  3  0
  9 12  2  0
 10 12  2  0
 10 13  2  0
 10 18  1  0
 11 13  4  0
 12 14  4  0
 12 15  3  0
 12 16  3  0
 12 18  1  0
 13 14  3  0
 13 16  1  0
 14 16  2  0
 14 17  3  0
 15 16  4  0
M  END
$$$$

 Created by Python create_sdf_string function

 28 71  0  0  0  0  0  0  0  0999 V2000
    5.7811   -8.7683   25.7835 O   0  0  0  0  0  0  0  0  0  0  0  0
    0.1033   -6.6391   27.3225 C   0  0  0  0  0  0  0  0  0  0  0  0
    3.4974   -7.5195   17.6294 F   0  0  0  0  0  0  0  0  0  0  0  0
    4.5515   -6.6157   27.3783 N   0  0  0  0  0  0  0  0  0  0  0  0
    2.2748   -4.5249   27.7041 C   0  0  0  0  0  0  0  0  0  0  0  0
    6.8466   -3.9740   29.1758 C   0  0  0  0  0  0  0  0  0  0  0  0
    8.1772   -6.0888   28.8616 C   0  0  0  0  0  0  0  0  0  0  0  0
   -2.2979   -5.4648   27.8787 O   0  0  0  0  0  0  0  0  0  0  0  0
   10.6803   -7.7127   27.2060 C   0  0  0  0  0  0  0  0  0  0  0  0
    2.6766   -5.8407   27.1751 C   0  0  0  0  0  0  0  0  0  0  0  0
    9.2762   -7.6805   27.7529 N   0  0  0  0  0  0  0  0  0  0  0  0
    6.2085   -8.2030   17.0182 C   0  0  0  0  0  0  0  0  0  0  0  0
    1.5788   -6.7533   27.8890 F   0  0  0  0  0  0  0  0  0  0  0  0
    8.1729   -7.5883   27.5109 C   0  0  0  0  0  0  0  0  0  0  0  0
    6.1445   -7.1040   26.5162 C   0  0  0  0  0  0  0  0  0  0  0  0
    6.5501   -7.9149   17.8250 N   0  0  0  0  0  0  0  0  0  0  0  0
    6.1217   -6.1111   15.5220 Cl  0  0  0  0  0  0  0  0  0  0  0  0
    5.2949   -5.5660   28.0879 N   0  0  0  0  0  0  0  0  0  0  0  0
    6.6902   -6.8949   27.1649 C   0  0  0  0  0  0  0  0  0  0  0  0
    0.6264   -5.5806   27.7308 C   0  0  0  0  0  0  0  0  0  0  0  0
    4.0416   -6.4546   26.4828 C   0  0  0  0  0  0  0  0  0  0  0  0
    1.0938   -4.4062   27.4484 He  0  0  0  0  0  0  0  0  0  0  0  0
    3.7629   -9.1419   17.1299 He  0  0  0  0  0  0  0  0  0  0  0  0
   -1.2633   -3.5565   28.2572 He  0  0  0  0  0  0  0  0  0  0  0  0
   -0.9878   -4.5675   27.2489 He  0  0  0  0  0  0  0  0  0  0  0  0
    4.1086   -9.4673   15.0842 He  0  0  0  0  0  0  0  0  0  0  0  0
    3.4897   -7.3861   17.7148 He  0  0  0  0  0  0  0  0  0  0  0  0
    7.4159   -6.0235   28.0625 He  0  0  0  0  0  0  0  0  0  0  0  0
  1  3  2  0
  1  6  1  0
  1 13  2  0
  1 15  2  0
  1 17  1  0
  2  8  1  0
  2 12  4  0
  2 17  3  0
  2 19  1  0
  2 20  4  0
  3  4  4  0
  3  5  2  0
  3  7  1  0
  3  8  3  0
  3 11  4  0
  3 15  2  0
  3 16  4  0
  4  6  2  0
  4  7  1  0
  4  8  3  0
  4 15  4  0
  4 18  4  0
  4 21  1  0
  5 12  1  0
  5 17  3  0
  5 19  1  0
  6  8  4  0
  6  9  3  0
  6 10  2  0
  6 13  1  0
  6 16  3  0
  6 20  3  0
  6 21  3  0
  7  9  3  0
  7 11  3  0
  7 12  3  0
  7 13  1  0
  7 19  4  0
  7 21  1  0
  8  9  2  0
  8 12  3  0
  8 14  2  0
  8 17  2  0
  9 12  4  0
  9 16  1  0
  9 21  2  0
 10 11  2  0
 10 13  4  0
 10 15  1  0
 10 16  2  0
 10 21  1  0
 11 12  4  0
 11 16  2  0
 11 17  2  0
 11 19  2  0
 11 21  2  0
 12 13  4  0
 12 16  1  0
 12 18  3  0
 12 19  4  0
 13 17  4  0
 13 18  1  0
 14 15  2  0
 14 16  4  0
 14 17  2  0
 14 19  4  0
 15 17  4  0
 15 18  2  0
 16 19  4  0
 17 18  2  0
 17 20  3  0
M  END
$$$$

 Created by Python create_sdf_string function

 28 60  0  0  0  0  0  0  0  0999 V2000
    5.8038   -8.0222   25.3099 O   0  0  0  0  0  0  0  0  0  0  0  0
    0.4455   -6.1564   27.7557 C   0  0  0  0  0  0  0  0  0  0  0  0
    5.3373   -6.1879   27.3895 N   0  0  0  0  0  0  0  0  0  0  0  0
    2.5852   -4.9422   27.2994 C   0  0  0  0  0  0  0  0  0  0  0  0
    7.0830   -4.8659   29.8489 C   0  0  0  0  0  0  0  0  0  0  0  0
    9.2355   -6.2845   28.3905 C   0  0  0  0  0  0  0  0  0  0  0  0
    1.4136   -4.0188   28.0815 C   0  0  0  0  0  0  0  0  0  0  0  0
    2.5999   -9.6674   17.5611 S   0  0  0  0  0  0  0  0  0  0  0  0
   -1.3958   -2.7721   27.8500 O   0  0  0  0  0  0  0  0  0  0  0  0
   -0.9043   -4.7214   28.2757 C   0  0  0  0  0  0  0  0  0  0  0  0
    4.7642   -8.2374   14.7621 N   0  0  0  0  0  0  0  0  0  0  0  0
    5.1334   -7.8079   18.2285 S   0  0  0  0  0  0  0  0  0  0  0  0
   -2.2168   -5.1437   27.4397 F   0  0  0  0  0  0  0  0  0  0  0  0
   10.6942   -7.9694   28.0556 C   0  0  0  0  0  0  0  0  0  0  0  0
    6.8424   -6.2152   28.1265 C   0  0  0  0  0  0  0  0  0  0  0  0
    2.1090   -6.3009   26.9299 C   0  0  0  0  0  0  0  0  0  0  0  0
    8.8679   -7.5306   28.0838 N   0  0  0  0  0  0  0  0  0  0  0  0
    8.3062   -7.4449   27.3347 C   0  0  0  0  0  0  0  0  0  0  0  0
    6.2910   -7.4219   26.6997 F   0  0  0  0  0  0  0  0  0  0  0  0
    5.0181   -4.9964   27.5062 N   0  0  0  0  0  0  0  0  0  0  0  0
    7.0715   -7.0312   27.5816 C   0  0  0  0  0  0  0  0  0  0  0  0
    3.4386   -7.0949   16.7132 He  0  0  0  0  0  0  0  0  0  0  0  0
    6.9145   -8.8014   16.1919 He  0  0  0  0  0  0  0  0  0  0  0  0
    2.0527   -5.0610   27.9245 He  0  0  0  0  0  0  0  0  0  0  0  0
    5.1720   -7.3630   19.5258 He  0  0  0  0  0  0  0  0  0  0  0  0
    6.4821   -7.0531   14.1617 He  0  0  0  0  0  0  0  0  0  0  0  0
   -0.4753   -4.6909   27.6533 He  0  0  0  0  0  0  0  0  0  0  0  0
    3.1147   -5.8295   26.2921 He  0  0  0  0  0  0  0  0  0  0  0  0
  1  2  4  0
  1  8  2  0
  1 12  1  0
  1 15  4  0
  1 19  2  0
  2  5  4  0
  2  7  2  0
  2  8  3  0
  2 21  1  0
  3  8  4  0
  3 10  4  0
  3 11  2  0
  3 12  4  0
  3 15  4  0
  3 20  4  0
  4  7  4  0
  4 12  4  0
  4 14  2  0
  4 16  1  0
  4 18  4  0
  5  8  2  0
  5 11  3  0
  5 13  1  0
  5 14  3  0
  5 17  4  0
  5 19  4  0
  5 20  4  0
  5 21  2  0
  6 12  4  0
  6 14  4  0
  6 17  4  0
  6 18  1  0
  6 19  2  0
  7  9  2  0
  7 14  3  0
  8 10  2  0
  8 11  3  0
  8 13  4  0
  9 10  1  0
  9 16  1  0
  9 21  2  0
 11 12  2  0
 11 13  4  0
 11 14  3  0
 11 16  2  0
 11 18  4  0
 12 13  2  0
 12 15  2  0
 12 16  4  0
 12 17  4  0
 14 17  4  0
 15 17  1  0
 15 18  4  0
 15 20  4  0
 15 21  4  0
 16 19  2  0
 17 18  4  0
 18 20  2  0
 18 21  4  0
 19 21  4  0
M  END
$$$$

 Created by Python create_sdf_string function

 28 85  0  0  0  0  0  0  0  0999 V2000
    5.9630   -7.8414   25.8219 O   0  0  0  0  0  0  0  0  0  0  0  0
    0.7648   -6.5646   27.8407 O   0  0  0  0  0  0  0  0  0  0  0  0
    4.2757   -7.6929   16.3673 P   0  0  0  0  0  0  0  0  0  0  0  0
    4.9084   -6.1702   26.6849 N   0  0  0  0  0  0  0  0  0  0  0  0
    2.4081   -4.8383   27.4589 C   0  0  0  0  0  0  0  0  0  0  0  0
    7.9043   -4.5253   28.7739 N   0  0  0  0  0  0  0  0  0  0  0  0
    8.8649   -5.4553   28.6310 C   0  0  0  0  0  0  0  0  0  0  0  0
    1.6032   -3.6926   27.9301 S   0  0  0  0  0  0  0  0  0  0  0  0
    4.3887   -7.8381   16.7878 N   0  0  0  0  0  0  0  0  0  0  0  0
   -0.9736   -3.7625   27.4230 Se  0  0  0  0  0  0  0  0  0  0  0  0
   -1.3643   -4.4176   27.7507 C   0  0  0  0  0  0  0  0  0  0  0  0
    5.1453   -9.7471   15.2635 C   0  0  0  0  0  0  0  0  0  0  0  0
    5.3348   -8.4466   17.2426 F   0  0  0  0  0  0  0  0  0  0  0  0
   -2.5160   -4.8345   27.3955 O   0  0  0  0  0  0  0  0  0  0  0  0
   10.6289   -7.5403   28.2359 C   0  0  0  0  0  0  0  0  0  0  0  0
    6.9371   -5.9279   28.1796 C   0  0  0  0  0  0  0  0  0  0  0  0
    2.4914   -5.9568   26.9304 C   0  0  0  0  0  0  0  0  0  0  0  0
    9.3699   -7.3232   28.4190 C   0  0  0  0  0  0  0  0  0  0  0  0
    2.1313   -7.1420   26.9615 Br  0  0  0  0  0  0  0  0  0  0  0  0
    5.6780   -7.7255   26.2317 C   0  0  0  0  0  0  0  0  0  0  0  0
    6.0119   -8.0365   14.8132 O   0  0  0  0  0  0  0  0  0  0  0  0
    5.5781   -5.8377   27.7542 N   0  0  0  0  0  0  0  0  0  0  0  0
    6.4553   -7.7098   26.8093 C   0  0  0  0  0  0  0  0  0  0  0  0
   -0.1439   -4.7528   27.9785 C   0  0  0  0  0  0  0  0  0  0  0  0
    3.6059   -6.6385   26.5544 C   0  0  0  0  0  0  0  0  0  0  0  0
    6.3361   -7.9766   18.0681 He  0  0  0  0  0  0  0  0  0  0  0  0
    8.6266   -8.2540   27.5686 He  0  0  0  0  0  0  0  0  0  0  0  0
    5.3155   -7.6493   17.2010 He  0  0  0  0  0  0  0  0  0  0  0  0
  1  5  3  0
  1  8  1  0
  1  9  2  0
  1 12  3  0
  1 14  4  0
  1 25  4  0
  2  3  4  0
  2  6  4  0
  2  9  1  0
  2 12  1  0
  2 13  3  0
  2 19  4  0
  2 21  4  0
  2 22  3  0
  2 25  2  0
  3  4  2  0
  3  6  4  0
  3  9  4  0
  3 12  3  0
  3 13  4  0
  3 16  2  0
  3 17  3  0
  3 20  3  0
  3 22  3  0
  4  5  3  0
  4 13  4  0
  4 16  4  0
  4 20  4  0
  4 21  4  0
  4 22  4  0
  4 24  3  0
  4 25  1  0
  5  8  4  0
  5 18  3  0
  5 24  2  0
  6 10  3  0
  6 12  2  0
  6 14  2  0
  6 18  4  0
  6 20  4  0
  6 23  3  0
  6 25  3  0
  7 11  2  0
  7 12  1  0
  7 13  1  0
  7 18  4  0
  8 24  4  0
  9 15  4  0
  9 16  4  0
  9 18  2  0
  9 23  3  0
 10 11  1  0
 10 13  3  0
 10 18  3  0
 10 24  4  0
 11 13  1  0
 11 14  3  0
 11 19  4  0
 11 21  3  0
 11 24  1  0
 12 14  1  0
 12 18  2  0
 12 19  2  0
 12 20  4  0
 12 25  4  0
 13 14  3  0
 13 18  4  0
 13 19  2  0
 13 22  2  0
 13 24  3  0
 14 20  1  0
 15 16  2  0
 15 21  1  0
 16 19  4  0
 16 22  4  0
 16 23  4  0
 17 21  3  0
 17 25  1  0
 19 20  4  0
 19 21  4  0
 19 22  2  0
 19 23  1  0
 20 21  2  0
 21 24  3  0
 24 25  3  0
M  END
$$$$

 Created by Python create_sdf_string function

 28 70  0  0  0  0  0  0  0  0999 V2000
    5.6387   -8.4021   25.3101 O   0  0  0  0  0  0  0  0  0  0  0  0
    0.0664   -6.1976   27.4664 C   0  0  0  0  0  0  0  0  0  0  0  0
    4.8858   -7.0544   15.4131 F   0  0  0  0  0  0  0  0  0  0  0  0
    5.1616   -6.8857   27.3786 N   0  0  0  0  0  0  0  0  0  0  0  0
    2.6596   -4.2186   27.3245 C   0  0  0  0  0  0  0  0  0  0  0  0
    8.9806   -5.9369   28.4111 C   0  0  0  0  0  0  0  0  0  0  0  0
    1.2162   -3.4804   28.0889 C   0  0  0  0  0  0  0  0  0  0  0  0
   -1.2457   -3.6211   27.4492 O   0  0  0  0  0  0  0  0  0  0  0  0
   -1.1645   -4.3723   27.3819 C   0  0  0  0  0  0  0  0  0  0  0  0
    3.4539   -7.9441   17.6477 Cl  0  0  0  0  0  0  0  0  0  0  0  0
   -2.1882   -4.7513   27.5256 C   0  0  0  0  0  0  0  0  0  0  0  0
   10.4873   -7.6757   28.3830 C   0  0  0  0  0  0  0  0  0  0  0  0
    6.7710   -6.4782   27.9087 C   0  0  0  0  0  0  0  0  0  0  0  0
    2.8022   -5.7001   26.8113 C   0  0  0  0  0  0  0  0  0  0  0  0
    4.6332   -9.4984   18.7259 P   0  0  0  0  0  0  0  0  0  0  0  0
    1.9790   -6.9291   27.4847 O   0  0  0  0  0  0  0  0  0  0  0  0
    5.9445   -8.0256   26.6103 C   0  0  0  0  0  0  0  0  0  0  0  0
    6.2850   -7.7771   16.9411 O   0  0  0  0  0  0  0  0  0  0  0  0
    6.4866   -8.4699   16.6371 C   0  0  0  0  0  0  0  0  0  0  0  0
    5.5375   -6.0058   28.1279 N   0  0  0  0  0  0  0  0  0  0  0  0
    6.6067   -7.6963   27.6662 C   0  0  0  0  0  0  0  0  0  0  0  0
    0.3165   -4.7924   27.7128 C   0  0  0  0  0  0  0  0  0  0  0  0
    3.6199   -5.9872   27.0069 C   0  0  0  0  0  0  0  0  0  0  0  0
    8.3390   -4.5335   27.5588 He  0  0  0  0  0  0  0  0  0  0  0  0
    3.6089   -8.2662   15.9840 He  0  0  0  0  0  0  0  0  0  0  0  0
    4.8954   -9.8871   14.7841 He  0  0  0  0  0  0  0  0  0  0  0  0
    9.6987   -7.1017   28.1457 He  0  0  0  0  0  0  0  0  0  0  0  0
    8.0910   -7.9955   27.2221 He  0  0  0  0  0  0  0  0  0  0  0  0
  1  3  2  0
  1  5  3  0
  1  8  4  0
  1 10  4  0
  1 14  3  0
  1 16  4  0
  1 23  1  0
  2 12  4  0
  2 16  4  0
  2 18  3  0
  2 19  2  0
  2 23  3  0
  3  4  2  0
  3  5  2  0
  3  7  1  0
  3  9  3  0
  3 13  3  0
  3 15  4  0
  3 16  2  0
  3 18  1  0
  3 21  2  0
  3 22  4  0
  4 16  1  0
  4 17  4  0
  4 19  1  0
  4 20  4  0
  4 23  1  0
  5  7  4  0
  5 13  1  0
  5 14  2  0
  5 18  3  0
  5 20  2  0
  6  8  3  0
  6 10  4  0
  6 18  3  0
  6 19  4  0
  6 21  2  0
  7 10  4  0
  7 12  2  0
  7 16  2  0
  7 18  1  0
  7 22  4  0
  8 12  3  0
  8 18  2  0
  9 10  1  0
  9 11  1  0
  9 18  4  0
  9 20  3  0
  9 22  1  0
 10 14  4  0
 12 17  2  0
 12 23  2  0
 13 15  1  0
 13 16  2  0
 13 21  4  0
 13 22  2  0
 14 15  4  0
 14 23  1  0
 15 17  4  0
 15 18  1  0
 15 19  4  0
 15 23  4  0
 16 17  1  0
 16 19  1  0
 16 22  4  0
 17 21  4  0
 19 21  3  0
 19 22  4  0
 20 23  2  0
 21 23  4  0
M  END
$$$$

 Created by Python create_sdf_string function

 28 44  0  0  0  0  0  0  0  0999 V2000
    5.9442   -8.6445   25.8103 Br  0  0  0  0  0  0  0  0  0  0  0  0
    0.3606   -6.4190   26.8872 N   0  0  0  0  0  0  0  0  0  0  0  0
    2.7180   -4.6319   27.2593 P   0  0  0  0  0  0  0  0  0  0  0  0
    1.2894   -4.1272   27.8704 C   0  0  0  0  0  0  0  0  0  0  0  0
    4.8563   -9.2115   16.7900 N   0  0  0  0  0  0  0  0  0  0  0  0
   -1.0617   -3.4357   27.5036 O   0  0  0  0  0  0  0  0  0  0  0  0
   -1.0779   -4.0220   27.6300 P   0  0  0  0  0  0  0  0  0  0  0  0
    4.5872   -9.1536   16.4284 C   0  0  0  0  0  0  0  0  0  0  0  0
   -2.6252   -4.8858   27.2889 N   0  0  0  0  0  0  0  0  0  0  0  0
   10.6645   -7.6166   27.7653 S   0  0  0  0  0  0  0  0  0  0  0  0
    6.6787   -6.4520   27.3352 C   0  0  0  0  0  0  0  0  0  0  0  0
    2.5804   -5.9917   27.6508 C   0  0  0  0  0  0  0  0  0  0  0  0
    9.5458   -6.9550   28.0214 C   0  0  0  0  0  0  0  0  0  0  0  0
    8.2011   -7.9850   27.4111 C   0  0  0  0  0  0  0  0  0  0  0  0
    6.1084   -8.5283   26.9178 C   0  0  0  0  0  0  0  0  0  0  0  0
    6.6414   -9.0062   18.3104 F   0  0  0  0  0  0  0  0  0  0  0  0
    6.1629   -5.9448   27.9048 C   0  0  0  0  0  0  0  0  0  0  0  0
    6.8208   -6.9447   27.5758 C   0  0  0  0  0  0  0  0  0  0  0  0
    0.5870   -4.6154   27.2660 C   0  0  0  0  0  0  0  0  0  0  0  0
    4.0104   -6.6214   26.3010 C   0  0  0  0  0  0  0  0  0  0  0  0
    3.7277   -7.7606   14.4149 He  0  0  0  0  0  0  0  0  0  0  0  0
    5.2281   -6.1746   27.4590 He  0  0  0  0  0  0  0  0  0  0  0  0
    7.5244   -4.3493   27.9109 He  0  0  0  0  0  0  0  0  0  0  0  0
    9.0856   -5.7061   27.9803 He  0  0  0  0  0  0  0  0  0  0  0  0
    6.1142   -9.4062   15.4248 He  0  0  0  0  0  0  0  0  0  0  0  0
    5.9685   -9.1415   17.1469 He  0  0  0  0  0  0  0  0  0  0  0  0
    1.5200   -7.4033   29.0425 He  0  0  0  0  0  0  0  0  0  0  0  0
    6.9932   -9.4875   17.2438 He  0  0  0  0  0  0  0  0  0  0  0  0
  1 17  3  0
  2  5  2  0
  2  8  3  0
  2 14  2  0
  2 15  2  0
  2 19  4  0
  2 20  2  0
  3 12  4  0
  5  8  1  0
  5 11  1  0
  5 13  1  0
  5 14  1  0
  5 15  1  0
  5 18  1  0
  6  7  2  0
  6 16  3  0
  6 19  3  0
  7  8  1  0
  7  9  1  0
  8 10  1  0
  8 12  4  0
  8 14  2  0
  8 18  2  0
  8 19  1  0
  8 20  2  0
  9 10  2  0
 10 13  4  0
 10 16  4  0
 10 20  4  0
 11 15  2  0
 11 16  4  0
 11 17  4  0
 12 14  3  0
 12 20  1  0
 13 14  4  0
 13 16  3  0
 13 18  2  0
 14 15  1  0
 14 18  4  0
 15 16  2  0
 15 18  4  0
 15 20  3  0
 16 18  2  0
 16 19  2  0
M  END
$$$$

 Created by Python create_sdf_string function

 28 47  0  0  0  0  0  0  0  0999 V2000
    6.1016   -8.5787   26.4856 N   0  0  0  0  0  0  0  0  0  0  0  0
    0.1826   -6.0263   27.3284 C   0  0  0  0  0  0  0  0  0  0  0  0
    4.9388   -6.7532   27.2730 C   0  0  0  0  0  0  0  0  0  0  0  0
    9.6058   -5.3761   28.2494 S   0  0  0  0  0  0  0  0  0  0  0  0
    0.9866   -3.8012   27.4662 C   0  0  0  0  0  0  0  0  0  0  0  0
    5.4015   -7.9411   18.7504 N   0  0  0  0  0  0  0  0  0  0  0  0
   -0.9688   -3.2624   27.7316 O   0  0  0  0  0  0  0  0  0  0  0  0
   -1.4083   -4.4064   27.3906 C   0  0  0  0  0  0  0  0  0  0  0  0
    5.0256  -11.0344   15.0298 C   0  0  0  0  0  0  0  0  0  0  0  0
   -1.9633   -4.7853   27.8151 N   0  0  0  0  0  0  0  0  0  0  0  0
    7.0382   -5.8019   27.2401 C   0  0  0  0  0  0  0  0  0  0  0  0
    2.9397   -5.7771   27.8033 B   0  0  0  0  0  0  0  0  0  0  0  0
    5.8288   -9.1755   17.1716 C   0  0  0  0  0  0  0  0  0  0  0  0
    1.2169   -6.9495   27.1519 Cl  0  0  0  0  0  0  0  0  0  0  0  0
    8.5953   -7.7126   27.2834 C   0  0  0  0  0  0  0  0  0  0  0  0
    5.9802   -8.1374   26.6270 C   0  0  0  0  0  0  0  0  0  0  0  0
    5.8395   -8.2201   19.5793 C   0  0  0  0  0  0  0  0  0  0  0  0
    5.8557   -5.1678   27.6789 C   0  0  0  0  0  0  0  0  0  0  0  0
    7.3880   -7.4589   27.8997 C   0  0  0  0  0  0  0  0  0  0  0  0
   -0.2318   -4.5771   27.0653 C   0  0  0  0  0  0  0  0  0  0  0  0
    3.4298   -6.8719   26.8578 O   0  0  0  0  0  0  0  0  0  0  0  0
    4.0916   -7.7939   15.4197 He  0  0  0  0  0  0  0  0  0  0  0  0
    2.7588   -4.6650   27.6986 He  0  0  0  0  0  0  0  0  0  0  0  0
    7.2138   -5.8526   28.6598 He  0  0  0  0  0  0  0  0  0  0  0  0
    5.8465   -8.4291   16.1013 He  0  0  0  0  0  0  0  0  0  0  0  0
   10.8865   -7.8677   27.8289 He  0  0  0  0  0  0  0  0  0  0  0  0
    9.1869   -7.2328   27.7693 He  0  0  0  0  0  0  0  0  0  0  0  0
    8.1858   -8.5419   17.0502 He  0  0  0  0  0  0  0  0  0  0  0  0
  1  4  4  0
  1 12  3  0
  1 13  4  0
  1 14  2  0
  1 16  4  0
  2  6  3  0
  2 13  2  0
  2 20  4  0
  2 21  4  0
  3 14  3  0
  3 17  1  0
  3 18  4  0
  4 14  3  0
  4 15  4  0
  4 16  1  0
  4 18  4  0
  5  6  1  0
  5 15  2  0
  6  8  1  0
  6  9  1  0
  6 17  3  0
  6 21  1  0
  7  8  4  0
  7 10  4  0
  7 19  4  0
  8 10  4  0
  8 11  4  0
  8 17  1  0
  8 20  1  0
  9 12  4  0
  9 15  1  0
  9 16  3  0
  9 19  4  0
  9 21  2  0
 10 16  2  0
 10 19  2  0
 11 18  4  0
 11 19  4  0
 12 14  1  0
 12 17  3  0
 12 21  1  0
 13 15  1  0
 13 18  3  0
 15 17  1  0
 15 19  4  0
 16 19  4  0
 17 19  1  0
M  END
$$$$

 Created by Python create_sdf_string function

 28 54  0  0  0  0  0  0  0  0999 V2000
    5.6327   -7.5604   26.4537 N   0  0  0  0  0  0  0  0  0  0  0  0
    0.9134   -5.2113   27.2947 C   0  0  0  0  0  0  0  0  0  0  0  0
    4.8517   -6.8185   27.2141 C   0  0  0  0  0  0  0  0  0  0  0  0
    2.4601   -4.5691   26.9714 C   0  0  0  0  0  0  0  0  0  0  0  0
    8.8086   -5.9757   27.6222 C   0  0  0  0  0  0  0  0  0  0  0  0
    9.4236   -6.3399   28.4533 N   0  0  0  0  0  0  0  0  0  0  0  0
    2.3305   -4.2882   27.0631 C   0  0  0  0  0  0  0  0  0  0  0  0
   -1.8557   -2.7322   27.3803 O   0  0  0  0  0  0  0  0  0  0  0  0
   -0.9736   -4.1636   27.2198 C   0  0  0  0  0  0  0  0  0  0  0  0
   -2.2773   -5.5325   27.9930 O   0  0  0  0  0  0  0  0  0  0  0  0
    6.6487   -6.0075   27.6944 S   0  0  0  0  0  0  0  0  0  0  0  0
    2.6801   -6.0724   27.5177 C   0  0  0  0  0  0  0  0  0  0  0  0
    9.6235   -7.2062   28.0563 C   0  0  0  0  0  0  0  0  0  0  0  0
    6.1136   -9.6780   15.8286 C   0  0  0  0  0  0  0  0  0  0  0  0
    0.5824   -8.6576   27.5487 P   0  0  0  0  0  0  0  0  0  0  0  0
    5.5916   -7.9979   26.5295 C   0  0  0  0  0  0  0  0  0  0  0  0
    5.7946  -10.3880   19.7798 I   0  0  0  0  0  0  0  0  0  0  0  0
    5.8653   -5.7631   27.9216 C   0  0  0  0  0  0  0  0  0  0  0  0
    7.4660   -7.4634   27.1271 F   0  0  0  0  0  0  0  0  0  0  0  0
    0.3633   -4.4347   27.7317 C   0  0  0  0  0  0  0  0  0  0  0  0
    5.1919  -10.2357   15.6873 He  0  0  0  0  0  0  0  0  0  0  0  0
    6.0828   -6.9530   17.7737 He  0  0  0  0  0  0  0  0  0  0  0  0
    4.9794   -9.0473   16.2065 He  0  0  0  0  0  0  0  0  0  0  0  0
    5.5445   -8.5561   15.3544 He  0  0  0  0  0  0  0  0  0  0  0  0
   10.7345   -7.8200   27.1494 He  0  0  0  0  0  0  0  0  0  0  0  0
    8.3977   -8.1381   27.5147 He  0  0  0  0  0  0  0  0  0  0  0  0
    6.0662   -7.6093   16.6898 He  0  0  0  0  0  0  0  0  0  0  0  0
    3.3572   -7.1326   27.1164 He  0  0  0  0  0  0  0  0  0  0  0  0
  1  3  1  0
  1  5  2  0
  1  7  2  0
  1  8  2  0
  1 16  4  0
  2 10  2  0
  2 14  2  0
  2 15  2  0
  2 18  1  0
  3 10  2  0
  3 11  1  0
  3 16  1  0
  3 18  4  0
  4  7  4  0
  4 14  3  0
  4 15  3  0
  4 17  4  0
  5  7  1  0
  5  9  2  0
  5 10  2  0
  5 12  2  0
  5 14  4  0
  5 15  1  0
  5 19  2  0
  6  7  1  0
  6  8  3  0
  6 13  4  0
  7 16  2  0
  7 18  2  0
  7 19  2  0
  7 20  4  0
  8  9  2  0
  8 15  4  0
  8 20  1  0
  9 10  2  0
  9 14  2  0
  9 15  1  0
  9 17  1  0
  9 20  1  0
 10 14  3  0
 10 17  4  0
 10 19  2  0
 11 15  1  0
 11 17  2  0
 11 18  4  0
 11 19  4  0
 12 18  1  0
 13 20  2  0
 14 19  3  0
 14 20  4  0
 15 16  2  0
 15 20  4  0
 16 17  3  0
 17 19  3  0
M  END
$$$$

 Created by Python create_sdf_string function

 28 75  0  0  0  0  0  0  0  0999 V2000
    5.5454   -7.8286   26.0975 N   0  0  0  0  0  0  0  0  0  0  0  0
    0.4772   -6.3274   27.2512 C   0  0  0  0  0  0  0  0  0  0  0  0
    5.2472  -10.3367   15.9439 B   0  0  0  0  0  0  0  0  0  0  0  0
    4.7154   -6.7776   27.3476 C   0  0  0  0  0  0  0  0  0  0  0  0
    2.3580   -4.0438   27.1288 C   0  0  0  0  0  0  0  0  0  0  0  0
    8.1361   -6.0374   28.1973 C   0  0  0  0  0  0  0  0  0  0  0  0
    9.3181   -6.2617   27.9156 N   0  0  0  0  0  0  0  0  0  0  0  0
    1.3414   -4.1002   27.4556 C   0  0  0  0  0  0  0  0  0  0  0  0
    5.1439   -8.0219   17.0761 C   0  0  0  0  0  0  0  0  0  0  0  0
   -0.7424   -3.9091   26.8135 C   0  0  0  0  0  0  0  0  0  0  0  0
    5.3870   -8.8649   15.2170 O   0  0  0  0  0  0  0  0  0  0  0  0
   -2.1269   -5.1814   27.4802 O   0  0  0  0  0  0  0  0  0  0  0  0
   10.5119   -8.1622   27.0841 C   0  0  0  0  0  0  0  0  0  0  0  0
    7.1480   -6.1990   28.2740 C   0  0  0  0  0  0  0  0  0  0  0  0
    3.3924   -5.9600   27.6670 Cl  0  0  0  0  0  0  0  0  0  0  0  0
    9.1872   -7.6160   27.8628 C   0  0  0  0  0  0  0  0  0  0  0  0
    6.3959   -8.2263   16.4413 B   0  0  0  0  0  0  0  0  0  0  0  0
    8.4951   -7.9675   26.6722 N   0  0  0  0  0  0  0  0  0  0  0  0
    6.2288   -8.3403   26.4062 N   0  0  0  0  0  0  0  0  0  0  0  0
    5.9397   -8.3481   17.2598 C   0  0  0  0  0  0  0  0  0  0  0  0
    5.8561   -6.3376   27.7274 C   0  0  0  0  0  0  0  0  0  0  0  0
    7.0789   -7.4764   27.4875 C   0  0  0  0  0  0  0  0  0  0  0  0
   -0.0393   -4.9638   27.7073 C   0  0  0  0  0  0  0  0  0  0  0  0
    3.5296   -6.9790   27.1847 N   0  0  0  0  0  0  0  0  0  0  0  0
   -1.2722   -3.2112   27.3183 He  0  0  0  0  0  0  0  0  0  0  0  0
    6.0985   -8.6836   17.7592 He  0  0  0  0  0  0  0  0  0  0  0  0
    1.3680   -6.3945   27.4842 He  0  0  0  0  0  0  0  0  0  0  0  0
    4.5245   -8.5550   17.8611 He  0  0  0  0  0  0  0  0  0  0  0  0
  1  3  4  0
  1  4  4  0
  1 11  2  0
  1 16  3  0
  1 19  4  0
  2  5  1  0
  2  8  3  0
  2 13  3  0
  2 15  4  0
  2 17  1  0
  2 23  4  0
  3  5  1  0
  3 11  2  0
  3 12  3  0
  3 14  3  0
  3 15  4  0
  3 16  4  0
  3 17  4  0
  3 20  4  0
  3 24  3  0
  4  6  3  0
  4  9  2  0
  4 12  3  0
  4 24  1  0
  5  6  3  0
  5  8  3  0
  5 13  2  0
  5 17  3  0
  5 20  1  0
  6  7  1  0
  6  8  1  0
  6 11  3  0
  7 11  1  0
  7 16  4  0
  7 23  1  0
  8 11  2  0
  9 11  3  0
  9 12  1  0
  9 14  4  0
  9 16  2  0
  9 20  3  0
  9 21  2  0
  9 22  1  0
 10 12  2  0
 10 22  2  0
 10 23  1  0
 11 12  1  0
 11 13  1  0
 11 14  1  0
 11 16  3  0
 11 18  4  0
 11 21  3  0
 11 23  1  0
 12 14  3  0
 12 19  4  0
 13 15  4  0
 13 16  1  0
 13 18  2  0
 13 20  4  0
 14 20  3  0
 14 21  4  0
 14 22  4  0
 15 19  2  0
 15 21  3  0
 15 24  1  0
 16 20  1  0
 17 19  1  0
 17 23  4  0
 18 20  1  0
 18 22  4  0
 19 22  4  0
 20 21  3  0
 20 22  4  0
 21 23  2  0
 22 24  1  0
M  END
$$$$

 Created by Python create_sdf_string function

 28 63  0  0  0  0  0  0  0  0999 V2000
    4.8651   -8.0108   26.1048 N   0  0  0  0  0  0  0  0  0  0  0  0
    0.7507   -6.0772   26.7797 C   0  0  0  0  0  0  0  0  0  0  0  0
    4.7426   -7.1175   27.2815 C   0  0  0  0  0  0  0  0  0  0  0  0
    2.2006   -4.2826   27.4260 C   0  0  0  0  0  0  0  0  0  0  0  0
    6.8008   -4.8957   29.9494 C   0  0  0  0  0  0  0  0  0  0  0  0
    8.9104   -6.1737   28.7370 N   0  0  0  0  0  0  0  0  0  0  0  0
    1.9251   -3.7698   27.1232 C   0  0  0  0  0  0  0  0  0  0  0  0
   -1.4895   -3.1603   27.3490 O   0  0  0  0  0  0  0  0  0  0  0  0
   -1.2578   -4.2565   27.1203 C   0  0  0  0  0  0  0  0  0  0  0  0
    4.9799   -8.3092   17.1497 O   0  0  0  0  0  0  0  0  0  0  0  0
    5.6837   -8.8842   16.1093 O   0  0  0  0  0  0  0  0  0  0  0  0
   -2.3042   -5.2694   27.6285 O   0  0  0  0  0  0  0  0  0  0  0  0
   10.5596   -8.5480   27.1887 C   0  0  0  0  0  0  0  0  0  0  0  0
    1.5418   -6.1087   27.5324 C   0  0  0  0  0  0  0  0  0  0  0  0
    7.5871   -7.6476   15.5391 C   0  0  0  0  0  0  0  0  0  0  0  0
    2.6482   -6.8903   28.3392 C   0  0  0  0  0  0  0  0  0  0  0  0
    8.8553   -7.7494   26.7197 N   0  0  0  0  0  0  0  0  0  0  0  0
    6.3990   -7.9629   26.2956 N   0  0  0  0  0  0  0  0  0  0  0  0
    5.8179   -7.8988   17.0999 F   0  0  0  0  0  0  0  0  0  0  0  0
    5.8939   -6.0372   28.0947 N   0  0  0  0  0  0  0  0  0  0  0  0
    7.4882   -7.9984   26.9653 C   0  0  0  0  0  0  0  0  0  0  0  0
    0.1203   -4.5246   27.3097 C   0  0  0  0  0  0  0  0  0  0  0  0
    3.6486   -7.2152   27.0648 N   0  0  0  0  0  0  0  0  0  0  0  0
    5.3570   -9.0908   17.2467 He  0  0  0  0  0  0  0  0  0  0  0  0
    5.2475   -8.5847   15.2521 He  0  0  0  0  0  0  0  0  0  0  0  0
    6.9470   -6.2253   27.7845 He  0  0  0  0  0  0  0  0  0  0  0  0
    9.5005   -7.4302   27.4059 He  0  0  0  0  0  0  0  0  0  0  0  0
    3.5876   -9.6917   16.5631 He  0  0  0  0  0  0  0  0  0  0  0  0
  1  3  4  0
  1  5  1  0
  1  8  1  0
  1 10  1  0
  1 15  4  0
  1 18  4  0
  2  3  2  0
  2  5  1  0
  2  8  4  0
  2 11  4  0
  2 16  4  0
  2 21  3  0
  2 23  1  0
  3 20  4  0
  3 23  1  0
  4  7  4  0
  4 14  4  0
  4 19  3  0
  5  8  4  0
  5 12  1  0
  5 13  4  0
  5 16  2  0
  5 17  4  0
  5 20  4  0
  6  7  1  0
  6 10  3  0
  6 14  2  0
  6 15  2  0
  7  8  1  0
  7 11  4  0
  7 12  4  0
  7 13  3  0
  7 15  3  0
  7 16  1  0
  7 22  1  0
  8  9  2  0
  8 15  2  0
  8 22  4  0
  9 12  2  0
  9 22  1  0
  9 23  2  0
 10 19  2  0
 11 15  1  0
 11 19  2  0
 11 23  3  0
 12 16  3  0
 13 14  3  0
 13 15  1  0
 13 16  4  0
 13 19  2  0
 13 20  3  0
 14 17  4  0
 14 20  3  0
 15 17  2  0
 15 20  3  0
 15 21  4  0
 15 23  4  0
 16 22  1  0
 17 19  4  0
 18 19  1  0
 18 21  4  0
 19 23  1  0
 22 23  3  0
M  END
$$$$

 Created by Python create_sdf_string function

 28 39  0  0  0  0  0  0  0  0999 V2000
    4.6886   -8.0804   26.1112 Cl  0  0  0  0  0  0  0  0  0  0  0  0
    0.7829   -6.0556   27.1488 C   0  0  0  0  0  0  0  0  0  0  0  0
    4.4177   -7.3499   27.5928 C   0  0  0  0  0  0  0  0  0  0  0  0
    2.9249   -4.7829   27.0606 C   0  0  0  0  0  0  0  0  0  0  0  0
    7.8641   -5.2949   27.7732 C   0  0  0  0  0  0  0  0  0  0  0  0
    0.9668   -3.7209   26.6428 C   0  0  0  0  0  0  0  0  0  0  0  0
    4.7677   -7.0819   14.0137 C   0  0  0  0  0  0  0  0  0  0  0  0
   -1.5144   -3.1489   27.0579 O   0  0  0  0  0  0  0  0  0  0  0  0
   -1.0656   -4.5747   27.4771 C   0  0  0  0  0  0  0  0  0  0  0  0
    3.8731   -8.3231   17.2607 Se  0  0  0  0  0  0  0  0  0  0  0  0
    5.4616   -7.8070   16.9477 Se  0  0  0  0  0  0  0  0  0  0  0  0
   -2.3556   -5.3774   26.7786 O   0  0  0  0  0  0  0  0  0  0  0  0
    2.5166   -5.6679   26.8060 C   0  0  0  0  0  0  0  0  0  0  0  0
    9.2795   -7.7287   27.7726 O   0  0  0  0  0  0  0  0  0  0  0  0
    1.3354   -7.0961   28.6903 C   0  0  0  0  0  0  0  0  0  0  0  0
    6.8774   -8.4712   26.2653 N   0  0  0  0  0  0  0  0  0  0  0  0
    5.7680   -6.6981   27.3979 N   0  0  0  0  0  0  0  0  0  0  0  0
    7.3857   -7.4756   27.1502 C   0  0  0  0  0  0  0  0  0  0  0  0
    0.8634   -4.7527   26.9939 O   0  0  0  0  0  0  0  0  0  0  0  0
    5.7914   -8.0765   16.0237 He  0  0  0  0  0  0  0  0  0  0  0  0
    9.3607   -7.3284   28.2747 He  0  0  0  0  0  0  0  0  0  0  0  0
   10.4241   -7.9248   27.8220 He  0  0  0  0  0  0  0  0  0  0  0  0
    6.7365   -6.4292   28.0894 He  0  0  0  0  0  0  0  0  0  0  0  0
    6.6942   -6.9597   16.4865 He  0  0  0  0  0  0  0  0  0  0  0  0
    8.4932   -7.7260   27.0894 He  0  0  0  0  0  0  0  0  0  0  0  0
    4.0644   -9.3682   16.1664 He  0  0  0  0  0  0  0  0  0  0  0  0
    6.8233   -7.4707   17.6881 He  0  0  0  0  0  0  0  0  0  0  0  0
    3.1822   -7.3651   27.5543 He  0  0  0  0  0  0  0  0  0  0  0  0
  1  9  2  0
  1 18  2  0
  2  3  3  0
  3  5  4  0
  3  9  3  0
  3 15  4  0
  3 17  4  0
  4  6  2  0
  4  8  2  0
  4 10  4  0
  4 13  4  0
  5  7  3  0
  5  8  4  0
  5  9  3  0
  5 12  4  0
  5 13  2  0
  5 14  1  0
  5 16  1  0
  6 11  2  0
  6 19  4  0
  7 11  4  0
  7 12  3  0
  8  9  1  0
  8 10  4  0
  9 12  2  0
  9 19  1  0
 10 11  4  0
 10 14  4  0
 10 16  3  0
 11 13  1  0
 11 14  1  0
 11 16  1  0
 11 18  1  0
 11 19  1  0
 13 15  4  0
 13 17  2  0
 15 17  4  0
 16 18  4  0
 16 19  2  0
M  END
$$$$

 Created by Python create_sdf_string function

 28 42  0  0  0  0  0  0  0  0999 V2000
    4.9669   -8.1341   25.9812 C   0  0  0  0  0  0  0  0  0  0  0  0
    0.0270   -5.9016   27.6318 F   0  0  0  0  0  0  0  0  0  0  0  0
    5.2621   -7.1101   27.3921 C   0  0  0  0  0  0  0  0  0  0  0  0
    2.6370   -5.2012   27.0731 C   0  0  0  0  0  0  0  0  0  0  0  0
    9.9584   -6.4825   28.0893 C   0  0  0  0  0  0  0  0  0  0  0  0
    1.7459   -3.9634   26.5624 C   0  0  0  0  0  0  0  0  0  0  0  0
    4.9110   -6.5311   14.0073 N   0  0  0  0  0  0  0  0  0  0  0  0
   -1.0531   -3.2942   26.9317 O   0  0  0  0  0  0  0  0  0  0  0  0
   -1.6165   -3.8625   26.9740 F   0  0  0  0  0  0  0  0  0  0  0  0
    5.3944   -8.4571   16.1271 C   0  0  0  0  0  0  0  0  0  0  0  0
   10.7027   -8.2778   27.9336 C   0  0  0  0  0  0  0  0  0  0  0  0
    6.8533   -6.5790   28.1668 C   0  0  0  0  0  0  0  0  0  0  0  0
    7.0061   -7.4417   16.5925 C   0  0  0  0  0  0  0  0  0  0  0  0
    8.3766   -8.2622   27.3497 C   0  0  0  0  0  0  0  0  0  0  0  0
    6.2860   -8.4041   26.4540 N   0  0  0  0  0  0  0  0  0  0  0  0
    5.4865   -6.5817   28.1760 N   0  0  0  0  0  0  0  0  0  0  0  0
    6.9285   -7.5988   26.8573 C   0  0  0  0  0  0  0  0  0  0  0  0
    0.1285   -5.3762   27.2354 C   0  0  0  0  0  0  0  0  0  0  0  0
    3.1551   -7.3731   27.4865 N   0  0  0  0  0  0  0  0  0  0  0  0
    3.8896   -7.2758   15.2061 He  0  0  0  0  0  0  0  0  0  0  0  0
    6.8797   -4.8192   28.3117 He  0  0  0  0  0  0  0  0  0  0  0  0
    3.5110  -10.0194   17.1458 He  0  0  0  0  0  0  0  0  0  0  0  0
   -2.2195   -5.0887   26.8622 He  0  0  0  0  0  0  0  0  0  0  0  0
    2.5703   -6.6118   26.8835 He  0  0  0  0  0  0  0  0  0  0  0  0
    9.2121   -7.6757   27.7936 He  0  0  0  0  0  0  0  0  0  0  0  0
    1.5569   -5.7683   28.2747 He  0  0  0  0  0  0  0  0  0  0  0  0
    3.8880   -9.3545   15.7854 He  0  0  0  0  0  0  0  0  0  0  0  0
    7.0258   -8.2208   17.8229 He  0  0  0  0  0  0  0  0  0  0  0  0
  1  3  3  0
  1  7  3  0
  1 10  1  0
  1 15  4  0
  1 17  2  0
  2 11  3  0
  2 18  4  0
  2 19  1  0
  3  6  2  0
  3 18  1  0
  4  6  4  0
  4  7  1  0
  4 11  3  0
  5  7  3  0
  5 10  3  0
  5 13  2  0
  5 15  4  0
  6 10  4  0
  6 11  2  0
  6 13  4  0
  6 18  4  0
  7  8  3  0
  7 14  2  0
  7 15  2  0
  7 19  3  0
  8  9  2  0
  8 10  2  0
  8 13  3  0
  9 10  3  0
  9 18  1  0
 10 12  1  0
 10 14  3  0
 10 17  4  0
 11 15  2  0
 12 15  3  0
 12 16  4  0
 12 17  4  0
 13 16  3  0
 13 17  4  0
 14 15  4  0
 14 17  2  0
 17 18  4  0
M  END
$$$$

 Created by Python create_sdf_string function

 28 97  0  0  0  0  0  0  0  0999 V2000
    5.1011   -7.9712   26.3010 C   0  0  0  0  0  0  0  0  0  0  0  0
    0.1400   -5.8672   27.5172 C   0  0  0  0  0  0  0  0  0  0  0  0
    4.6346   -9.5429   15.7868 N   0  0  0  0  0  0  0  0  0  0  0  0
    4.9926   -7.2652   27.4035 C   0  0  0  0  0  0  0  0  0  0  0  0
    2.3153   -4.8972   27.1894 C   0  0  0  0  0  0  0  0  0  0  0  0
    7.4250   -4.9074   27.8360 O   0  0  0  0  0  0  0  0  0  0  0  0
    8.8122   -6.4850   28.4116 C   0  0  0  0  0  0  0  0  0  0  0  0
    1.5303   -4.3441   26.3619 C   0  0  0  0  0  0  0  0  0  0  0  0
    6.1572   -7.3086   13.9645 B   0  0  0  0  0  0  0  0  0  0  0  0
   -1.1720   -2.6610   26.9055 O   0  0  0  0  0  0  0  0  0  0  0  0
   -1.3612   -4.7492   27.2052 C   0  0  0  0  0  0  0  0  0  0  0  0
    4.1291   -9.1818   15.9874 C   0  0  0  0  0  0  0  0  0  0  0  0
   -2.8026   -5.2487   26.9289 O   0  0  0  0  0  0  0  0  0  0  0  0
   10.7234   -8.2194   27.0971 S   0  0  0  0  0  0  0  0  0  0  0  0
    7.2616   -6.3348   28.3067 C   0  0  0  0  0  0  0  0  0  0  0  0
    2.8114   -6.1981   27.0325 C   0  0  0  0  0  0  0  0  0  0  0  0
    9.6525   -7.6140   27.7610 N   0  0  0  0  0  0  0  0  0  0  0  0
   -0.0641   -6.2187   28.9187 C   0  0  0  0  0  0  0  0  0  0  0  0
    8.2765   -8.1943   27.3323 C   0  0  0  0  0  0  0  0  0  0  0  0
    6.0468   -8.3349   26.3473 S   0  0  0  0  0  0  0  0  0  0  0  0
    3.4027   -8.9875   16.3138 C   0  0  0  0  0  0  0  0  0  0  0  0
    5.1542   -6.9928   16.6585 C   0  0  0  0  0  0  0  0  0  0  0  0
    5.5059   -6.8161   27.7756 N   0  0  0  0  0  0  0  0  0  0  0  0
    7.0430   -7.9001   27.4305 C   0  0  0  0  0  0  0  0  0  0  0  0
    0.1318   -4.6238   27.2732 C   0  0  0  0  0  0  0  0  0  0  0  0
    3.3614   -7.4829   27.6167 N   0  0  0  0  0  0  0  0  0  0  0  0
    6.0040   -7.9677   15.8321 He  0  0  0  0  0  0  0  0  0  0  0  0
    5.7939   -8.0281   17.0893 He  0  0  0  0  0  0  0  0  0  0  0  0
  1  3  4  0
  1  4  4  0
  1  6  4  0
  1  9  4  0
  1 13  4  0
  1 21  1  0
  1 22  4  0
  1 23  1  0
  2  3  3  0
  2 13  2  0
  2 15  4  0
  2 25  4  0
  3  8  2  0
  3  9  2  0
  3 10  2  0
  3 12  2  0
  3 16  2  0
  3 18  4  0
  3 26  2  0
  4  6  1  0
  4 12  3  0
  4 21  1  0
  4 23  4  0
  4 25  1  0
  4 26  1  0
  5  8  4  0
  5 10  3  0
  5 12  4  0
  5 13  4  0
  5 14  3  0
  5 16  4  0
  5 22  4  0
  5 24  3  0
  6  8  1  0
  6 12  3  0
  6 13  3  0
  6 14  2  0
  6 15  4  0
  6 19  3  0
  6 22  2  0
  6 23  2  0
  6 25  3  0
  6 26  3  0
  7 10  4  0
  7 12  4  0
  7 17  4  0
  8 16  3  0
  8 25  4  0
  8 26  2  0
  9 12  3  0
  9 13  2  0
  9 17  4  0
  9 24  2  0
 10 11  2  0
 10 21  1  0
 10 26  4  0
 11 13  2  0
 11 14  3  0
 11 21  4  0
 11 22  1  0
 11 25  1  0
 12 18  1  0
 12 19  3  0
 12 20  1  0
 12 21  3  0
 12 25  3  0
 13 18  2  0
 13 21  4  0
 13 23  4  0
 14 17  1  0
 14 21  1  0
 14 22  3  0
 15 19  1  0
 15 23  4  0
 15 24  4  0
 16 17  2  0
 16 18  4  0
 16 26  3  0
 17 18  1  0
 17 19  4  0
 17 21  1  0
 18 20  2  0
 18 21  4  0
 18 22  3  0
 18 23  3  0
 18 26  4  0
 19 21  4  0
 19 22  3  0
 19 23  1  0
 20 21  4  0
 20 22  2  0
 20 24  4  0
 21 22  4  0
 21 24  2  0
 21 25  3  0
 22 23  1  0
 22 25  3  0
M  END
$$$$

 Created by Python create_sdf_string function

 28 51  0  0  0  0  0  0  0  0999 V2000
    4.4905   -8.2785   26.3291 C   0  0  0  0  0  0  0  0  0  0  0  0
    0.3491   -6.0871   28.1146 C   0  0  0  0  0  0  0  0  0  0  0  0
    4.3552   -9.4019   16.3614 F   0  0  0  0  0  0  0  0  0  0  0  0
    2.5799   -4.9894   26.4822 F   0  0  0  0  0  0  0  0  0  0  0  0
    8.8288   -5.9198   27.8738 N   0  0  0  0  0  0  0  0  0  0  0  0
    1.3236   -4.0096   26.2451 C   0  0  0  0  0  0  0  0  0  0  0  0
    4.8921   -8.4081   15.3528 O   0  0  0  0  0  0  0  0  0  0  0  0
   -1.3087   -3.4998   26.9641 O   0  0  0  0  0  0  0  0  0  0  0  0
   -1.0623   -3.8529   27.1563 C   0  0  0  0  0  0  0  0  0  0  0  0
    3.2584   -8.8707   16.6527 O   0  0  0  0  0  0  0  0  0  0  0  0
   -2.1142   -5.5294   27.6698 O   0  0  0  0  0  0  0  0  0  0  0  0
    2.6465   -5.7101   27.7719 C   0  0  0  0  0  0  0  0  0  0  0  0
    9.3835   -7.1662   27.8354 C   0  0  0  0  0  0  0  0  0  0  0  0
    8.4971   -8.0602   27.6775 C   0  0  0  0  0  0  0  0  0  0  0  0
    6.0992   -8.7463   26.4432 C   0  0  0  0  0  0  0  0  0  0  0  0
    3.3672   -8.7955   17.1818 C   0  0  0  0  0  0  0  0  0  0  0  0
    5.9349   -7.2819   16.8155 C   0  0  0  0  0  0  0  0  0  0  0  0
    7.0352   -7.8100   27.3934 C   0  0  0  0  0  0  0  0  0  0  0  0
    0.1617   -4.8191   27.3413 C   0  0  0  0  0  0  0  0  0  0  0  0
    2.8839   -7.0751   27.2947 N   0  0  0  0  0  0  0  0  0  0  0  0
    5.0068   -6.8312   27.1637 He  0  0  0  0  0  0  0  0  0  0  0  0
    8.7700   -5.6877   28.4367 He  0  0  0  0  0  0  0  0  0  0  0  0
    6.7490   -7.2133   15.6069 He  0  0  0  0  0  0  0  0  0  0  0  0
   10.3041   -7.6288   27.4079 He  0  0  0  0  0  0  0  0  0  0  0  0
    6.7940   -5.9622   27.9374 He  0  0  0  0  0  0  0  0  0  0  0  0
    5.2714   -7.6565   17.2791 He  0  0  0  0  0  0  0  0  0  0  0  0
    1.7121   -6.7251   27.6860 He  0  0  0  0  0  0  0  0  0  0  0  0
    5.3272   -5.9016   28.1970 He  0  0  0  0  0  0  0  0  0  0  0  0
  1  5  1  0
  1 15  4  0
  1 16  4  0
  2 12  1  0
  2 19  1  0
  3  4  3  0
  3  6  1  0
  3  8  1  0
  3  9  2  0
  3 14  1  0
  3 18  4  0
  3 19  3  0
  4  5  4  0
  4  6  4  0
  4 12  4  0
  5 12  2  0
  5 13  4  0
  5 17  2  0
  5 20  3  0
  6  9  2  0
  7  8  1  0
  7 11  4  0
  7 12  4  0
  7 13  3  0
  7 14  2  0
  7 17  2  0
  7 18  1  0
  7 19  3  0
  8  9  2  0
  8 11  3  0
  8 20  4  0
  9 15  1  0
  9 18  4  0
  9 19  1  0
  9 20  1  0
 10 11  2  0
 10 19  1  0
 12 16  2  0
 12 17  4  0
 12 20  1  0
 13 14  4  0
 13 16  3  0
 13 18  2  0
 13 19  3  0
 14 17  1  0
 14 18  4  0
 14 19  1  0
 15 18  4  0
 15 20  1  0
 16 20  2  0
 17 20  2  0
M  END
$$$$

 Created by Python create_sdf_string function

 28 56  0  0  0  0  0  0  0  0999 V2000
    5.2456   -7.8331   26.6277 N   0  0  0  0  0  0  0  0  0  0  0  0
    0.5222   -5.9467   27.7670 C   0  0  0  0  0  0  0  0  0  0  0  0
    4.5520   -7.4836   17.2191 C   0  0  0  0  0  0  0  0  0  0  0  0
    4.9959   -7.0489   27.7084 N   0  0  0  0  0  0  0  0  0  0  0  0
    2.8096   -4.6725   26.5451 C   0  0  0  0  0  0  0  0  0  0  0  0
    9.2445   -5.8584   27.9236 N   0  0  0  0  0  0  0  0  0  0  0  0
    5.2589   -8.4209   14.2127 Cl  0  0  0  0  0  0  0  0  0  0  0  0
   -1.6615   -3.4292   27.2202 O   0  0  0  0  0  0  0  0  0  0  0  0
   -0.9460   -4.6849   27.0873 C   0  0  0  0  0  0  0  0  0  0  0  0
    5.5772   -6.4468   15.8860 F   0  0  0  0  0  0  0  0  0  0  0  0
   -2.1358   -5.5762   27.4041 O   0  0  0  0  0  0  0  0  0  0  0  0
   10.6758   -7.3408   27.4240 C   0  0  0  0  0  0  0  0  0  0  0  0
    6.6209   -6.5279   27.5744 C   0  0  0  0  0  0  0  0  0  0  0  0
    2.5505   -6.0343   27.1561 C   0  0  0  0  0  0  0  0  0  0  0  0
    8.7581   -6.8636   27.4141 C   0  0  0  0  0  0  0  0  0  0  0  0
    5.1402   -8.4108   17.6994 C   0  0  0  0  0  0  0  0  0  0  0  0
    6.3522   -8.3967   26.7496 C   0  0  0  0  0  0  0  0  0  0  0  0
    4.9342   -8.6535   17.8653 F   0  0  0  0  0  0  0  0  0  0  0  0
    3.1491   -6.9541   27.5989 N   0  0  0  0  0  0  0  0  0  0  0  0
    7.0485   -5.0491   29.3204 He  0  0  0  0  0  0  0  0  0  0  0  0
    1.0346   -4.0094   27.1422 He  0  0  0  0  0  0  0  0  0  0  0  0
    3.0578   -8.2904   15.7930 He  0  0  0  0  0  0  0  0  0  0  0  0
    0.9954   -5.3788   27.7963 He  0  0  0  0  0  0  0  0  0  0  0  0
    7.9602   -7.9465   27.0082 He  0  0  0  0  0  0  0  0  0  0  0  0
    1.8273   -9.2050   18.0344 He  0  0  0  0  0  0  0  0  0  0  0  0
    5.0254   -5.8089   28.1622 He  0  0  0  0  0  0  0  0  0  0  0  0
    7.2981   -7.4190   27.2118 He  0  0  0  0  0  0  0  0  0  0  0  0
    0.1690   -5.1253   27.1714 He  0  0  0  0  0  0  0  0  0  0  0  0
  1  4  4  0
  1  5  2  0
  1 10  1  0
  1 12  3  0
  1 14  1  0
  2  3  4  0
  2  7  1  0
  2 10  3  0
  2 17  2  0
  3  7  1  0
  3 11  3  0
  3 13  4  0
  3 17  2  0
  3 19  3  0
  4 10  3  0
  4 11  4  0
  4 15  1  0
  4 17  1  0
  5 15  4  0
  5 16  2  0
  5 17  1  0
  5 19  3  0
  6 10  4  0
  6 15  4  0
  6 17  1  0
  6 18  3  0
  7  8  2  0
  7  9  3  0
  7 11  2  0
  7 12  1  0
  7 14  3  0
  7 16  3  0
  8  9  2  0
  8 10  2  0
  8 14  3  0
  8 18  3  0
  9 11  1  0
  9 13  4  0
  9 16  2  0
 10 14  1  0
 10 18  4  0
 10 19  2  0
 11 15  4  0
 12 15  1  0
 12 16  1  0
 12 17  1  0
 12 18  2  0
 12 19  4  0
 13 15  4  0
 13 16  4  0
 13 17  1  0
 14 15  3  0
 14 18  4  0
 14 19  1  0
 15 18  4  0
 18 19  4  0
M  END
$$$$

 Created by Python create_sdf_string function

 28 53  0  0  0  0  0  0  0  0999 V2000
    4.6255   -7.9807   26.5514 N   0  0  0  0  0  0  0  0  0  0  0  0
    4.7567   -6.6569   27.1658 C   0  0  0  0  0  0  0  0  0  0  0  0
    2.3051   -4.4175   26.6779 C   0  0  0  0  0  0  0  0  0  0  0  0
    7.3458   -5.7801   29.5183 C   0  0  0  0  0  0  0  0  0  0  0  0
    8.9364   -5.6572   27.9798 N   0  0  0  0  0  0  0  0  0  0  0  0
    1.2495   -3.8049   26.9653 C   0  0  0  0  0  0  0  0  0  0  0  0
   -2.0009   -3.6014   27.1182 O   0  0  0  0  0  0  0  0  0  0  0  0
   -1.1512   -4.4525   27.0029 N   0  0  0  0  0  0  0  0  0  0  0  0
    3.2917   -8.0925   15.5836 C   0  0  0  0  0  0  0  0  0  0  0  0
    6.3336   -7.8380   16.5048 N   0  0  0  0  0  0  0  0  0  0  0  0
   -2.3848   -5.7966   27.4831 O   0  0  0  0  0  0  0  0  0  0  0  0
   10.9670   -6.9931   27.1180 C   0  0  0  0  0  0  0  0  0  0  0  0
    6.7633   -5.8738   27.6828 C   0  0  0  0  0  0  0  0  0  0  0  0
    2.3205   -6.4841   27.0253 C   0  0  0  0  0  0  0  0  0  0  0  0
    9.1979   -6.9676   27.5727 O   0  0  0  0  0  0  0  0  0  0  0  0
    1.2996   -5.2484   26.3364 C   0  0  0  0  0  0  0  0  0  0  0  0
    8.5063   -8.1639   27.2708 N   0  0  0  0  0  0  0  0  0  0  0  0
    6.4795   -8.1434   27.2761 Cl  0  0  0  0  0  0  0  0  0  0  0  0
    3.4783   -8.2998   16.9020 N   0  0  0  0  0  0  0  0  0  0  0  0
    5.7725   -8.7755   18.0503 C   0  0  0  0  0  0  0  0  0  0  0  0
    5.4895   -6.6536   28.0027 C   0  0  0  0  0  0  0  0  0  0  0  0
    7.1579   -7.1747   27.4310 C   0  0  0  0  0  0  0  0  0  0  0  0
    3.4810   -7.3947   27.5228 N   0  0  0  0  0  0  0  0  0  0  0  0
    0.6567   -5.9903   27.3521 He  0  0  0  0  0  0  0  0  0  0  0  0
    3.4946   -7.7259   15.2136 He  0  0  0  0  0  0  0  0  0  0  0  0
    4.3194   -9.5225   14.3226 He  0  0  0  0  0  0  0  0  0  0  0  0
    3.2949   -9.1392   16.9194 He  0  0  0  0  0  0  0  0  0  0  0  0
    0.6774   -4.9006   26.9880 He  0  0  0  0  0  0  0  0  0  0  0  0
  1  2  4  0
  1  7  3  0
  1 18  4  0
  2  4  4  0
  2  9  3  0
  2 11  4  0
  2 13  1  0
  2 21  4  0
  2 23  1  0
  3  4  1  0
  3  5  2  0
  3  6  4  0
  3  7  3  0
  3  9  2  0
  3 14  4  0
  3 21  1  0
  4 18  3  0
  4 20  4  0
  5 15  4  0
  6 21  1  0
  7  8  2  0
  7 10  3  0
  7 16  4  0
  7 19  3  0
  7 21  3  0
  8 11  1  0
  8 14  2  0
  8 19  3  0
  9 10  4  0
  9 23  2  0
 10 12  4  0
 10 13  1  0
 10 14  3  0
 10 15  2  0
 10 16  3  0
 10 18  1  0
 11 23  2  0
 12 15  1  0
 12 23  4  0
 13 19  4  0
 13 20  4  0
 13 21  3  0
 14 16  4  0
 14 19  4  0
 14 23  1  0
 15 17  4  0
 17 19  1  0
 17 21  2  0
 18 20  1  0
 18 21  1  0
 18 22  4  0
 19 20  4  0
 21 23  4  0
M  END
$$$$

 Created by Python create_sdf_string function

 28 51  0  0  0  0  0  0  0  0999 V2000
    5.0066   -8.0695   26.6612 N   0  0  0  0  0  0  0  0  0  0  0  0
    6.8901   -4.9194   28.3137 C   0  0  0  0  0  0  0  0  0  0  0  0
    9.0277   -5.8527   28.2675 N   0  0  0  0  0  0  0  0  0  0  0  0
    0.6054   -4.1234   27.0821 C   0  0  0  0  0  0  0  0  0  0  0  0
   -1.5634   -3.3662   26.5904 O   0  0  0  0  0  0  0  0  0  0  0  0
   -1.1338   -4.5502   27.3269 N   0  0  0  0  0  0  0  0  0  0  0  0
    5.3319   -7.5710   17.2844 C   0  0  0  0  0  0  0  0  0  0  0  0
   -2.2609   -5.2611   27.6369 O   0  0  0  0  0  0  0  0  0  0  0  0
   10.8623   -7.0231   27.1495 C   0  0  0  0  0  0  0  0  0  0  0  0
    6.6939   -6.0203   28.2797 Se  0  0  0  0  0  0  0  0  0  0  0  0
    2.7853   -6.0267   27.1051 C   0  0  0  0  0  0  0  0  0  0  0  0
    2.4275   -9.9660   17.2292 C   0  0  0  0  0  0  0  0  0  0  0  0
    1.3210   -4.9059   27.4534 O   0  0  0  0  0  0  0  0  0  0  0  0
    9.0557   -8.1471   27.3719 N   0  0  0  0  0  0  0  0  0  0  0  0
    6.3938   -8.4720   26.7327 C   0  0  0  0  0  0  0  0  0  0  0  0
    4.7038   -8.5389   17.8317 N   0  0  0  0  0  0  0  0  0  0  0  0
    5.4224   -6.1979   27.8587 C   0  0  0  0  0  0  0  0  0  0  0  0
    7.2358   -7.6623   26.7491 C   0  0  0  0  0  0  0  0  0  0  0  0
    0.0412   -4.9259   27.5371 C   0  0  0  0  0  0  0  0  0  0  0  0
    3.3039   -6.7821   26.9542 N   0  0  0  0  0  0  0  0  0  0  0  0
   -0.1256   -5.8917   27.6852 He  0  0  0  0  0  0  0  0  0  0  0  0
    3.8296   -6.5813   14.7821 He  0  0  0  0  0  0  0  0  0  0  0  0
    4.6057   -7.1455   27.4121 He  0  0  0  0  0  0  0  0  0  0  0  0
    2.4919   -5.1636   26.6385 He  0  0  0  0  0  0  0  0  0  0  0  0
    4.8933   -7.9746   16.3125 He  0  0  0  0  0  0  0  0  0  0  0  0
    3.6866   -7.3866   15.1154 He  0  0  0  0  0  0  0  0  0  0  0  0
    9.1971   -6.2629   27.7962 He  0  0  0  0  0  0  0  0  0  0  0  0
    6.2169   -8.5048   17.1033 He  0  0  0  0  0  0  0  0  0  0  0  0
  1  2  3  0
  1  7  2  0
  1 10  4  0
  1 15  4  0
  1 18  2  0
  2  3  2  0
  2  5  2  0
  2  8  3  0
  2  9  1  0
  2 10  4  0
  2 12  4  0
  2 14  4  0
  2 15  3  0
  2 17  2  0
  3 15  4  0
  3 19  1  0
  4 12  1  0
  4 14  4  0
  4 19  4  0
  5  6  2  0
  5 13  3  0
  5 16  2  0
  5 20  4  0
  6  8  1  0
  6  9  3  0
  6 10  4  0
  6 16  2  0
  6 18  2  0
  6 19  1  0
  7  9  1  0
  7 13  2  0
  7 14  2  0
  7 16  4  0
  8 10  2  0
  8 16  4  0
  9 10  4  0
  9 11  1  0
  9 12  2  0
  9 17  2  0
  9 19  1  0
 10 16  4  0
 10 17  4  0
 11 12  1  0
 11 13  2  0
 11 20  1  0
 12 18  4  0
 13 16  2  0
 14 17  4  0
 14 18  4  0
 15 18  4  0
 16 17  1  0
M  END
$$$$

 Created by Python create_sdf_string function

 28 53  0  0  0  0  0  0  0  0999 V2000
    4.8855   -8.0707   26.8528 N   0  0  0  0  0  0  0  0  0  0  0  0
    0.3545   -5.9058   27.8795 N   0  0  0  0  0  0  0  0  0  0  0  0
    4.1077   -7.1075   13.9889 C   0  0  0  0  0  0  0  0  0  0  0  0
    4.9711   -6.3191   27.4250 C   0  0  0  0  0  0  0  0  0  0  0  0
    2.8285   -4.5361   26.9763 C   0  0  0  0  0  0  0  0  0  0  0  0
    9.1132   -5.4990   28.0899 N   0  0  0  0  0  0  0  0  0  0  0  0
    1.4339   -3.4609   26.8012 C   0  0  0  0  0  0  0  0  0  0  0  0
   -1.4161   -3.1262   27.2416 O   0  0  0  0  0  0  0  0  0  0  0  0
   -1.1876   -4.7519   27.6593 C   0  0  0  0  0  0  0  0  0  0  0  0
    3.9254   -8.9455   14.5680 C   0  0  0  0  0  0  0  0  0  0  0  0
    5.7701   -7.7132   16.4869 C   0  0  0  0  0  0  0  0  0  0  0  0
   -2.3344   -5.0916   27.5150 O   0  0  0  0  0  0  0  0  0  0  0  0
   11.0364   -6.8834   27.2128 C   0  0  0  0  0  0  0  0  0  0  0  0
    6.9410   -6.2594   27.7305 C   0  0  0  0  0  0  0  0  0  0  0  0
    2.4722   -5.9318   27.3085 C   0  0  0  0  0  0  0  0  0  0  0  0
    9.1876   -6.3248   27.6667 C   0  0  0  0  0  0  0  0  0  0  0  0
    8.9001   -7.4291   27.1730 N   0  0  0  0  0  0  0  0  0  0  0  0
    6.3110   -8.1784   26.9712 C   0  0  0  0  0  0  0  0  0  0  0  0
    5.6126   -9.4293   16.5630 C   0  0  0  0  0  0  0  0  0  0  0  0
    5.0085   -6.0085   27.8785 N   0  0  0  0  0  0  0  0  0  0  0  0
    7.1804   -7.3523   27.3906 C   0  0  0  0  0  0  0  0  0  0  0  0
   -0.0300   -4.4808   27.3076 C   0  0  0  0  0  0  0  0  0  0  0  0
    3.1086   -6.5471   26.9912 F   0  0  0  0  0  0  0  0  0  0  0  0
    8.6981   -4.2714   29.6887 He  0  0  0  0  0  0  0  0  0  0  0  0
    3.9121   -6.5422   15.5017 He  0  0  0  0  0  0  0  0  0  0  0  0
    2.7272   -8.4315   17.2597 He  0  0  0  0  0  0  0  0  0  0  0  0
    1.1646   -6.3540   27.6375 He  0  0  0  0  0  0  0  0  0  0  0  0
    2.2391   -8.4238   18.3504 He  0  0  0  0  0  0  0  0  0  0  0  0
  1  3  4  0
  1  4  4  0
  1 11  3  0
  1 16  3  0
  1 18  2  0
  1 20  3  0
  2 16  3  0
  2 22  4  0
  3  6  3  0
  3  7  1  0
  3  9  4  0
  3 12  4  0
  3 13  1  0
  3 22  2  0
  4  5  3  0
  4 23  1  0
  5  7  4  0
  5 10  1  0
  5 15  4  0
  5 16  4  0
  5 19  2  0
  6 10  4  0
  6 16  1  0
  7 12  4  0
  7 13  4  0
  7 18  1  0
  7 19  3  0
  7 22  4  0
  8  9  2  0
  8 11  4  0
  8 14  4  0
  8 20  4  0
  9 16  1  0
  9 18  3  0
  9 22  1  0
 10 15  2  0
 10 16  3  0
 10 18  2  0
 10 21  2  0
 11 14  1  0
 11 15  4  0
 11 19  3  0
 11 22  2  0
 12 19  1  0
 13 16  1  0
 13 19  1  0
 14 20  4  0
 14 21  4  0
 15 19  3  0
 15 23  1  0
 16 17  4  0
 17 21  4  0
 19 21  3  0
M  END
$$$$

 Created by Python create_sdf_string function

 28 62  0  0  0  0  0  0  0  0999 V2000
    5.6138   -7.9239   26.6735 N   0  0  0  0  0  0  0  0  0  0  0  0
    0.0327   -6.7978   27.1385 C   0  0  0  0  0  0  0  0  0  0  0  0
    4.6777   -6.6874   14.6651 Cl  0  0  0  0  0  0  0  0  0  0  0  0
    4.7596   -6.8226   27.0919 C   0  0  0  0  0  0  0  0  0  0  0  0
    2.1375   -4.7539   27.2851 N   0  0  0  0  0  0  0  0  0  0  0  0
    8.7964   -4.7458   28.7001 N   0  0  0  0  0  0  0  0  0  0  0  0
    0.9556   -3.3247   27.0187 C   0  0  0  0  0  0  0  0  0  0  0  0
    4.1641   -7.2124   15.4637 N   0  0  0  0  0  0  0  0  0  0  0  0
   -1.2943   -3.5220   27.5778 O   0  0  0  0  0  0  0  0  0  0  0  0
   -1.4250   -4.4870   27.7546 C   0  0  0  0  0  0  0  0  0  0  0  0
    5.5300   -9.1243   15.9690 C   0  0  0  0  0  0  0  0  0  0  0  0
   -2.6983   -4.4170   27.5138 O   0  0  0  0  0  0  0  0  0  0  0  0
   10.8565   -6.4133   27.3315 S   0  0  0  0  0  0  0  0  0  0  0  0
    7.1489   -6.7878   27.6849 C   0  0  0  0  0  0  0  0  0  0  0  0
    2.5729   -5.8994   27.5001 C   0  0  0  0  0  0  0  0  0  0  0  0
    9.3285   -6.6907   27.6538 C   0  0  0  0  0  0  0  0  0  0  0  0
    2.9619   -8.2153   16.4185 C   0  0  0  0  0  0  0  0  0  0  0  0
    1.0099   -6.0500   26.5612 C   0  0  0  0  0  0  0  0  0  0  0  0
    8.5190   -7.2804   27.4381 N   0  0  0  0  0  0  0  0  0  0  0  0
    6.2986   -7.9921   26.4724 C   0  0  0  0  0  0  0  0  0  0  0  0
    3.6134   -8.6071   16.9497 C   0  0  0  0  0  0  0  0  0  0  0  0
    4.8444   -9.6246   16.4219 F   0  0  0  0  0  0  0  0  0  0  0  0
    5.4509   -5.9822   27.9674 N   0  0  0  0  0  0  0  0  0  0  0  0
    7.2187   -7.1041   26.7967 C   0  0  0  0  0  0  0  0  0  0  0  0
   -0.1343   -4.5259   27.8636 C   0  0  0  0  0  0  0  0  0  0  0  0
    3.5577   -6.9396   27.2452 N   0  0  0  0  0  0  0  0  0  0  0  0
    7.6989   -6.3337   27.9923 He  0  0  0  0  0  0  0  0  0  0  0  0
    3.8012   -8.1120   15.6435 He  0  0  0  0  0  0  0  0  0  0  0  0
  1  4  4  0
  1 17  3  0
  1 18  1  0
  1 20  4  0
  2  9  4  0
  2 10  2  0
  2 11  3  0
  2 16  1  0
  2 21  4  0
  2 22  2  0
  2 25  4  0
  3  8  4  0
  3 10  3  0
  3 11  4  0
  3 17  1  0
  3 20  3  0
  3 24  3  0
  4 18  3  0
  4 23  4  0
  4 25  1  0
  4 26  1  0
  5 15  4  0
  6  8  2  0
  6 14  3  0
  6 16  4  0
  6 19  3  0
  6 22  4  0
  7 25  4  0
  8 11  4  0
  8 12  3  0
  8 15  3  0
  8 22  1  0
  9 11  3  0
  9 22  2  0
 10 12  1  0
 10 17  4  0
 10 25  4  0
 11 15  4  0
 11 18  3  0
 11 21  4  0
 11 24  2  0
 12 13  3  0
 12 17  1  0
 12 22  4  0
 13 24  1  0
 14 15  4  0
 14 17  1  0
 14 23  4  0
 14 24  4  0
 15 26  1  0
 16 17  3  0
 16 19  4  0
 17 18  2  0
 17 24  3  0
 18 19  1  0
 18 21  3  0
 19 21  4  0
 19 24  4  0
 20 24  1  0
 21 22  4  0
 22 24  1  0
 23 24  2  0
M  END
$$$$

 Created by Python create_sdf_string function

 28 59  0  0  0  0  0  0  0  0999 V2000
    5.2817   -8.1268   26.3408 N   0  0  0  0  0  0  0  0  0  0  0  0
    0.0683   -6.2727   27.5592 C   0  0  0  0  0  0  0  0  0  0  0  0
    5.5599   -6.2107   14.5632 F   0  0  0  0  0  0  0  0  0  0  0  0
    2.1638   -4.4421   27.1857 C   0  0  0  0  0  0  0  0  0  0  0  0
    6.8767   -4.6677   29.2905 S   0  0  0  0  0  0  0  0  0  0  0  0
    8.5536   -5.5043   28.7863 N   0  0  0  0  0  0  0  0  0  0  0  0
    0.8960   -4.2915   27.0751 F   0  0  0  0  0  0  0  0  0  0  0  0
    4.5141   -6.7958   15.9065 N   0  0  0  0  0  0  0  0  0  0  0  0
   -1.5231   -2.9022   27.5688 O   0  0  0  0  0  0  0  0  0  0  0  0
   -1.2183   -4.2130   27.9068 C   0  0  0  0  0  0  0  0  0  0  0  0
   -2.1050   -4.9956   27.7997 O   0  0  0  0  0  0  0  0  0  0  0  0
   11.1940   -6.1696   27.5598 O   0  0  0  0  0  0  0  0  0  0  0  0
    6.9240   -5.8762   28.0490 S   0  0  0  0  0  0  0  0  0  0  0  0
    2.1721   -6.3143   27.5810 C   0  0  0  0  0  0  0  0  0  0  0  0
    9.5119   -6.3642   27.5683 C   0  0  0  0  0  0  0  0  0  0  0  0
    2.4706   -8.7484   16.2899 P   0  0  0  0  0  0  0  0  0  0  0  0
    6.3816   -8.2702   26.4428 C   0  0  0  0  0  0  0  0  0  0  0  0
    4.2657   -8.4359   16.5312 C   0  0  0  0  0  0  0  0  0  0  0  0
    3.8818   -9.8504   17.6370 C   0  0  0  0  0  0  0  0  0  0  0  0
    5.1412   -5.6930   27.5480 N   0  0  0  0  0  0  0  0  0  0  0  0
    7.1197   -7.0668   26.9179 C   0  0  0  0  0  0  0  0  0  0  0  0
   -0.2831   -4.8197   27.1363 C   0  0  0  0  0  0  0  0  0  0  0  0
    3.2712   -6.8690   27.4213 N   0  0  0  0  0  0  0  0  0  0  0  0
    4.1836   -6.9992   27.1023 He  0  0  0  0  0  0  0  0  0  0  0  0
    2.6468   -7.3284   14.3696 He  0  0  0  0  0  0  0  0  0  0  0  0
    5.1511   -8.4900   15.6387 He  0  0  0  0  0  0  0  0  0  0  0  0
    2.2726   -8.2751   27.1010 He  0  0  0  0  0  0  0  0  0  0  0  0
    8.5390   -7.3102   27.0296 He  0  0  0  0  0  0  0  0  0  0  0  0
  1  5  3  0
  1  6  4  0
  1  7  3  0
  1  9  2  0
  1 17  4  0
  1 18  2  0
  2  8  2  0
  2 15  2  0
  2 20  4  0
  2 22  4  0
  3  6  4  0
  3  8  4  0
  3 12  4  0
  3 14  3  0
  3 19  1  0
  4  5  4  0
  4  6  3  0
  4  7  4  0
  4 11  1  0
  4 12  3  0
  4 14  4  0
  4 22  1  0
  5  7  2  0
  5  8  1  0
  5 10  1  0
  5 11  4  0
  5 13  2  0
  5 14  3  0
  5 15  2  0
  5 16  3  0
  5 20  3  0
  5 22  1  0
  6 15  4  0
  7  8  1  0
  7 16  1  0
  7 19  2  0
  7 21  2  0
  7 22  4  0
  8 13  4  0
  8 14  2  0
  8 17  3  0
  8 22  3  0
  9 10  2  0
  9 11  2  0
  9 19  4  0
 10 11  1  0
 10 12  2  0
 10 14  3  0
 10 22  1  0
 11 18  2  0
 12 13  4  0
 12 15  2  0
 13 15  4  0
 13 21  4  0
 13 23  2  0
 14 23  1  0
 16 21  1  0
 17 21  4  0
 21 22  4  0
M  END
$$$$

 Created by Python create_sdf_string function

 28 55  0  0  0  0  0  0  0  0999 V2000
   -0.1545   -6.1668   27.3356 C   0  0  0  0  0  0  0  0  0  0  0  0
    4.4915   -7.0652   26.8729 Br  0  0  0  0  0  0  0  0  0  0  0  0
    6.2772   -5.0655   29.1426 C   0  0  0  0  0  0  0  0  0  0  0  0
    8.9521   -5.5250   28.4962 N   0  0  0  0  0  0  0  0  0  0  0  0
    5.7016   -7.7409   15.1787 S   0  0  0  0  0  0  0  0  0  0  0  0
   -1.9360   -2.8687   27.4652 O   0  0  0  0  0  0  0  0  0  0  0  0
   -1.4940   -4.2999   27.5976 C   0  0  0  0  0  0  0  0  0  0  0  0
    3.6368   -7.1565   16.6706 F   0  0  0  0  0  0  0  0  0  0  0  0
    5.4425   -8.5652   17.2258 C   0  0  0  0  0  0  0  0  0  0  0  0
   -2.5894   -4.7828   27.8071 C   0  0  0  0  0  0  0  0  0  0  0  0
   10.7045   -6.6088   27.8416 O   0  0  0  0  0  0  0  0  0  0  0  0
    6.0999   -6.3850   27.7122 C   0  0  0  0  0  0  0  0  0  0  0  0
    9.2915   -6.3262   28.2402 C   0  0  0  0  0  0  0  0  0  0  0  0
    1.2575   -8.6221   17.0418 S   0  0  0  0  0  0  0  0  0  0  0  0
    0.0571   -6.7795   26.2172 C   0  0  0  0  0  0  0  0  0  0  0  0
    8.4868   -7.0379   26.9181 N   0  0  0  0  0  0  0  0  0  0  0  0
    6.3370   -7.6560   26.5653 C   0  0  0  0  0  0  0  0  0  0  0  0
    4.6770   -5.8812   27.7969 C   0  0  0  0  0  0  0  0  0  0  0  0
    7.0165   -7.7141   27.1933 C   0  0  0  0  0  0  0  0  0  0  0  0
    2.9254   -6.3723   26.8199 N   0  0  0  0  0  0  0  0  0  0  0  0
    5.2119   -8.1841   26.6651 He  0  0  0  0  0  0  0  0  0  0  0  0
    5.5174   -6.1824   14.1018 He  0  0  0  0  0  0  0  0  0  0  0  0
    2.3123   -5.0340   27.5343 He  0  0  0  0  0  0  0  0  0  0  0  0
    0.8852   -3.8328   26.9671 He  0  0  0  0  0  0  0  0  0  0  0  0
    2.6089   -6.2511   26.7803 He  0  0  0  0  0  0  0  0  0  0  0  0
    4.3699   -9.0892   15.8416 He  0  0  0  0  0  0  0  0  0  0  0  0
    4.0992   -8.8982   15.8063 He  0  0  0  0  0  0  0  0  0  0  0  0
   -0.1093   -4.6342   27.3640 He  0  0  0  0  0  0  0  0  0  0  0  0
  1  5  1  0
  1  6  4  0
  1 13  1  0
  1 14  1  0
  1 15  4  0
  2  3  4  0
  2  4  2  0
  2  5  2  0
  2  7  3  0
  2 10  1  0
  2 12  3  0
  2 13  3  0
  2 18  4  0
  2 20  1  0
  3  4  1  0
  3  6  3  0
  3 10  2  0
  3 14  2  0
  3 17  2  0
  4  5  2  0
  4 13  4  0
  5  8  2  0
  5  9  3  0
  5 10  3  0
  5 11  3  0
  5 13  1  0
  5 14  2  0
  5 17  3  0
  6  7  2  0
  7 10  1  0
  8 10  4  0
  8 11  3  0
  8 14  4  0
  8 15  4  0
  8 16  3  0
  8 18  1  0
  9 10  3  0
  9 11  1  0
  9 19  1  0
  9 20  3  0
 10 11  1  0
 10 13  2  0
 10 14  4  0
 11 13  2  0
 11 14  1  0
 11 15  3  0
 12 14  4  0
 12 18  4  0
 12 19  4  0
 13 15  3  0
 13 16  4  0
 13 20  4  0
 14 16  3  0
 15 19  4  0
 17 19  4  0
M  END
$$$$

 Created by Python create_sdf_string function

 28 57  0  0  0  0  0  0  0  0999 V2000
    4.7503   -8.0257   26.6623 C   0  0  0  0  0  0  0  0  0  0  0  0
   -0.1434   -6.2245   27.1208 C   0  0  0  0  0  0  0  0  0  0  0  0
    5.9038   -7.7246   14.2922 C   0  0  0  0  0  0  0  0  0  0  0  0
    4.4525   -6.7602   27.0867 C   0  0  0  0  0  0  0  0  0  0  0  0
    8.1121   -5.5894   28.1701 N   0  0  0  0  0  0  0  0  0  0  0  0
    1.0659   -4.3179   27.4753 C   0  0  0  0  0  0  0  0  0  0  0  0
    6.1586   -6.9346   16.6532 C   0  0  0  0  0  0  0  0  0  0  0  0
   -1.4645   -3.8530   27.8380 C   0  0  0  0  0  0  0  0  0  0  0  0
    3.1120   -7.5984   15.3817 F   0  0  0  0  0  0  0  0  0  0  0  0
    5.4574   -7.5449   16.0944 P   0  0  0  0  0  0  0  0  0  0  0  0
   -2.8575   -4.4487   27.5144 C   0  0  0  0  0  0  0  0  0  0  0  0
   10.5502   -5.9623   28.0481 O   0  0  0  0  0  0  0  0  0  0  0  0
    6.5118   -5.9623   27.7455 C   0  0  0  0  0  0  0  0  0  0  0  0
    1.6784   -6.1106   27.0808 B   0  0  0  0  0  0  0  0  0  0  0  0
    8.9326   -6.1738   28.2821 C   0  0  0  0  0  0  0  0  0  0  0  0
    1.3708   -6.2266   26.7354 C   0  0  0  0  0  0  0  0  0  0  0  0
    8.8098   -7.2366   27.2943 N   0  0  0  0  0  0  0  0  0  0  0  0
    6.0587   -8.2816   26.4449 C   0  0  0  0  0  0  0  0  0  0  0  0
    3.6725   -7.9457   15.1972 C   0  0  0  0  0  0  0  0  0  0  0  0
    5.2112   -5.9454   27.6200 C   0  0  0  0  0  0  0  0  0  0  0  0
    7.1886   -7.6061   26.8641 C   0  0  0  0  0  0  0  0  0  0  0  0
   -0.0737   -4.9783   27.3843 C   0  0  0  0  0  0  0  0  0  0  0  0
    3.0966   -6.7499   26.1856 N   0  0  0  0  0  0  0  0  0  0  0  0
    2.3972   -4.7552   27.0713 He  0  0  0  0  0  0  0  0  0  0  0  0
    6.5937   -3.9951   29.5972 He  0  0  0  0  0  0  0  0  0  0  0  0
   -1.3800   -2.7823   28.0487 He  0  0  0  0  0  0  0  0  0  0  0  0
    1.9429   -9.1258   15.8464 He  0  0  0  0  0  0  0  0  0  0  0  0
    3.8664   -8.9737   16.1691 He  0  0  0  0  0  0  0  0  0  0  0  0
  1  4  4  0
  1  7  1  0
  1  9  3  0
  1 14  4  0
  1 18  4  0
  1 20  2  0
  2  7  3  0
  2 12  4  0
  2 16  4  0
  2 19  3  0
  2 22  4  0
  2 23  3  0
  3  6  4  0
  3 13  4  0
  3 14  2  0
  3 16  3  0
  3 23  3  0
  4  7  2  0
  4 10  2  0
  4 16  3  0
  4 20  4  0
  4 23  1  0
  5  9  2  0
  5 13  2  0
  5 16  4  0
  5 18  3  0
  5 21  3  0
  6 16  1  0
  7 10  4  0
  7 11  3  0
  7 19  1  0
  7 22  2  0
  8 11  3  0
  8 12  3  0
  8 16  3  0
  8 22  1  0
  9 15  2  0
  9 16  3  0
  9 22  2  0
 10 16  3  0
 10 19  4  0
 10 21  1  0
 11 20  1  0
 12 15  2  0
 13 20  4  0
 14 16  4  0
 14 19  2  0
 15 17  4  0
 15 21  4  0
 15 23  4  0
 16 17  1  0
 17 19  2  0
 17 21  4  0
 17 23  3  0
 18 19  1  0
 19 22  1  0
 20 21  2  0
M  END
$$$$

 Created by Python create_sdf_string function

 28 62  0  0  0  0  0  0  0  0999 V2000
    5.3469   -7.8233   26.3064 C   0  0  0  0  0  0  0  0  0  0  0  0
   -0.1134   -6.1652   26.8351 O   0  0  0  0  0  0  0  0  0  0  0  0
    4.8229   -7.2672   14.6389 S   0  0  0  0  0  0  0  0  0  0  0  0
    4.2811   -6.5660   26.8688 C   0  0  0  0  0  0  0  0  0  0  0  0
    2.2738   -5.0100   27.3829 C   0  0  0  0  0  0  0  0  0  0  0  0
    8.5321   -5.0812   28.9775 N   0  0  0  0  0  0  0  0  0  0  0  0
    1.4745   -4.2338   27.6524 B   0  0  0  0  0  0  0  0  0  0  0  0
    4.8710   -8.4760   16.4125 Cl  0  0  0  0  0  0  0  0  0  0  0  0
   -2.2131   -2.5451   28.0460 O   0  0  0  0  0  0  0  0  0  0  0  0
   -1.6161   -3.8882   27.4945 C   0  0  0  0  0  0  0  0  0  0  0  0
    5.6014   -6.8314   16.0907 P   0  0  0  0  0  0  0  0  0  0  0  0
   -2.5469   -5.1243   27.1183 C   0  0  0  0  0  0  0  0  0  0  0  0
   10.1669   -6.1193   27.9410 O   0  0  0  0  0  0  0  0  0  0  0  0
    6.6123   -6.4784   27.8856 C   0  0  0  0  0  0  0  0  0  0  0  0
    2.4831   -5.9196   26.9693 C   0  0  0  0  0  0  0  0  0  0  0  0
    9.1313   -6.2106   27.8379 C   0  0  0  0  0  0  0  0  0  0  0  0
    1.4761   -8.7463   15.6723 C   0  0  0  0  0  0  0  0  0  0  0  0
    0.6933   -7.2958   26.9948 S   0  0  0  0  0  0  0  0  0  0  0  0
    8.3179   -7.3300   27.3577 F   0  0  0  0  0  0  0  0  0  0  0  0
    6.6437   -8.2108   26.7125 C   0  0  0  0  0  0  0  0  0  0  0  0
    3.3779   -8.0583   14.7842 C   0  0  0  0  0  0  0  0  0  0  0  0
    5.0086   -6.0160   27.8921 C   0  0  0  0  0  0  0  0  0  0  0  0
    7.1398   -6.9570   27.5007 C   0  0  0  0  0  0  0  0  0  0  0  0
    0.1812   -4.5792   27.5011 C   0  0  0  0  0  0  0  0  0  0  0  0
    3.1146   -6.4652   26.0102 N   0  0  0  0  0  0  0  0  0  0  0  0
    7.1041   -4.5380   28.0114 He  0  0  0  0  0  0  0  0  0  0  0  0
    2.7790   -7.8869   16.4887 He  0  0  0  0  0  0  0  0  0  0  0  0
    3.6545   -8.0114   16.8890 He  0  0  0  0  0  0  0  0  0  0  0  0
  1  3  2  0
  1  4  4  0
  1  6  1  0
  1  8  3  0
  1 10  4  0
  1 18  2  0
  1 20  2  0
  1 21  4  0
  1 22  4  0
  2 18  4  0
  2 21  2  0
  2 24  4  0
  3 11  4  0
  3 14  2  0
  3 16  4  0
  3 22  1  0
  4 19  4  0
  4 20  4  0
  4 22  4  0
  4 24  3  0
  4 25  1  0
  5  7  4  0
  5 15  4  0
  6 11  2  0
  6 13  2  0
  6 16  4  0
  6 18  4  0
  6 20  2  0
  6 22  1  0
  8 11  2  0
  8 20  3  0
  8 25  4  0
  9 10  2  0
  9 18  2  0
  9 22  3  0
  9 23  3  0
  9 25  1  0
 10 12  1  0
 10 22  4  0
 10 24  1  0
 11 14  1  0
 11 15  4  0
 11 17  3  0
 11 22  4  0
 11 23  2  0
 12 17  1  0
 13 16  2  0
 14 17  3  0
 14 23  4  0
 14 25  3  0
 15 24  1  0
 16 19  4  0
 16 23  4  0
 16 24  2  0
 17 18  2  0
 17 19  4  0
 19 21  4  0
 19 23  4  0
 20 21  2  0
 21 24  2  0
 21 25  1  0
 24 25  3  0
M  END
$$$$

 Created by Python create_sdf_string function

 28 51  0  0  0  0  0  0  0  0999 V2000
    4.9103   -7.5753   26.3869 C   0  0  0  0  0  0  0  0  0  0  0  0
   -0.0299   -6.0670   27.0855 C   0  0  0  0  0  0  0  0  0  0  0  0
    4.1333   -7.2217   26.5631 C   0  0  0  0  0  0  0  0  0  0  0  0
    2.5285   -4.2044   27.1748 C   0  0  0  0  0  0  0  0  0  0  0  0
    6.8603   -5.4443   28.0428 C   0  0  0  0  0  0  0  0  0  0  0  0
    8.5849   -4.7605   28.3354 C   0  0  0  0  0  0  0  0  0  0  0  0
    0.9027   -4.2802   27.8483 C   0  0  0  0  0  0  0  0  0  0  0  0
    5.2799   -7.8474   16.2518 N   0  0  0  0  0  0  0  0  0  0  0  0
   -1.4745   -3.2437   27.7438 O   0  0  0  0  0  0  0  0  0  0  0  0
   -1.2554   -4.0811   26.9299 F   0  0  0  0  0  0  0  0  0  0  0  0
    2.0177   -7.2027   16.2436 N   0  0  0  0  0  0  0  0  0  0  0  0
    6.2415   -7.3492   16.4542 C   0  0  0  0  0  0  0  0  0  0  0  0
   -2.0194   -4.5221   27.2135 C   0  0  0  0  0  0  0  0  0  0  0  0
   10.5243   -5.7176   28.2057 O   0  0  0  0  0  0  0  0  0  0  0  0
    6.5163   -5.8450   27.3278 F   0  0  0  0  0  0  0  0  0  0  0  0
    2.2817   -6.6929   27.2247 C   0  0  0  0  0  0  0  0  0  0  0  0
    8.8970   -5.7102   27.8323 C   0  0  0  0  0  0  0  0  0  0  0  0
    1.9962   -6.6593   26.7037 C   0  0  0  0  0  0  0  0  0  0  0  0
    8.4965   -7.2018   27.1761 F   0  0  0  0  0  0  0  0  0  0  0  0
    6.1424   -8.4214   26.9510 C   0  0  0  0  0  0  0  0  0  0  0  0
    4.1735   -7.1265   15.0466 C   0  0  0  0  0  0  0  0  0  0  0  0
    5.2641   -5.7717   27.0538 C   0  0  0  0  0  0  0  0  0  0  0  0
    7.6807   -7.0959   27.2886 C   0  0  0  0  0  0  0  0  0  0  0  0
    2.9215   -6.7051   26.3773 N   0  0  0  0  0  0  0  0  0  0  0  0
    3.3320   -7.8616   15.5359 He  0  0  0  0  0  0  0  0  0  0  0  0
    1.3220   -8.6239   16.7719 He  0  0  0  0  0  0  0  0  0  0  0  0
    4.5082   -7.7685   17.1412 He  0  0  0  0  0  0  0  0  0  0  0  0
   -0.1013   -4.8854   27.4299 He  0  0  0  0  0  0  0  0  0  0  0  0
  1  3  4  0
  1 16  2  0
  1 17  1  0
  1 18  2  0
  1 20  4  0
  2 11  1  0
  2 13  1  0
  3 11  1  0
  3 13  3  0
  3 14  3  0
  3 19  2  0
  3 20  4  0
  3 24  1  0
  4  7  4  0
  4 10  2  0
  4 11  3  0
  4 16  4  0
  5  8  4  0
  5 15  4  0
  5 22  4  0
  5 23  3  0
  6  8  1  0
  6  9  1  0
  6 17  4  0
  6 21  4  0
  7 11  3  0
  8  9  1  0
  8 12  4  0
  9 10  2  0
  9 16  4  0
  9 20  2  0
  9 22  4  0
  9 23  3  0
 10 13  1  0
 11 14  4  0
 11 15  2  0
 11 17  2  0
 11 23  3  0
 12 14  3  0
 12 22  2  0
 13 22  3  0
 14 17  2  0
 14 21  2  0
 15 20  2  0
 15 22  4  0
 15 23  4  0
 16 18  4  0
 16 21  3  0
 17 19  4  0
 18 20  1  0
 20 23  4  0
M  END
$$$$

 Created by Python create_sdf_string function

 28 78  0  0  0  0  0  0  0  0999 V2000
    5.1377   -7.6720   26.4682 C   0  0  0  0  0  0  0  0  0  0  0  0
    0.0928   -6.2603   26.6295 C   0  0  0  0  0  0  0  0  0  0  0  0
    2.4798   -7.9608   15.0293 C   0  0  0  0  0  0  0  0  0  0  0  0
    4.1760   -6.9171   26.6441 C   0  0  0  0  0  0  0  0  0  0  0  0
    2.2665   -4.8115   27.7009 C   0  0  0  0  0  0  0  0  0  0  0  0
    6.6745   -5.1338   28.6747 C   0  0  0  0  0  0  0  0  0  0  0  0
    8.7934   -4.6442   28.2135 C   0  0  0  0  0  0  0  0  0  0  0  0
    1.0622   -4.5968   27.1283 C   0  0  0  0  0  0  0  0  0  0  0  0
    6.0871   -8.9021   16.7068 C   0  0  0  0  0  0  0  0  0  0  0  0
   -1.0767   -3.2283   27.5149 O   0  0  0  0  0  0  0  0  0  0  0  0
   -1.3422   -3.8198   27.3499 C   0  0  0  0  0  0  0  0  0  0  0  0
    3.6151   -8.1957   16.8556 C   0  0  0  0  0  0  0  0  0  0  0  0
    4.6754   -8.2529   17.3541 C   0  0  0  0  0  0  0  0  0  0  0  0
   -2.5897   -4.7386   26.6579 O   0  0  0  0  0  0  0  0  0  0  0  0
   10.3019   -6.2563   28.1695 O   0  0  0  0  0  0  0  0  0  0  0  0
    6.5295   -5.2163   27.6723 C   0  0  0  0  0  0  0  0  0  0  0  0
    2.2906   -5.9753   26.5563 C   0  0  0  0  0  0  0  0  0  0  0  0
    9.3751   -6.0365   27.6041 C   0  0  0  0  0  0  0  0  0  0  0  0
    1.0873   -7.2562   27.8375 F   0  0  0  0  0  0  0  0  0  0  0  0
    8.6674   -7.1431   27.6943 N   0  0  0  0  0  0  0  0  0  0  0  0
    6.5005   -7.9018   26.8128 C   0  0  0  0  0  0  0  0  0  0  0  0
    3.6413   -8.0286   17.0195 C   0  0  0  0  0  0  0  0  0  0  0  0
    5.2979   -5.5732   27.0573 C   0  0  0  0  0  0  0  0  0  0  0  0
    7.2714   -6.8171   27.3112 C   0  0  0  0  0  0  0  0  0  0  0  0
   -0.0277   -4.2678   27.4221 Se  0  0  0  0  0  0  0  0  0  0  0  0
    3.3701   -6.9536   26.6318 N   0  0  0  0  0  0  0  0  0  0  0  0
    0.8199   -9.3754   15.7291 He  0  0  0  0  0  0  0  0  0  0  0  0
    4.6173   -7.4706   15.6389 He  0  0  0  0  0  0  0  0  0  0  0  0
  1  4  4  0
  1  6  1  0
  1  8  3  0
  1 10  3  0
  1 19  2  0
  1 21  4  0
  1 25  2  0
  2  4  2  0
  2  9  1  0
  2 16  3  0
  2 17  1  0
  2 22  2  0
  2 25  4  0
  3  7  2  0
  3 10  1  0
  3 18  3  0
  3 19  4  0
  3 22  1  0
  3 25  3  0
  4 12  3  0
  4 15  3  0
  4 23  4  0
  4 26  1  0
  5  6  4  0
  5  8  4  0
  5 13  1  0
  5 17  4  0
  5 19  4  0
  5 20  1  0
  5 22  2  0
  5 25  4  0
  6  7  3  0
  6 13  1  0
  6 14  3  0
  6 15  1  0
  6 16  4  0
  6 25  1  0
  6 26  1  0
  7  9  1  0
  7 18  4  0
  7 19  2  0
  8 12  3  0
  8 18  2  0
  9 14  2  0
  9 18  3  0
  9 23  2  0
  9 26  3  0
 11 12  3  0
 11 13  1  0
 11 14  1  0
 11 15  1  0
 11 17  3  0
 11 25  1  0
 12 15  2  0
 12 17  1  0
 12 18  1  0
 12 22  3  0
 12 23  2  0
 13 15  2  0
 13 17  1  0
 13 25  4  0
 14 22  2  0
 15 17  4  0
 15 18  2  0
 15 21  1  0
 16 23  4  0
 16 24  4  0
 17 20  2  0
 17 22  2  0
 18 19  1  0
 18 20  4  0
 19 21  2  0
 19 26  4  0
 20 21  2  0
 20 24  4  0
 21 22  4  0
 21 24  4  0
 22 24  4  0
M  END
$$$$

 Created by Python create_sdf_string function

 28 54  0  0  0  0  0  0  0  0999 V2000
    2.0427   -4.7618   27.2859 C   0  0  0  0  0  0  0  0  0  0  0  0
    6.4262   -4.8505   26.9677 C   0  0  0  0  0  0  0  0  0  0  0  0
    8.5625   -4.8151   28.1330 C   0  0  0  0  0  0  0  0  0  0  0  0
    0.9294   -4.7178   27.1403 C   0  0  0  0  0  0  0  0  0  0  0  0
    6.0546   -8.7000   17.9881 C   0  0  0  0  0  0  0  0  0  0  0  0
   -1.5346   -3.3407   27.3834 O   0  0  0  0  0  0  0  0  0  0  0  0
   -1.3553   -3.7141   27.5769 C   0  0  0  0  0  0  0  0  0  0  0  0
    1.7189   -9.5938   16.2688 Se  0  0  0  0  0  0  0  0  0  0  0  0
    3.8114   -8.2607   16.9291 C   0  0  0  0  0  0  0  0  0  0  0  0
   -2.4013   -4.9668   26.5418 O   0  0  0  0  0  0  0  0  0  0  0  0
   10.9047   -5.9044   28.1994 O   0  0  0  0  0  0  0  0  0  0  0  0
    6.4521   -5.2610   28.0553 C   0  0  0  0  0  0  0  0  0  0  0  0
    2.5465   -5.9983   26.9625 O   0  0  0  0  0  0  0  0  0  0  0  0
    9.4291   -5.9748   28.1413 C   0  0  0  0  0  0  0  0  0  0  0  0
    0.1828   -6.8460   26.9915 N   0  0  0  0  0  0  0  0  0  0  0  0
    8.6199   -7.0482   27.6363 C   0  0  0  0  0  0  0  0  0  0  0  0
    6.8265   -7.9482   26.4293 C   0  0  0  0  0  0  0  0  0  0  0  0
    3.9985   -7.4616   14.6359 C   0  0  0  0  0  0  0  0  0  0  0  0
    3.8691   -8.4209   16.4559 C   0  0  0  0  0  0  0  0  0  0  0  0
    5.0267   -5.5436   27.2904 C   0  0  0  0  0  0  0  0  0  0  0  0
   -0.3221   -4.8707   27.2742 N   0  0  0  0  0  0  0  0  0  0  0  0
    2.9037   -6.9041   26.4041 N   0  0  0  0  0  0  0  0  0  0  0  0
    5.2739   -7.2439   26.4355 He  0  0  0  0  0  0  0  0  0  0  0  0
    0.0960   -6.1721   27.0856 He  0  0  0  0  0  0  0  0  0  0  0  0
    2.6418   -8.0707   15.4184 He  0  0  0  0  0  0  0  0  0  0  0  0
    4.2823   -6.6008   27.1369 He  0  0  0  0  0  0  0  0  0  0  0  0
    1.5139   -7.7620   16.0487 He  0  0  0  0  0  0  0  0  0  0  0  0
    7.0517   -7.0991   27.7098 He  0  0  0  0  0  0  0  0  0  0  0  0
  1 13  4  0
  1 18  3  0
  2  3  4  0
  2  4  3  0
  2  8  1  0
  2  9  4  0
  2 21  2  0
  3 14  4  0
  3 15  4  0
  3 17  4  0
  4 14  4  0
  4 18  2  0
  4 19  4  0
  4 20  1  0
  4 21  4  0
  5  8  1  0
  5  9  4  0
  5 13  4  0
  5 18  1  0
  5 21  3  0
  5 22  4  0
  6  7  3  0
  6 12  1  0
  6 21  3  0
  7 10  1  0
  7 13  4  0
  7 15  2  0
  7 19  2  0
  7 21  1  0
  8 12  3  0
  8 13  1  0
  8 18  3  0
  8 21  1  0
  9 10  1  0
  9 12  1  0
  9 15  1  0
  9 19  4  0
 10 13  1  0
 12 19  2  0
 12 20  4  0
 13 15  4  0
 14 18  4  0
 14 19  2  0
 15 16  3  0
 15 17  2  0
 15 18  1  0
 15 19  4  0
 15 20  1  0
 15 21  1  0
 15 22  3  0
 16 18  1  0
 16 20  3  0
 19 21  3  0
 19 22  2  0
M  END
$$$$

 Created by Python create_sdf_string function

 28 64  0  0  0  0  0  0  0  0999 V2000
    4.7013   -8.1076   25.9485 C   0  0  0  0  0  0  0  0  0  0  0  0
   -0.0588   -6.1510   27.3715 C   0  0  0  0  0  0  0  0  0  0  0  0
    2.9963   -7.7728   15.6672 C   0  0  0  0  0  0  0  0  0  0  0  0
    4.6583   -6.4542   27.0808 C   0  0  0  0  0  0  0  0  0  0  0  0
    2.2312   -5.0467   27.1521 C   0  0  0  0  0  0  0  0  0  0  0  0
    6.8844   -4.5965   28.1446 C   0  0  0  0  0  0  0  0  0  0  0  0
    8.1683   -4.9130   28.1869 C   0  0  0  0  0  0  0  0  0  0  0  0
    0.9895   -3.7765   27.6235 C   0  0  0  0  0  0  0  0  0  0  0  0
   -2.0246   -3.3239   27.4475 O   0  0  0  0  0  0  0  0  0  0  0  0
   -1.5631   -4.1160   27.1038 C   0  0  0  0  0  0  0  0  0  0  0  0
    2.7488   -8.2024   16.2338 C   0  0  0  0  0  0  0  0  0  0  0  0
    5.2903   -8.0045   17.1016 F   0  0  0  0  0  0  0  0  0  0  0  0
   -2.7466   -4.6418   27.3983 O   0  0  0  0  0  0  0  0  0  0  0  0
   10.5884   -6.2499   28.1000 S   0  0  0  0  0  0  0  0  0  0  0  0
    6.6899   -5.7102   27.6183 C   0  0  0  0  0  0  0  0  0  0  0  0
    1.8176   -5.8942   27.0561 C   0  0  0  0  0  0  0  0  0  0  0  0
    9.1685   -5.7589   27.9655 F   0  0  0  0  0  0  0  0  0  0  0  0
    1.6449   -6.6268   26.4941 C   0  0  0  0  0  0  0  0  0  0  0  0
    8.2693   -7.0710   28.0281 F   0  0  0  0  0  0  0  0  0  0  0  0
    6.0211   -8.1351   27.1320 C   0  0  0  0  0  0  0  0  0  0  0  0
    2.4871   -7.9743   14.9935 O   0  0  0  0  0  0  0  0  0  0  0  0
    3.4160   -8.9126   17.8698 C   0  0  0  0  0  0  0  0  0  0  0  0
    4.8450   -5.2974   27.1556 O   0  0  0  0  0  0  0  0  0  0  0  0
    6.8679   -6.8572   26.9634 C   0  0  0  0  0  0  0  0  0  0  0  0
   -0.1419   -4.6164   26.8645 C   0  0  0  0  0  0  0  0  0  0  0  0
    6.3031   -8.7670   16.7621 He  0  0  0  0  0  0  0  0  0  0  0  0
    0.6037   -8.5371   15.9783 He  0  0  0  0  0  0  0  0  0  0  0  0
    2.7084   -6.8039   26.1343 He  0  0  0  0  0  0  0  0  0  0  0  0
  1  4  4  0
  1  6  3  0
  1 14  3  0
  1 19  1  0
  1 23  4  0
  2 12  1  0
  2 15  3  0
  2 18  4  0
  2 23  3  0
  2 25  4  0
  3  9  4  0
  3 15  3  0
  3 17  2  0
  3 18  3  0
  3 21  4  0
  3 22  2  0
  3 23  1  0
  4 21  3  0
  4 23  4  0
  5  7  3  0
  5  8  4  0
  5  9  1  0
  5 12  1  0
  5 16  4  0
  6 12  2  0
  6 15  4  0
  6 18  1  0
  7 10  4  0
  7 14  3  0
  7 17  4  0
  7 21  4  0
  8 25  4  0
  9 10  2  0
  9 21  4  0
  9 22  1  0
  9 23  2  0
 10 13  1  0
 10 21  1  0
 10 25  1  0
 11 13  1  0
 11 18  4  0
 11 19  2  0
 11 21  1  0
 11 22  4  0
 11 25  2  0
 12 13  1  0
 12 16  2  0
 12 18  2  0
 12 20  2  0
 12 22  4  0
 12 24  2  0
 14 22  4  0
 15 18  3  0
 15 21  4  0
 15 23  4  0
 16 18  4  0
 16 21  3  0
 16 22  1  0
 17 19  4  0
 18 21  1  0
 19 21  2  0
 19 24  4  0
 20 24  4  0
 22 24  1  0
M  END
$$$$

 Created by Python create_sdf_string function

 28 51  0  0  0  0  0  0  0  0999 V2000
    3.8708   -7.1625   15.1434 P   0  0  0  0  0  0  0  0  0  0  0  0
    4.3097   -6.7173   26.1475 F   0  0  0  0  0  0  0  0  0  0  0  0
    2.0177   -4.8681   26.9178 C   0  0  0  0  0  0  0  0  0  0  0  0
    6.8742   -5.0444   27.3853 C   0  0  0  0  0  0  0  0  0  0  0  0
    8.6037   -4.8407   28.2748 C   0  0  0  0  0  0  0  0  0  0  0  0
    5.1212   -8.7355   16.2647 C   0  0  0  0  0  0  0  0  0  0  0  0
   -1.5446   -3.2538   27.5046 O   0  0  0  0  0  0  0  0  0  0  0  0
   -1.3191   -4.0486   26.9122 C   0  0  0  0  0  0  0  0  0  0  0  0
    3.4369   -9.0540   16.1842 C   0  0  0  0  0  0  0  0  0  0  0  0
    4.8602   -8.5057   16.9218 C   0  0  0  0  0  0  0  0  0  0  0  0
   -2.8267   -4.6480   26.9519 O   0  0  0  0  0  0  0  0  0  0  0  0
    6.4408   -5.3869   27.7047 C   0  0  0  0  0  0  0  0  0  0  0  0
    2.1695   -5.7473   26.9581 F   0  0  0  0  0  0  0  0  0  0  0  0
    8.6912   -5.9292   27.9866 O   0  0  0  0  0  0  0  0  0  0  0  0
    0.8253   -7.5718   27.2180 C   0  0  0  0  0  0  0  0  0  0  0  0
    8.0431   -7.3278   27.7265 C   0  0  0  0  0  0  0  0  0  0  0  0
    6.2269   -8.0495   27.0105 C   0  0  0  0  0  0  0  0  0  0  0  0
    3.1322   -7.5005   15.9171 C   0  0  0  0  0  0  0  0  0  0  0  0
    3.6904   -8.7372   16.8088 B   0  0  0  0  0  0  0  0  0  0  0  0
    5.1093   -5.7265   27.4564 C   0  0  0  0  0  0  0  0  0  0  0  0
    6.4919   -7.1550   27.4705 C   0  0  0  0  0  0  0  0  0  0  0  0
   -0.2114   -5.0704   27.1824 C   0  0  0  0  0  0  0  0  0  0  0  0
    3.0260   -6.4557   26.3697 N   0  0  0  0  0  0  0  0  0  0  0  0
    4.9552   -7.9987   26.6576 He  0  0  0  0  0  0  0  0  0  0  0  0
   -0.3714   -5.8220   27.1938 He  0  0  0  0  0  0  0  0  0  0  0  0
    0.7201   -4.2357   27.1150 He  0  0  0  0  0  0  0  0  0  0  0  0
    9.9649   -6.1127   28.2667 He  0  0  0  0  0  0  0  0  0  0  0  0
    0.0655   -9.0597   16.3851 He  0  0  0  0  0  0  0  0  0  0  0  0
  1  6  4  0
  1 13  2  0
  1 15  2  0
  2  4  1  0
  2  5  3  0
  2  8  1  0
  2 15  3  0
  2 19  4  0
  2 20  4  0
  2 21  1  0
  3  9  3  0
  3 11  4  0
  3 13  4  0
  4  6  1  0
  4  7  2  0
  4 11  2  0
  4 18  2  0
  4 19  1  0
  5  9  3  0
  5 14  4  0
  5 16  4  0
  6  7  2  0
  6 13  2  0
  6 15  4  0
  6 20  3  0
  7  8  2  0
  7 17  2  0
  7 19  1  0
  7 22  3  0
  8  9  3  0
  8 11  1  0
  8 16  4  0
  8 21  4  0
  8 22  1  0
  9 10  3  0
  9 18  4  0
  9 19  1  0
  9 20  3  0
 10 13  4  0
 10 17  2  0
 10 23  1  0
 12 22  2  0
 13 15  4  0
 13 17  4  0
 13 23  1  0
 14 16  4  0
 16 19  3  0
 17 21  4  0
 19 20  3  0
 19 23  1  0
 20 22  4  0
M  END
$$$$

 Created by Python create_sdf_string function

 28 56  0  0  0  0  0  0  0  0999 V2000
    4.5993   -7.8669   26.6326 N   0  0  0  0  0  0  0  0  0  0  0  0
    0.0646   -6.5610   27.5185 C   0  0  0  0  0  0  0  0  0  0  0  0
    4.2234   -6.6102   15.5153 C   0  0  0  0  0  0  0  0  0  0  0  0
    3.9905   -6.7013   26.6150 C   0  0  0  0  0  0  0  0  0  0  0  0
    1.9774   -4.5358   26.8554 C   0  0  0  0  0  0  0  0  0  0  0  0
    7.4316   -4.9769   27.5054 C   0  0  0  0  0  0  0  0  0  0  0  0
    8.2252   -4.4417   28.2075 C   0  0  0  0  0  0  0  0  0  0  0  0
    0.6926   -4.1162   26.9607 C   0  0  0  0  0  0  0  0  0  0  0  0
    5.9483   -7.5201   15.9585 C   0  0  0  0  0  0  0  0  0  0  0  0
   -1.6426   -2.8415   27.1109 O   0  0  0  0  0  0  0  0  0  0  0  0
   -1.5662   -4.6312   27.0226 C   0  0  0  0  0  0  0  0  0  0  0  0
    3.0908   -9.1907   16.3895 S   0  0  0  0  0  0  0  0  0  0  0  0
   -2.4763   -5.0614   26.9479 O   0  0  0  0  0  0  0  0  0  0  0  0
    6.4014   -5.2414   27.4893 C   0  0  0  0  0  0  0  0  0  0  0  0
    1.8227   -5.9662   26.4214 C   0  0  0  0  0  0  0  0  0  0  0  0
    9.1591   -6.2043   27.9012 C   0  0  0  0  0  0  0  0  0  0  0  0
    0.9453   -9.4298   16.0559 F   0  0  0  0  0  0  0  0  0  0  0  0
    8.1475   -6.8738   27.1034 C   0  0  0  0  0  0  0  0  0  0  0  0
    6.2829   -8.6223   26.7691 C   0  0  0  0  0  0  0  0  0  0  0  0
    2.6828   -7.5744   14.7043 Cl  0  0  0  0  0  0  0  0  0  0  0  0
    2.9335   -8.7030   17.0461 C   0  0  0  0  0  0  0  0  0  0  0  0
    4.8610   -5.8258   27.1722 C   0  0  0  0  0  0  0  0  0  0  0  0
    6.8493   -7.0145   26.9669 C   0  0  0  0  0  0  0  0  0  0  0  0
   -0.0126   -5.0900   26.7781 C   0  0  0  0  0  0  0  0  0  0  0  0
    4.5514   -9.6707   16.1932 He  0  0  0  0  0  0  0  0  0  0  0  0
   10.3566   -6.0616   28.4182 He  0  0  0  0  0  0  0  0  0  0  0  0
    1.2332   -6.6236   26.7625 He  0  0  0  0  0  0  0  0  0  0  0  0
    3.0653   -7.0068   26.3620 He  0  0  0  0  0  0  0  0  0  0  0  0
  1  4  4  0
  1  9  2  0
  1 12  4  0
  1 19  4  0
  2 21  1  0
  2 23  2  0
  2 24  4  0
  3  6  3  0
  3  7  3  0
  3  9  4  0
  3 15  1  0
  3 16  3  0
  3 18  1  0
  3 22  1  0
  3 24  2  0
  4 19  1  0
  4 22  4  0
  5  8  4  0
  5  9  4  0
  5 14  1  0
  5 15  4  0
  5 17  2  0
  5 18  1  0
  5 21  3  0
  6  7  2  0
  7  9  1  0
  7 15  3  0
  7 16  4  0
  7 17  3  0
  8  9  4  0
  8 20  3  0
  8 21  2  0
  8 24  4  0
 10 11  2  0
 10 21  2  0
 11 13  1  0
 11 24  1  0
 12 13  3  0
 12 14  3  0
 12 20  4  0
 12 24  3  0
 14 23  4  0
 15 19  1  0
 15 21  3  0
 16 18  4  0
 16 19  4  0
 16 22  1  0
 16 23  3  0
 17 22  4  0
 17 23  1  0
 18 19  4  0
 18 22  2  0
 19 21  4  0
 19 23  4  0
 20 22  1  0
 21 23  1  0
M  END
$$$$

 Created by Python create_sdf_string function

 28 54  0  0  0  0  0  0  0  0999 V2000
    4.5663   -8.2932   26.3715 N   0  0  0  0  0  0  0  0  0  0  0  0
    4.4260   -6.7006   26.8793 C   0  0  0  0  0  0  0  0  0  0  0  0
    2.3344   -4.6352   26.4788 C   0  0  0  0  0  0  0  0  0  0  0  0
    8.4260   -4.8610   27.8049 C   0  0  0  0  0  0  0  0  0  0  0  0
    1.1376   -3.8019   26.8059 C   0  0  0  0  0  0  0  0  0  0  0  0
    5.4756   -7.6821   15.9457 C   0  0  0  0  0  0  0  0  0  0  0  0
   -1.3737   -3.2497   26.8224 O   0  0  0  0  0  0  0  0  0  0  0  0
   -1.1302   -4.2462   27.1574 C   0  0  0  0  0  0  0  0  0  0  0  0
    3.0754   -8.4776   15.6345 C   0  0  0  0  0  0  0  0  0  0  0  0
   -2.5584   -5.0480   27.0762 O   0  0  0  0  0  0  0  0  0  0  0  0
   10.2715   -6.4935   28.5493 C   0  0  0  0  0  0  0  0  0  0  0  0
    6.1528   -5.8991   27.3219 C   0  0  0  0  0  0  0  0  0  0  0  0
    2.1037   -6.5223   26.7019 C   0  0  0  0  0  0  0  0  0  0  0  0
    9.1564   -5.9351   27.9490 I   0  0  0  0  0  0  0  0  0  0  0  0
    1.0177   -9.2832   16.5447 C   0  0  0  0  0  0  0  0  0  0  0  0
    7.9721   -7.1636   27.2645 C   0  0  0  0  0  0  0  0  0  0  0  0
    6.3356   -8.2876   26.8261 O   0  0  0  0  0  0  0  0  0  0  0  0
    2.8531   -6.9113   15.5130 C   0  0  0  0  0  0  0  0  0  0  0  0
    3.5053   -9.1580   17.9368 C   0  0  0  0  0  0  0  0  0  0  0  0
    5.1821   -5.5197   27.2843 C   0  0  0  0  0  0  0  0  0  0  0  0
    7.4006   -6.9354   27.3726 C   0  0  0  0  0  0  0  0  0  0  0  0
   -0.1211   -5.2243   26.7127 C   0  0  0  0  0  0  0  0  0  0  0  0
    2.9849   -7.0528   26.2112 N   0  0  0  0  0  0  0  0  0  0  0  0
   -0.3440   -6.5891   27.0513 He  0  0  0  0  0  0  0  0  0  0  0  0
    3.4012   -6.9070   15.6275 He  0  0  0  0  0  0  0  0  0  0  0  0
    6.4908   -4.5250   27.5835 He  0  0  0  0  0  0  0  0  0  0  0  0
    4.2576   -8.4003   16.8654 He  0  0  0  0  0  0  0  0  0  0  0  0
    1.0436   -6.2699   27.5169 He  0  0  0  0  0  0  0  0  0  0  0  0
  1  2  4  0
  1 10  1  0
  1 11  3  0
  1 15  1  0
  1 17  4  0
  1 19  3  0
  2  3  2  0
  2  5  3  0
  2 15  4  0
  2 20  4  0
  2 23  1  0
  3  5  4  0
  3 13  4  0
  4  6  3  0
  4 14  4  0
  4 16  3  0
  4 18  4  0
  5  6  1  0
  5 14  2  0
  5 18  3  0
  5 20  2  0
  5 22  4  0
  6 10  2  0
  6 13  1  0
  6 17  2  0
  7  9  1  0
  7 17  2  0
  8 10  2  0
  8 18  4  0
  8 22  1  0
  9 11  2  0
  9 18  4  0
  9 19  2  0
  9 21  3  0
  9 22  2  0
 10 14  3  0
 11 18  4  0
 11 21  1  0
 12 18  4  0
 12 19  1  0
 12 20  4  0
 12 21  4  0
 13 23  1  0
 14 16  4  0
 15 19  4  0
 15 23  2  0
 16 18  4  0
 16 21  4  0
 16 23  4  0
 17 18  2  0
 17 19  2  0
 17 21  4  0
 18 22  4  0
 19 20  4  0
M  END
$$$$

 Created by Python create_sdf_string function

 28 55  0  0  0  0  0  0  0  0999 V2000
    2.6646   -7.6463   15.2230 N   0  0  0  0  0  0  0  0  0  0  0  0
    4.1603   -7.1969   26.5998 C   0  0  0  0  0  0  0  0  0  0  0  0
    2.1199   -4.5109   26.5970 C   0  0  0  0  0  0  0  0  0  0  0  0
    7.4277   -4.2327   27.3844 N   0  0  0  0  0  0  0  0  0  0  0  0
    8.5722   -5.3457   28.0114 Se  0  0  0  0  0  0  0  0  0  0  0  0
    0.7636   -3.9517   26.8113 C   0  0  0  0  0  0  0  0  0  0  0  0
    4.9460   -7.8991   16.1184 C   0  0  0  0  0  0  0  0  0  0  0  0
   -1.6829   -3.3344   26.6077 O   0  0  0  0  0  0  0  0  0  0  0  0
   -1.1450   -4.4041   27.0508 C   0  0  0  0  0  0  0  0  0  0  0  0
    2.4535   -7.3144   16.1715 O   0  0  0  0  0  0  0  0  0  0  0  0
   -2.3166   -5.5135   27.1362 O   0  0  0  0  0  0  0  0  0  0  0  0
   10.4843   -5.9511   28.1361 C   0  0  0  0  0  0  0  0  0  0  0  0
    6.4244   -6.0770   27.4589 C   0  0  0  0  0  0  0  0  0  0  0  0
    1.5728   -6.2759   26.7088 N   0  0  0  0  0  0  0  0  0  0  0  0
    8.9472   -6.0421   27.7090 C   0  0  0  0  0  0  0  0  0  0  0  0
    0.6158   -6.5363   26.8607 C   0  0  0  0  0  0  0  0  0  0  0  0
    7.9104   -7.1711   27.8741 C   0  0  0  0  0  0  0  0  0  0  0  0
    6.1948   -8.2265   26.9984 C   0  0  0  0  0  0  0  0  0  0  0  0
    2.4014   -6.3126   14.8268 Cl  0  0  0  0  0  0  0  0  0  0  0  0
    3.5094   -8.9283   17.5306 C   0  0  0  0  0  0  0  0  0  0  0  0
    5.0537   -5.6407   27.3304 C   0  0  0  0  0  0  0  0  0  0  0  0
    6.9144   -7.2292   26.9086 C   0  0  0  0  0  0  0  0  0  0  0  0
   -0.0780   -4.5407   26.9431 C   0  0  0  0  0  0  0  0  0  0  0  0
    3.3002   -7.0040   26.4090 N   0  0  0  0  0  0  0  0  0  0  0  0
    4.9486   -8.3263   26.2041 He  0  0  0  0  0  0  0  0  0  0  0  0
   -0.1149   -6.1033   27.0754 He  0  0  0  0  0  0  0  0  0  0  0  0
    4.4543   -8.2235   17.6265 He  0  0  0  0  0  0  0  0  0  0  0  0
    1.1404   -9.9574   15.9852 He  0  0  0  0  0  0  0  0  0  0  0  0
  1 10  1  0
  1 15  3  0
  1 16  4  0
  1 19  4  0
  2  5  3  0
  2  6  2  0
  2 19  2  0
  2 21  4  0
  3  6  4  0
  3 14  4  0
  3 16  2  0
  3 20  3  0
  4  5  4  0
  4  8  1  0
  4 13  4  0
  4 14  2  0
  4 17  2  0
  4 23  3  0
  4 24  1  0
  5  7  3  0
  5 10  2  0
  6 19  3  0
  6 23  4  0
  7 14  1  0
  8  9  1  0
  8 16  1  0
  9 11  2  0
  9 13  2  0
  9 16  2  0
  9 21  1  0
  9 23  1  0
 10 11  2  0
 10 13  3  0
 10 15  3  0
 10 17  3  0
 11 20  4  0
 11 24  1  0
 12 15  1  0
 12 17  3  0
 13 19  3  0
 13 21  4  0
 13 22  4  0
 14 16  4  0
 14 17  4  0
 14 18  2  0
 14 20  2  0
 14 24  3  0
 15 20  2  0
 15 22  3  0
 15 23  4  0
 16 17  2  0
 16 20  4  0
 17 22  4  0
 19 24  1  0
 20 24  2  0
M  END
$$$$

 Created by Python create_sdf_string function

 28 56  0  0  0  0  0  0  0  0999 V2000
    4.5941   -8.2495   26.5235 N   0  0  0  0  0  0  0  0  0  0  0  0
    0.0843   -6.4969   26.9557 O   0  0  0  0  0  0  0  0  0  0  0  0
    2.6502   -7.6771   15.7108 N   0  0  0  0  0  0  0  0  0  0  0  0
    4.4852   -6.3979   26.4857 C   0  0  0  0  0  0  0  0  0  0  0  0
    2.2272   -5.0055   26.7888 C   0  0  0  0  0  0  0  0  0  0  0  0
    6.1921   -4.5699   28.4836 Cl  0  0  0  0  0  0  0  0  0  0  0  0
    8.5534   -5.2703   27.4960 C   0  0  0  0  0  0  0  0  0  0  0  0
    0.9025   -4.2330   26.4456 C   0  0  0  0  0  0  0  0  0  0  0  0
    4.9347   -6.7851   15.8300 C   0  0  0  0  0  0  0  0  0  0  0  0
   -1.8397   -3.3308   26.2939 O   0  0  0  0  0  0  0  0  0  0  0  0
   -1.6400   -3.9386   27.1135 C   0  0  0  0  0  0  0  0  0  0  0  0
    4.7844   -8.1841   16.4736 C   0  0  0  0  0  0  0  0  0  0  0  0
   -2.9256   -5.1849   27.4444 O   0  0  0  0  0  0  0  0  0  0  0  0
   10.2912   -6.3849   28.1209 C   0  0  0  0  0  0  0  0  0  0  0  0
    6.1462   -6.3094   27.5044 C   0  0  0  0  0  0  0  0  0  0  0  0
    1.9984   -6.1086   26.7135 C   0  0  0  0  0  0  0  0  0  0  0  0
    9.0645   -5.9678   27.8490 C   0  0  0  0  0  0  0  0  0  0  0  0
    1.2643   -8.4409   16.6690 C   0  0  0  0  0  0  0  0  0  0  0  0
    1.2542   -5.8221   27.2271 F   0  0  0  0  0  0  0  0  0  0  0  0
    8.6825   -7.2937   27.5826 C   0  0  0  0  0  0  0  0  0  0  0  0
    6.3138   -8.3629   26.8641 C   0  0  0  0  0  0  0  0  0  0  0  0
    3.1170  -10.0418   17.2629 C   0  0  0  0  0  0  0  0  0  0  0  0
    6.9118   -7.4579   27.7048 C   0  0  0  0  0  0  0  0  0  0  0  0
   -0.0484   -4.8191   27.1023 C   0  0  0  0  0  0  0  0  0  0  0  0
    3.1139   -6.7978   26.5276 N   0  0  0  0  0  0  0  0  0  0  0  0
    1.7590   -8.2065   16.7362 He  0  0  0  0  0  0  0  0  0  0  0  0
    3.0287   -6.5078   15.0937 He  0  0  0  0  0  0  0  0  0  0  0  0
    4.7814   -5.6010   26.9207 He  0  0  0  0  0  0  0  0  0  0  0  0
  1  3  3  0
  1  4  4  0
  1 13  1  0
  1 15  2  0
  1 19  2  0
  1 21  4  0
  1 22  2  0
  2  8  1  0
  2 16  3  0
  2 24  4  0
  3  8  3  0
  3  9  1  0
  3 11  1  0
  3 15  4  0
  3 25  2  0
  4  6  1  0
  4 15  2  0
  4 25  1  0
  5  8  4  0
  5 12  2  0
  5 16  4  0
  6  7  4  0
  6 13  4  0
  7 17  4  0
  9 12  4  0
  9 16  2  0
  9 20  1  0
  9 25  1  0
 10 11  1  0
 10 19  4  0
 10 22  3  0
 11 13  2  0
 11 16  3  0
 11 18  3  0
 11 20  1  0
 11 21  4  0
 11 22  4  0
 11 24  1  0
 12 13  4  0
 12 22  4  0
 12 23  2  0
 13 18  2  0
 14 17  1  0
 14 22  4  0
 14 24  1  0
 15 20  2  0
 15 23  1  0
 16 19  4  0
 16 23  3  0
 16 25  1  0
 17 20  2  0
 17 21  4  0
 20 22  1  0
 20 23  4  0
 21 23  4  0
 23 24  2  0
M  END
$$$$

 Created by Python create_sdf_string function

 28 67  0  0  0  0  0  0  0  0999 V2000
    4.9489   -8.4417   26.6003 N   0  0  0  0  0  0  0  0  0  0  0  0
    0.2004   -6.0846   27.6961 C   0  0  0  0  0  0  0  0  0  0  0  0
    4.3068   -6.9241   27.0163 C   0  0  0  0  0  0  0  0  0  0  0  0
    1.6781   -4.5540   26.5382 C   0  0  0  0  0  0  0  0  0  0  0  0
    7.9723   -5.4941   27.1191 C   0  0  0  0  0  0  0  0  0  0  0  0
    8.4332   -5.1074   28.1312 C   0  0  0  0  0  0  0  0  0  0  0  0
    0.6959   -4.2746   26.3714 C   0  0  0  0  0  0  0  0  0  0  0  0
    3.8700   -8.1816   16.6923 N   0  0  0  0  0  0  0  0  0  0  0  0
   -1.8793   -3.5570   26.4499 O   0  0  0  0  0  0  0  0  0  0  0  0
   -1.8339   -4.3292   26.6873 C   0  0  0  0  0  0  0  0  0  0  0  0
    4.8627   -8.9301   15.9778 C   0  0  0  0  0  0  0  0  0  0  0  0
   -2.9420   -5.2784   27.2671 O   0  0  0  0  0  0  0  0  0  0  0  0
   10.5881   -6.3898   27.9486 C   0  0  0  0  0  0  0  0  0  0  0  0
    6.2767   -5.8068   27.4652 C   0  0  0  0  0  0  0  0  0  0  0  0
    2.1997   -5.8939   26.9649 C   0  0  0  0  0  0  0  0  0  0  0  0
    9.3194   -6.0554   27.7049 C   0  0  0  0  0  0  0  0  0  0  0  0
    1.6188   -9.0664   17.5214 C   0  0  0  0  0  0  0  0  0  0  0  0
    8.6113   -7.3511   27.6791 N   0  0  0  0  0  0  0  0  0  0  0  0
    6.4751   -8.2750   27.1805 C   0  0  0  0  0  0  0  0  0  0  0  0
    2.6407   -6.4673   15.1102 B   0  0  0  0  0  0  0  0  0  0  0  0
    3.2477   -9.3031   16.4368 C   0  0  0  0  0  0  0  0  0  0  0  0
    5.1222   -5.5007   27.1358 C   0  0  0  0  0  0  0  0  0  0  0  0
    7.0396   -7.2501   27.4571 C   0  0  0  0  0  0  0  0  0  0  0  0
   -0.0146   -4.6313   27.0474 C   0  0  0  0  0  0  0  0  0  0  0  0
    3.0885   -6.9794   26.5357 N   0  0  0  0  0  0  0  0  0  0  0  0
    2.1954   -7.4214   15.6452 He  0  0  0  0  0  0  0  0  0  0  0  0
    2.2470   -8.6122   16.4831 He  0  0  0  0  0  0  0  0  0  0  0  0
    0.3224   -7.0156   26.3215 He  0  0  0  0  0  0  0  0  0  0  0  0
  1  3  4  0
  1 16  1  0
  1 19  4  0
  1 24  3  0
  2 10  3  0
  2 13  4  0
  2 21  2  0
  2 23  3  0
  2 24  1  0
  3 22  4  0
  3 24  2  0
  3 25  1  0
  4  8  1  0
  4 15  4  0
  4 21  3  0
  4 25  1  0
  5  6  4  0
  5  8  3  0
  5 11  1  0
  5 12  3  0
  5 13  4  0
  5 14  4  0
  5 19  3  0
  5 20  2  0
  5 21  4  0
  6 16  4  0
  6 20  4  0
  7  8  1  0
  7 10  3  0
  7 16  4  0
  7 20  1  0
  7 24  4  0
  8 10  1  0
  8 11  2  0
  8 23  3  0
  8 25  4  0
  9 10  1  0
  9 15  4  0
  9 18  2  0
  9 20  4  0
  9 21  2  0
 10 12  2  0
 10 20  3  0
 10 24  1  0
 10 25  1  0
 11 17  4  0
 11 19  2  0
 11 21  4  0
 11 24  2  0
 12 17  2  0
 13 16  1  0
 13 25  3  0
 14 23  4  0
 15 17  2  0
 15 25  1  0
 16 18  4  0
 16 19  1  0
 16 20  1  0
 16 21  1  0
 17 19  2  0
 17 21  3  0
 17 23  1  0
 17 24  3  0
 18 23  4  0
 19 23  4  0
 20 22  4  0
 23 25  2  0
M  END
$$$$

 Created by Python create_sdf_string function

 28 46  0  0  0  0  0  0  0  0999 V2000
    4.8796   -8.4352   26.7816 N   0  0  0  0  0  0  0  0  0  0  0  0
    0.1205   -6.2278   27.2093 C   0  0  0  0  0  0  0  0  0  0  0  0
    2.4684   -8.0529   16.1336 C   0  0  0  0  0  0  0  0  0  0  0  0
    1.8921   -4.9101   26.8381 C   0  0  0  0  0  0  0  0  0  0  0  0
    7.3585   -4.8328   28.5164 F   0  0  0  0  0  0  0  0  0  0  0  0
    0.2027   -4.1570   26.4884 C   0  0  0  0  0  0  0  0  0  0  0  0
   -1.6740   -4.3642   26.7792 C   0  0  0  0  0  0  0  0  0  0  0  0
    2.1618   -8.8986   16.7381 N   0  0  0  0  0  0  0  0  0  0  0  0
    4.2210   -8.9951   16.1407 C   0  0  0  0  0  0  0  0  0  0  0  0
   -2.5773   -5.3313   27.5318 O   0  0  0  0  0  0  0  0  0  0  0  0
   10.6146   -6.4241   28.0328 C   0  0  0  0  0  0  0  0  0  0  0  0
    6.5938   -5.7386   27.2218 C   0  0  0  0  0  0  0  0  0  0  0  0
    1.7424   -5.9299   26.4863 C   0  0  0  0  0  0  0  0  0  0  0  0
    0.6152   -9.1547   17.2572 C   0  0  0  0  0  0  0  0  0  0  0  0
    1.7077   -7.2895   27.4045 C   0  0  0  0  0  0  0  0  0  0  0  0
    8.4219   -7.1234   27.8000 N   0  0  0  0  0  0  0  0  0  0  0  0
    6.5294   -8.2669   27.3735 C   0  0  0  0  0  0  0  0  0  0  0  0
    2.7825   -7.0478   15.8937 C   0  0  0  0  0  0  0  0  0  0  0  0
    3.6727   -9.5736   16.9698 C   0  0  0  0  0  0  0  0  0  0  0  0
    5.1249   -5.8321   27.1027 C   0  0  0  0  0  0  0  0  0  0  0  0
    7.1654   -6.9658   27.5660 C   0  0  0  0  0  0  0  0  0  0  0  0
   -0.2089   -4.6502   27.1241 C   0  0  0  0  0  0  0  0  0  0  0  0
    3.1857   -6.7944   26.2403 N   0  0  0  0  0  0  0  0  0  0  0  0
    4.2512   -6.8111   26.7701 He  0  0  0  0  0  0  0  0  0  0  0  0
    8.7287   -5.0510   28.1854 He  0  0  0  0  0  0  0  0  0  0  0  0
    4.4600   -8.2877   14.9674 He  0  0  0  0  0  0  0  0  0  0  0  0
   -2.1122   -3.4123   26.4700 He  0  0  0  0  0  0  0  0  0  0  0  0
    9.0901   -6.3447   27.6610 He  0  0  0  0  0  0  0  0  0  0  0  0
  1 14  3  0
  1 17  4  0
  2 15  4  0
  2 22  4  0
  3  8  4  0
  3 19  3  0
  3 21  1  0
  4  6  4  0
  4  8  1  0
  4  9  3  0
  4 13  4  0
  4 14  2  0
  5  7  1  0
  5  8  2  0
  5 11  2  0
  5 15  1  0
  5 16  1  0
  5 17  2  0
  6  8  4  0
  6 10  1  0
  6 12  2  0
  6 19  1  0
  7 10  4  0
  7 12  1  0
  7 15  2  0
  7 18  4  0
  7 22  1  0
  8  9  2  0
  8 14  1  0
  8 15  1  0
  8 19  4  0
  9 10  2  0
  9 17  1  0
  9 19  4  0
 10 15  3  0
 11 15  4  0
 12 15  2  0
 12 20  4  0
 12 21  2  0
 13 15  1  0
 13 23  1  0
 14 16  4  0
 14 19  2  0
 17 21  4  0
 19 21  3  0
 21 23  4  0
M  END
$$$$

 Created by Python create_sdf_string function

 28 54  0  0  0  0  0  0  0  0999 V2000
    4.9915   -8.2073   26.9075 N   0  0  0  0  0  0  0  0  0  0  0  0
   -0.0171   -6.2925   27.4376 C   0  0  0  0  0  0  0  0  0  0  0  0
    4.7338   -7.0332   26.9535 C   0  0  0  0  0  0  0  0  0  0  0  0
    1.9973   -4.9409   26.5821 C   0  0  0  0  0  0  0  0  0  0  0  0
    8.7481   -4.9237   27.9690 C   0  0  0  0  0  0  0  0  0  0  0  0
    0.9414   -3.9275   26.9542 C   0  0  0  0  0  0  0  0  0  0  0  0
    3.8359   -8.7039   15.9744 N   0  0  0  0  0  0  0  0  0  0  0  0
   -2.1328   -3.2573   26.4077 N   0  0  0  0  0  0  0  0  0  0  0  0
    2.7597   -8.9308   16.8111 C   0  0  0  0  0  0  0  0  0  0  0  0
    3.4044   -9.2840   15.7608 C   0  0  0  0  0  0  0  0  0  0  0  0
   -2.8130   -5.1081   27.7381 O   0  0  0  0  0  0  0  0  0  0  0  0
    6.7126   -5.7338   27.5302 C   0  0  0  0  0  0  0  0  0  0  0  0
    2.4595   -6.1272   26.6655 C   0  0  0  0  0  0  0  0  0  0  0  0
    9.0080   -6.1907   28.3263 C   0  0  0  0  0  0  0  0  0  0  0  0
    1.2539   -9.1005   16.8216 C   0  0  0  0  0  0  0  0  0  0  0  0
    1.4588   -6.7280   27.7962 C   0  0  0  0  0  0  0  0  0  0  0  0
    6.1880   -8.4960   27.2555 C   0  0  0  0  0  0  0  0  0  0  0  0
    2.8484   -6.7313   15.6379 C   0  0  0  0  0  0  0  0  0  0  0  0
    5.0638   -5.7594   27.2439 C   0  0  0  0  0  0  0  0  0  0  0  0
    6.9695   -6.8974   27.4641 C   0  0  0  0  0  0  0  0  0  0  0  0
   -0.3953   -5.0570   27.1698 C   0  0  0  0  0  0  0  0  0  0  0  0
    3.0565   -6.9612   26.2771 N   0  0  0  0  0  0  0  0  0  0  0  0
    2.3467   -7.4648   15.4610 He  0  0  0  0  0  0  0  0  0  0  0  0
    6.3791   -5.2580   27.2317 He  0  0  0  0  0  0  0  0  0  0  0  0
   -1.5511   -4.7554   26.8587 He  0  0  0  0  0  0  0  0  0  0  0  0
   10.5781   -6.1904   27.7210 He  0  0  0  0  0  0  0  0  0  0  0  0
    8.4632   -7.3637   27.6253 He  0  0  0  0  0  0  0  0  0  0  0  0
    3.4490  -10.1458   17.1839 He  0  0  0  0  0  0  0  0  0  0  0  0
  1  3  4  0
  1 12  4  0
  1 17  4  0
  2  7  1  0
  2 13  2  0
  2 15  4  0
  2 21  4  0
  3  7  4  0
  3  9  3  0
  3 22  4  0
  4  5  2  0
  4 13  4  0
  4 19  3  0
  5 10  4  0
  5 11  2  0
  5 14  4  0
  6 14  1  0
  6 16  3  0
  6 18  4  0
  6 19  1  0
  6 21  4  0
  7 10  3  0
  7 18  4  0
  7 20  2  0
  8  9  4  0
  8 12  1  0
  9 11  3  0
  9 12  4  0
  9 14  3  0
  9 15  1  0
  9 21  4  0
 10 11  2  0
 10 16  1  0
 10 17  2  0
 10 20  4  0
 10 21  4  0
 11 15  2  0
 11 16  1  0
 11 21  3  0
 12 19  4  0
 12 20  4  0
 13 14  2  0
 13 16  2  0
 13 20  1  0
 13 21  4  0
 13 22  1  0
 14 16  4  0
 14 22  4  0
 15 16  2  0
 16 17  4  0
 16 18  3  0
 17 18  3  0
 17 20  4  0
 18 20  1  0
M  END
$$$$

 Created by Python create_sdf_string function

 28 51  0  0  0  0  0  0  0  0999 V2000
    5.0727   -8.0434   27.1671 N   0  0  0  0  0  0  0  0  0  0  0  0
   -0.0180   -6.4534   27.7691 C   0  0  0  0  0  0  0  0  0  0  0  0
    1.8882   -7.4659   17.0625 C   0  0  0  0  0  0  0  0  0  0  0  0
    4.4570   -7.2142   26.8697 C   0  0  0  0  0  0  0  0  0  0  0  0
    1.9476   -4.8633   26.5634 C   0  0  0  0  0  0  0  0  0  0  0  0
    6.5943   -4.6038   27.5029 C   0  0  0  0  0  0  0  0  0  0  0  0
    8.5828   -4.7414   27.8970 C   0  0  0  0  0  0  0  0  0  0  0  0
    0.8298   -4.0991   26.5306 C   0  0  0  0  0  0  0  0  0  0  0  0
    4.0930   -8.2396   15.6988 C   0  0  0  0  0  0  0  0  0  0  0  0
   -1.7065   -3.3263   26.2366 N   0  0  0  0  0  0  0  0  0  0  0  0
   -1.2945   -4.7273   26.9551 C   0  0  0  0  0  0  0  0  0  0  0  0
    1.9844   -9.7026   16.6142 C   0  0  0  0  0  0  0  0  0  0  0  0
   -2.7862   -5.3629   27.5730 O   0  0  0  0  0  0  0  0  0  0  0  0
   10.8110   -6.3243   27.8618 C   0  0  0  0  0  0  0  0  0  0  0  0
    6.6230   -5.8916   27.3315 C   0  0  0  0  0  0  0  0  0  0  0  0
    9.2779   -6.0976   27.4886 C   0  0  0  0  0  0  0  0  0  0  0  0
    0.4933   -9.8640   16.7412 O   0  0  0  0  0  0  0  0  0  0  0  0
    1.3372   -6.4665   28.3146 C   0  0  0  0  0  0  0  0  0  0  0  0
    8.4530   -7.4236   27.8383 C   0  0  0  0  0  0  0  0  0  0  0  0
    6.3665   -8.5342   27.2813 S   0  0  0  0  0  0  0  0  0  0  0  0
    2.6750   -6.4741   15.2383 C   0  0  0  0  0  0  0  0  0  0  0  0
    2.4695   -9.8141   16.4171 C   0  0  0  0  0  0  0  0  0  0  0  0
   -0.2568   -5.1665   27.1578 C   0  0  0  0  0  0  0  0  0  0  0  0
    3.0590   -6.6268   26.6490 N   0  0  0  0  0  0  0  0  0  0  0  0
    3.7553   -9.5215   15.2846 He  0  0  0  0  0  0  0  0  0  0  0  0
    2.1669   -5.8613   26.8201 He  0  0  0  0  0  0  0  0  0  0  0  0
    5.0983   -5.9118   26.6646 He  0  0  0  0  0  0  0  0  0  0  0  0
    7.2582   -7.2699   27.1954 He  0  0  0  0  0  0  0  0  0  0  0  0
  1  4  4  0
  1 24  4  0
  2 12  3  0
  2 18  4  0
  2 23  4  0
  3 17  1  0
  3 19  1  0
  3 21  4  0
  3 22  4  0
  3 24  4  0
  4 18  3  0
  4 22  1  0
  4 24  1  0
  5  8  4  0
  5 18  2  0
  5 19  2  0
  6  7  4  0
  6  8  1  0
  6 23  1  0
  7 11  2  0
  7 12  2  0
  7 16  4  0
  7 21  4  0
  8 13  1  0
  8 18  1  0
  8 23  4  0
  9 10  1  0
  9 21  4  0
 10 11  3  0
 11 13  2  0
 11 19  1  0
 11 23  1  0
 12 15  2  0
 12 17  4  0
 12 18  3  0
 12 21  3  0
 12 22  4  0
 12 24  3  0
 13 14  3  0
 14 15  1  0
 14 16  1  0
 15 17  2  0
 16 19  4  0
 17 21  4  0
 17 22  1  0
 18 21  3  0
 18 24  3  0
 19 22  4  0
 20 22  1  0
 21 22  1  0
 22 24  2  0
M  END
$$$$

 Created by Python create_sdf_string function

 28 46  0  0  0  0  0  0  0  0999 V2000
    4.9944   -8.3288   26.9891 N   0  0  0  0  0  0  0  0  0  0  0  0
    0.2461   -6.1238   27.5315 C   0  0  0  0  0  0  0  0  0  0  0  0
    2.3455   -8.1152   15.6206 I   0  0  0  0  0  0  0  0  0  0  0  0
    4.4900   -6.8674   26.8782 C   0  0  0  0  0  0  0  0  0  0  0  0
    1.8366   -5.1855   26.3774 C   0  0  0  0  0  0  0  0  0  0  0  0
    7.5787   -5.0080   27.2040 C   0  0  0  0  0  0  0  0  0  0  0  0
    8.6537   -5.0760   27.7293 C   0  0  0  0  0  0  0  0  0  0  0  0
    3.8794   -8.2319   15.9380 C   0  0  0  0  0  0  0  0  0  0  0  0
   -1.8671   -3.2750   26.5310 N   0  0  0  0  0  0  0  0  0  0  0  0
    2.3751   -8.8866   16.2623 C   0  0  0  0  0  0  0  0  0  0  0  0
    4.1687   -9.6273   15.5639 C   0  0  0  0  0  0  0  0  0  0  0  0
   10.3635   -5.9910   27.9039 C   0  0  0  0  0  0  0  0  0  0  0  0
    6.3228   -6.1602   27.4098 C   0  0  0  0  0  0  0  0  0  0  0  0
    2.2936   -6.4483   27.2344 C   0  0  0  0  0  0  0  0  0  0  0  0
    9.7085   -5.9793   27.7086 C   0  0  0  0  0  0  0  0  0  0  0  0
    0.7250   -9.6487   16.5190 O   0  0  0  0  0  0  0  0  0  0  0  0
    1.6446   -6.8999   27.8927 C   0  0  0  0  0  0  0  0  0  0  0  0
    6.1718   -8.3947   27.3990 N   0  0  0  0  0  0  0  0  0  0  0  0
    2.7469   -6.9414   16.2692 C   0  0  0  0  0  0  0  0  0  0  0  0
    5.5156   -5.8533   26.9509 N   0  0  0  0  0  0  0  0  0  0  0  0
    6.9874   -7.2201   27.4181 C   0  0  0  0  0  0  0  0  0  0  0  0
    0.0206   -5.2440   26.8845 C   0  0  0  0  0  0  0  0  0  0  0  0
    3.4910   -7.0618   26.7035 N   0  0  0  0  0  0  0  0  0  0  0  0
    0.6915   -4.5243   26.6740 He  0  0  0  0  0  0  0  0  0  0  0  0
   -1.5915   -4.4664   27.0909 He  0  0  0  0  0  0  0  0  0  0  0  0
   -2.6227   -5.5226   27.1557 He  0  0  0  0  0  0  0  0  0  0  0  0
    8.0764   -7.6511   27.7285 He  0  0  0  0  0  0  0  0  0  0  0  0
    2.4658  -10.6162   16.5071 He  0  0  0  0  0  0  0  0  0  0  0  0
  1  4  4  0
  1  6  2  0
  1 10  3  0
  1 15  1  0
  1 16  4  0
  1 18  4  0
  1 22  1  0
  2  7  3  0
  2 10  3  0
  2 14  1  0
  2 17  4  0
  2 22  4  0
  3  8  1  0
  3 10  1  0
  3 13  1  0
  3 19  4  0
  3 22  2  0
  3 23  2  0
  4 20  4  0
  4 21  2  0
  4 23  1  0
  5 14  4  0
  5 16  1  0
  6  8  1  0
  6 13  4  0
  7 15  4  0
  8 11  4  0
  8 14  1  0
  8 19  4  0
  9 18  2  0
  9 22  2  0
 10 11  4  0
 10 21  1  0
 11 13  3  0
 12 15  1  0
 12 18  1  0
 12 22  3  0
 13 19  2  0
 13 20  4  0
 13 21  4  0
 14 17  4  0
 14 23  1  0
 16 19  3  0
 16 20  2  0
 16 21  2  0
 18 21  4  0
M  END
$$$$

 Created by Python create_sdf_string function

 28 60  0  0  0  0  0  0  0  0999 V2000
    5.3576   -8.3275   27.5719 N   0  0  0  0  0  0  0  0  0  0  0  0
    0.1658   -6.4658   27.6898 C   0  0  0  0  0  0  0  0  0  0  0  0
    2.5764   -8.0532   16.9358 C   0  0  0  0  0  0  0  0  0  0  0  0
    4.7080   -7.1341   26.7982 C   0  0  0  0  0  0  0  0  0  0  0  0
    2.2515   -4.6411   26.2077 C   0  0  0  0  0  0  0  0  0  0  0  0
    7.5352   -4.8568   27.2639 C   0  0  0  0  0  0  0  0  0  0  0  0
    8.6402   -4.6284   27.6563 C   0  0  0  0  0  0  0  0  0  0  0  0
    0.7430   -4.4456   26.5542 C   0  0  0  0  0  0  0  0  0  0  0  0
   -1.7675   -3.0750   26.6381 N   0  0  0  0  0  0  0  0  0  0  0  0
   -1.4882   -4.6834   26.9395 C   0  0  0  0  0  0  0  0  0  0  0  0
    1.4147   -9.5439   15.5657 C   0  0  0  0  0  0  0  0  0  0  0  0
    4.5429   -9.8631   16.1714 C   0  0  0  0  0  0  0  0  0  0  0  0
   -2.7354   -5.6214   27.3071 O   0  0  0  0  0  0  0  0  0  0  0  0
   10.5618   -6.2725   28.0284 C   0  0  0  0  0  0  0  0  0  0  0  0
    6.6155   -6.1830   27.0506 C   0  0  0  0  0  0  0  0  0  0  0  0
    1.9743   -6.4722   26.8694 C   0  0  0  0  0  0  0  0  0  0  0  0
    9.0027   -6.2838   27.4896 C   0  0  0  0  0  0  0  0  0  0  0  0
    0.3364   -9.9683   16.7660 I   0  0  0  0  0  0  0  0  0  0  0  0
    0.9874   -6.5548   27.2413 C   0  0  0  0  0  0  0  0  0  0  0  0
    8.4846   -7.5731   27.8651 C   0  0  0  0  0  0  0  0  0  0  0  0
    6.4806   -8.2254   27.5665 N   0  0  0  0  0  0  0  0  0  0  0  0
    5.3110   -6.0316   26.7819 N   0  0  0  0  0  0  0  0  0  0  0  0
    6.8719   -7.1074   27.4911 C   0  0  0  0  0  0  0  0  0  0  0  0
   -0.3958   -5.2239   27.0964 C   0  0  0  0  0  0  0  0  0  0  0  0
    3.3416   -7.3310   26.5160 N   0  0  0  0  0  0  0  0  0  0  0  0
    4.6836   -8.1926   15.7890 He  0  0  0  0  0  0  0  0  0  0  0  0
    3.3270   -7.8844   16.2437 He  0  0  0  0  0  0  0  0  0  0  0  0
    3.5756   -9.9482   16.2265 He  0  0  0  0  0  0  0  0  0  0  0  0
  1  3  3  0
  1  4  4  0
  1 19  4  0
  1 21  4  0
  1 24  3  0
  1 25  1  0
  2 15  3  0
  2 18  3  0
  2 19  4  0
  2 24  4  0
  3  5  4  0
  3  8  3  0
  3 12  2  0
  3 13  4  0
  3 17  2  0
  4 15  3  0
  4 21  1  0
  4 22  4  0
  4 25  1  0
  5 11  1  0
  5 16  4  0
  5 19  4  0
  6  7  4  0
  6  8  3  0
  6 12  1  0
  6 18  2  0
  6 19  1  0
  6 23  1  0
  7 17  4  0
  7 25  3  0
  8 18  1  0
  8 24  4  0
  9 24  2  0
 10 11  3  0
 10 13  2  0
 10 18  4  0
 10 24  1  0
 11 12  1  0
 11 18  1  0
 11 22  1  0
 12 16  4  0
 12 20  3  0
 12 24  2  0
 13 23  2  0
 14 17  1  0
 14 21  2  0
 14 24  2  0
 15 16  1  0
 15 22  4  0
 15 23  4  0
 15 24  2  0
 16 25  1  0
 17 19  4  0
 17 20  4  0
 18 22  2  0
 19 23  3  0
 19 24  3  0
 20 23  4  0
 21 23  2  0
 22 23  2  0
M  END
$$$$

 Created by Python create_sdf_string function

 28 57  0  0  0  0  0  0  0  0999 V2000
    4.9267   -8.6388   27.6250 N   0  0  0  0  0  0  0  0  0  0  0  0
    0.1316   -6.3550   27.4463 C   0  0  0  0  0  0  0  0  0  0  0  0
    2.8812   -8.3540   16.1404 C   0  0  0  0  0  0  0  0  0  0  0  0
    4.8456   -6.9512   26.7021 P   0  0  0  0  0  0  0  0  0  0  0  0
    2.0282   -4.6754   26.3784 C   0  0  0  0  0  0  0  0  0  0  0  0
    7.1937   -4.9629   27.9190 C   0  0  0  0  0  0  0  0  0  0  0  0
    8.5670   -5.0383   27.4460 C   0  0  0  0  0  0  0  0  0  0  0  0
    0.7628   -4.4236   26.7985 C   0  0  0  0  0  0  0  0  0  0  0  0
    4.9061   -7.9370   16.2029 C   0  0  0  0  0  0  0  0  0  0  0  0
   -1.7769   -3.5313   26.3316 N   0  0  0  0  0  0  0  0  0  0  0  0
   -1.4663   -4.5644   26.9470 C   0  0  0  0  0  0  0  0  0  0  0  0
    1.7283   -9.5846   15.9302 F   0  0  0  0  0  0  0  0  0  0  0  0
   -2.2680   -5.2549   27.2323 O   0  0  0  0  0  0  0  0  0  0  0  0
    6.5878   -5.6136   27.2189 C   0  0  0  0  0  0  0  0  0  0  0  0
    1.9068   -6.5442   26.9412 C   0  0  0  0  0  0  0  0  0  0  0  0
    9.1633   -6.0939   27.7628 C   0  0  0  0  0  0  0  0  0  0  0  0
   -0.1598  -10.1808   16.9056 O   0  0  0  0  0  0  0  0  0  0  0  0
    1.2520   -7.1115   27.2542 C   0  0  0  0  0  0  0  0  0  0  0  0
    8.3370   -7.3649   27.7339 O   0  0  0  0  0  0  0  0  0  0  0  0
    6.2529   -8.1154   27.7943 N   0  0  0  0  0  0  0  0  0  0  0  0
    3.0329   -6.8242   16.5066 C   0  0  0  0  0  0  0  0  0  0  0  0
    3.5013  -10.7325   16.2251 C   0  0  0  0  0  0  0  0  0  0  0  0
    5.2541   -6.0094   26.8937 N   0  0  0  0  0  0  0  0  0  0  0  0
    7.1463   -7.1680   27.5050 C   0  0  0  0  0  0  0  0  0  0  0  0
   -0.5900   -5.5834   26.9874 C   0  0  0  0  0  0  0  0  0  0  0  0
    3.5984   -7.2315   26.1837 Br  0  0  0  0  0  0  0  0  0  0  0  0
    3.8204  -10.0930   15.8635 He  0  0  0  0  0  0  0  0  0  0  0  0
   10.5075   -6.5140   28.0263 He  0  0  0  0  0  0  0  0  0  0  0  0
  1  4  4  0
  1 20  4  0
  1 21  1  0
  2  7  3  0
  2 13  1  0
  2 18  4  0
  2 25  4  0
  3  6  3  0
  3  7  2  0
  3 22  1  0
  3 24  3  0
  4  5  2  0
  4 16  3  0
  4 23  4  0
  4 25  1  0
  4 26  1  0
  5  8  4  0
  5  9  4  0
  5 15  4  0
  5 22  4  0
  6 13  2  0
  6 15  3  0
  6 25  1  0
  7 15  2  0
  7 16  4  0
  8 25  4  0
  9 21  4  0
  9 25  4  0
 10 11  1  0
 10 24  1  0
 11 13  2  0
 11 17  1  0
 12 13  4  0
 12 17  1  0
 12 18  3  0
 12 21  1  0
 12 22  2  0
 12 24  2  0
 13 26  3  0
 14 15  4  0
 14 19  4  0
 14 22  4  0
 14 23  4  0
 14 24  4  0
 15 18  3  0
 15 26  1  0
 16 19  4  0
 17 20  4  0
 17 22  2  0
 17 23  1  0
 18 19  3  0
 18 25  4  0
 19 24  4  0
 20 21  3  0
 20 24  4  0
 21 22  1  0
 22 26  1  0
M  END
$$$$

 Created by Python create_sdf_string function

 28 61  0  0  0  0  0  0  0  0999 V2000
    4.8878   -8.1687   27.1039 N   0  0  0  0  0  0  0  0  0  0  0  0
    2.5781   -7.8420   16.7879 F   0  0  0  0  0  0  0  0  0  0  0  0
    4.4158   -7.1592   27.1105 C   0  0  0  0  0  0  0  0  0  0  0  0
    2.3820   -5.3939   26.5989 C   0  0  0  0  0  0  0  0  0  0  0  0
    6.9866   -5.1844   27.8532 O   0  0  0  0  0  0  0  0  0  0  0  0
    8.4417   -4.9426   27.5819 C   0  0  0  0  0  0  0  0  0  0  0  0
    0.9740   -4.5722   26.3306 C   0  0  0  0  0  0  0  0  0  0  0  0
    4.1133   -8.6892   16.4825 O   0  0  0  0  0  0  0  0  0  0  0  0
   -1.5088   -3.5642   26.1975 N   0  0  0  0  0  0  0  0  0  0  0  0
   -1.4194   -4.5852   26.7832 C   0  0  0  0  0  0  0  0  0  0  0  0
    1.6679   -9.9246   16.6561 C   0  0  0  0  0  0  0  0  0  0  0  0
   -2.3908   -5.4602   27.6178 O   0  0  0  0  0  0  0  0  0  0  0  0
   10.3985   -6.4247   27.7910 C   0  0  0  0  0  0  0  0  0  0  0  0
    6.4953   -6.0436   27.3318 C   0  0  0  0  0  0  0  0  0  0  0  0
    2.1383   -6.4966   26.6573 C   0  0  0  0  0  0  0  0  0  0  0  0
    9.3219   -6.4495   27.8269 C   0  0  0  0  0  0  0  0  0  0  0  0
    0.4749  -10.0646   15.9978 O   0  0  0  0  0  0  0  0  0  0  0  0
    1.1581   -7.1539   27.9483 C   0  0  0  0  0  0  0  0  0  0  0  0
    8.4627   -7.2055   27.7907 C   0  0  0  0  0  0  0  0  0  0  0  0
    6.1575   -8.5088   27.8572 N   0  0  0  0  0  0  0  0  0  0  0  0
    3.1598  -10.0254   17.1955 O   0  0  0  0  0  0  0  0  0  0  0  0
    5.3612   -5.9282   26.8466 N   0  0  0  0  0  0  0  0  0  0  0  0
    6.9435   -6.9282   27.2183 C   0  0  0  0  0  0  0  0  0  0  0  0
   -0.0987   -5.1365   26.9261 C   0  0  0  0  0  0  0  0  0  0  0  0
    3.1565   -6.8760   26.2362 C   0  0  0  0  0  0  0  0  0  0  0  0
   -0.0240   -6.1493   27.6766 He  0  0  0  0  0  0  0  0  0  0  0  0
    3.9448  -10.6237   16.7261 He  0  0  0  0  0  0  0  0  0  0  0  0
    2.3341   -7.4238   15.9896 He  0  0  0  0  0  0  0  0  0  0  0  0
  1  3  4  0
  1 16  2  0
  1 18  4  0
  1 20  4  0
  2  4  1  0
  2 11  4  0
  2 16  3  0
  2 21  1  0
  3 18  1  0
  3 22  4  0
  3 24  3  0
  3 25  1  0
  4  7  4  0
  4 11  4  0
  4 15  4  0
  5  6  4  0
  5  7  3  0
  5 10  3  0
  5 11  4  0
  5 14  4  0
  5 20  4  0
  6 16  4  0
  6 21  3  0
  7  8  2  0
  7 10  2  0
  7 18  3  0
  7 21  2  0
  7 24  4  0
  8 10  1  0
  8 18  2  0
  8 19  1  0
  8 24  4  0
  9 10  1  0
 10 12  2  0
 10 20  4  0
 10 24  1  0
 11 15  2  0
 11 17  1  0
 11 19  3  0
 11 21  1  0
 11 25  2  0
 12 13  3  0
 12 24  1  0
 13 16  1  0
 14 22  4  0
 14 23  4  0
 15 18  4  0
 15 19  2  0
 15 25  1  0
 16 19  4  0
 17 19  2  0
 17 20  4  0
 17 21  4  0
 17 24  2  0
 17 25  4  0
 18 24  2  0
 19 21  2  0
 19 23  4  0
 20 21  2  0
 20 23  4  0
 20 25  1  0
M  END
$$$$

 Created by Python create_sdf_string function

 28 59  0  0  0  0  0  0  0  0999 V2000
    5.3626   -8.2430   27.3575 N   0  0  0  0  0  0  0  0  0  0  0  0
   -0.0312   -6.4682   27.8064 N   0  0  0  0  0  0  0  0  0  0  0  0
    1.8592   -8.7359   16.4562 C   0  0  0  0  0  0  0  0  0  0  0  0
    4.5081   -6.9694   26.8025 C   0  0  0  0  0  0  0  0  0  0  0  0
    2.0348   -4.8575   26.3294 B   0  0  0  0  0  0  0  0  0  0  0  0
    7.2165   -4.6444   27.7822 C   0  0  0  0  0  0  0  0  0  0  0  0
    8.5712   -5.0168   27.5984 C   0  0  0  0  0  0  0  0  0  0  0  0
    0.5622   -4.2387   26.0854 Cl  0  0  0  0  0  0  0  0  0  0  0  0
    4.1782   -8.8710   16.7143 C   0  0  0  0  0  0  0  0  0  0  0  0
   -1.6262   -3.4943   25.8442 N   0  0  0  0  0  0  0  0  0  0  0  0
   -1.3322   -4.2362   27.0576 C   0  0  0  0  0  0  0  0  0  0  0  0
    1.7682   -8.8034   16.1997 C   0  0  0  0  0  0  0  0  0  0  0  0
    3.6524   -9.7989   16.6772 C   0  0  0  0  0  0  0  0  0  0  0  0
   -2.4879   -5.4194   27.3957 O   0  0  0  0  0  0  0  0  0  0  0  0
   10.6414   -6.3383   28.0889 C   0  0  0  0  0  0  0  0  0  0  0  0
    6.2989   -5.9025   27.4602 C   0  0  0  0  0  0  0  0  0  0  0  0
    2.3647   -6.1736   26.8612 C   0  0  0  0  0  0  0  0  0  0  0  0
    9.4103   -6.2408   27.7528 C   0  0  0  0  0  0  0  0  0  0  0  0
    0.2845   -9.8730   16.6421 O   0  0  0  0  0  0  0  0  0  0  0  0
    0.9493   -7.5850   27.3274 C   0  0  0  0  0  0  0  0  0  0  0  0
    8.5063   -7.2615   27.7175 C   0  0  0  0  0  0  0  0  0  0  0  0
    6.1066   -8.4721   27.7437 N   0  0  0  0  0  0  0  0  0  0  0  0
    3.6550   -7.5633   16.2629 C   0  0  0  0  0  0  0  0  0  0  0  0
    3.0308  -10.3096   17.3602 C   0  0  0  0  0  0  0  0  0  0  0  0
    5.1638   -5.8148   27.0942 N   0  0  0  0  0  0  0  0  0  0  0  0
    7.1184   -7.0084   27.5186 C   0  0  0  0  0  0  0  0  0  0  0  0
   -0.4112   -5.1493   26.8833 C   0  0  0  0  0  0  0  0  0  0  0  0
    3.6886   -7.1410   26.0950 C   0  0  0  0  0  0  0  0  0  0  0  0
  1  4  4  0
  1 22  4  0
  2 12  1  0
  2 20  4  0
  2 27  4  0
  3  4  3  0
  3 12  3  0
  3 22  1  0
  3 23  4  0
  3 27  4  0
  3 28  3  0
  4 25  4  0
  4 28  1  0
  5  8  4  0
  5 12  4  0
  5 13  3  0
  5 17  4  0
  6 12  3  0
  6 19  2  0
  6 23  2  0
  6 25  3  0
  6 27  1  0
  7 11  2  0
  7 13  1  0
  7 18  4  0
  8 19  2  0
  9 11  3  0
  9 13  4  0
  9 15  4  0
  9 18  2  0
  9 23  4  0
  9 26  1  0
 10 11  1  0
 10 12  2  0
 10 24  3  0
 10 25  1  0
 11 13  1  0
 11 14  2  0
 11 27  1  0
 12 14  1  0
 12 15  3  0
 12 19  1  0
 12 24  4  0
 12 26  4  0
 13 17  3  0
 13 22  1  0
 13 24  4  0
 16 25  4  0
 16 26  4  0
 17 20  4  0
 17 28  1  0
 18 21  4  0
 18 24  4  0
 19 24  2  0
 21 22  1  0
 21 24  3  0
 22 26  4  0
 22 28  3  0
 24 28  4  0
M  END
$$$$

 Created by Python create_sdf_string function

 28 45  0  0  0  0  0  0  0  0999 V2000
    0.2107   -6.3172   27.4580 C   0  0  0  0  0  0  0  0  0  0  0  0
    2.0810   -8.2257   16.2724 O   0  0  0  0  0  0  0  0  0  0  0  0
    1.7189   -5.2308   26.0666 C   0  0  0  0  0  0  0  0  0  0  0  0
    7.4459   -5.7292   27.4418 C   0  0  0  0  0  0  0  0  0  0  0  0
    8.9455   -4.9189   27.4725 C   0  0  0  0  0  0  0  0  0  0  0  0
    4.0776   -9.0098   16.0206 C   0  0  0  0  0  0  0  0  0  0  0  0
   -1.3722   -4.3513   26.7725 C   0  0  0  0  0  0  0  0  0  0  0  0
   -2.4483   -5.2351   27.4491 O   0  0  0  0  0  0  0  0  0  0  0  0
   10.8144   -6.2858   28.1469 C   0  0  0  0  0  0  0  0  0  0  0  0
    6.6513   -6.0856   27.1220 C   0  0  0  0  0  0  0  0  0  0  0  0
    2.3368   -6.6373   26.5372 C   0  0  0  0  0  0  0  0  0  0  0  0
    9.2998   -6.0486   27.7628 C   0  0  0  0  0  0  0  0  0  0  0  0
    0.3764   -9.7081   16.8418 O   0  0  0  0  0  0  0  0  0  0  0  0
    1.2608   -6.5419   27.3723 C   0  0  0  0  0  0  0  0  0  0  0  0
    8.5807   -7.2715   28.0777 C   0  0  0  0  0  0  0  0  0  0  0  0
    6.2457   -8.5425   27.5475 N   0  0  0  0  0  0  0  0  0  0  0  0
    3.6428   -7.8886   16.2299 C   0  0  0  0  0  0  0  0  0  0  0  0
    3.4137  -10.4327   16.9683 C   0  0  0  0  0  0  0  0  0  0  0  0
    5.1522   -5.9233   27.1395 N   0  0  0  0  0  0  0  0  0  0  0  0
    7.1438   -7.1858   27.4457 C   0  0  0  0  0  0  0  0  0  0  0  0
   -0.1511   -5.1583   26.8645 C   0  0  0  0  0  0  0  0  0  0  0  0
    3.4977   -7.0505   26.1778 C   0  0  0  0  0  0  0  0  0  0  0  0
    4.6522   -8.3417   27.3022 He  0  0  0  0  0  0  0  0  0  0  0  0
    4.6924   -7.2149   26.5204 He  0  0  0  0  0  0  0  0  0  0  0  0
    1.1251   -4.4202   26.2300 He  0  0  0  0  0  0  0  0  0  0  0  0
   -1.5792   -3.5149   26.0525 He  0  0  0  0  0  0  0  0  0  0  0  0
    0.9592   -9.1233   16.1713 He  0  0  0  0  0  0  0  0  0  0  0  0
    3.9913   -9.8589   17.8110 He  0  0  0  0  0  0  0  0  0  0  0  0
  1 14  4  0
  1 19  4  0
  1 21  4  0
  2  3  2  0
  2  4  1  0
  2  6  2  0
  2  7  1  0
  2 17  4  0
  2 22  3  0
  3  7  4  0
  3 10  1  0
  3 11  4  0
  3 12  1  0
  3 22  2  0
  4  5  4  0
  4 10  4  0
  4 12  1  0
  4 13  1  0
  6  8  3  0
  6 13  3  0
  6 14  1  0
  7  8  2  0
  7 18  3  0
  7 21  1  0
  8 14  3  0
  8 16  1  0
  9 12  1  0
 10 18  4  0
 10 19  4  0
 10 20  4  0
 11 14  4  0
 11 18  4  0
 11 19  4  0
 12 15  4  0
 13 15  2  0
 13 22  2  0
 14 15  3  0
 14 16  1  0
 14 17  2  0
 14 19  3  0
 15 20  4  0
 16 20  4  0
 17 21  3  0
 18 22  3  0
 20 22  2  0
M  END
$$$$

 Created by Python create_sdf_string function

 28 49  0  0  0  0  0  0  0  0999 V2000
    5.2438   -8.7287   26.9665 C   0  0  0  0  0  0  0  0  0  0  0  0
   -0.0124   -6.2858   27.6209 C   0  0  0  0  0  0  0  0  0  0  0  0
    2.1950   -7.8808   16.0883 C   0  0  0  0  0  0  0  0  0  0  0  0
    4.3633   -7.3250   26.7028 C   0  0  0  0  0  0  0  0  0  0  0  0
    1.8929   -5.3189   26.0060 C   0  0  0  0  0  0  0  0  0  0  0  0
    7.2086   -4.7451   27.6149 C   0  0  0  0  0  0  0  0  0  0  0  0
    8.9114   -4.8811   27.8823 C   0  0  0  0  0  0  0  0  0  0  0  0
    1.0423   -4.3896   26.2770 C   0  0  0  0  0  0  0  0  0  0  0  0
    4.3843   -8.1852   16.6067 C   0  0  0  0  0  0  0  0  0  0  0  0
   -1.3750   -3.5577   26.1163 N   0  0  0  0  0  0  0  0  0  0  0  0
    1.6914   -9.0986   16.4499 C   0  0  0  0  0  0  0  0  0  0  0  0
    3.9165   -9.3755   17.4085 C   0  0  0  0  0  0  0  0  0  0  0  0
   -2.6632   -4.9592   27.4463 O   0  0  0  0  0  0  0  0  0  0  0  0
    6.8223   -6.1848   27.1264 C   0  0  0  0  0  0  0  0  0  0  0  0
    2.3596   -6.3500   26.4874 C   0  0  0  0  0  0  0  0  0  0  0  0
    9.5711   -6.7778   27.7945 C   0  0  0  0  0  0  0  0  0  0  0  0
    0.8381   -9.2833   16.5346 O   0  0  0  0  0  0  0  0  0  0  0  0
    0.9677   -7.6479   27.6889 C   0  0  0  0  0  0  0  0  0  0  0  0
    8.6011   -7.4133   27.5786 C   0  0  0  0  0  0  0  0  0  0  0  0
    6.4466   -8.2458   27.3581 N   0  0  0  0  0  0  0  0  0  0  0  0
    3.8105   -8.0492   15.9064 C   0  0  0  0  0  0  0  0  0  0  0  0
    5.0816   -6.1086   26.7214 N   0  0  0  0  0  0  0  0  0  0  0  0
    7.3399   -7.3562   27.9544 C   0  0  0  0  0  0  0  0  0  0  0  0
   -0.2054   -4.9360   26.8117 C   0  0  0  0  0  0  0  0  0  0  0  0
    3.5472   -7.4265   25.8847 C   0  0  0  0  0  0  0  0  0  0  0  0
   -1.3505   -4.6213   26.9277 He  0  0  0  0  0  0  0  0  0  0  0  0
   10.7407   -6.0566   28.0892 He  0  0  0  0  0  0  0  0  0  0  0  0
    3.2060  -10.5412   17.8059 He  0  0  0  0  0  0  0  0  0  0  0  0
  1  3  3  0
  1  5  1  0
  1 20  4  0
  1 21  1  0
  1 22  2  0
  2  3  2  0
  2  9  1  0
  2 10  2  0
  2 15  1  0
  2 16  1  0
  2 18  4  0
  2 24  4  0
  3  6  3  0
  3 11  4  0
  3 21  4  0
  4 20  1  0
  4 22  4  0
  4 25  1  0
  5  8  4  0
  5  9  1  0
  5 15  4  0
  5 21  3  0
  6  7  4  0
  6 21  4  0
  7 11  4  0
  7 16  4  0
  7 18  2  0
  8 14  1  0
  8 24  4  0
  8 25  3  0
  9 12  4  0
  9 18  1  0
  9 21  4  0
  9 23  4  0
 10 15  1  0
 11 17  1  0
 12 13  4  0
 12 22  2  0
 13 16  2  0
 13 18  3  0
 14 20  4  0
 14 22  4  0
 14 23  4  0
 15 25  1  0
 16 17  2  0
 16 19  4  0
 17 20  3  0
 19 23  4  0
 20 23  4  0
M  END
$$$$

 Created by Python create_sdf_string function

 28 52  0  0  0  0  0  0  0  0999 V2000
    5.2000   -8.4978   27.0416 C   0  0  0  0  0  0  0  0  0  0  0  0
    0.0438   -6.5899   27.6258 C   0  0  0  0  0  0  0  0  0  0  0  0
    2.1487   -7.9150   16.5139 C   0  0  0  0  0  0  0  0  0  0  0  0
    4.7496   -7.4526   26.3819 C   0  0  0  0  0  0  0  0  0  0  0  0
    2.2951   -5.3837   26.4201 C   0  0  0  0  0  0  0  0  0  0  0  0
    8.6494   -5.3829   27.8941 C   0  0  0  0  0  0  0  0  0  0  0  0
    0.8513   -4.6287   26.3004 Br  0  0  0  0  0  0  0  0  0  0  0  0
    4.5012   -8.6726   16.4598 C   0  0  0  0  0  0  0  0  0  0  0  0
   -1.3907   -3.4298   26.1441 N   0  0  0  0  0  0  0  0  0  0  0  0
   -1.1936   -4.7065   27.1168 C   0  0  0  0  0  0  0  0  0  0  0  0
    1.6322   -9.0106   16.4540 C   0  0  0  0  0  0  0  0  0  0  0  0
    4.5885   -9.4047   16.9627 C   0  0  0  0  0  0  0  0  0  0  0  0
   10.6165   -6.3728   28.0384 C   0  0  0  0  0  0  0  0  0  0  0  0
    6.7077   -6.1876   27.1848 C   0  0  0  0  0  0  0  0  0  0  0  0
    2.2190   -6.6274   26.3492 C   0  0  0  0  0  0  0  0  0  0  0  0
    9.1315   -6.1974   27.8386 C   0  0  0  0  0  0  0  0  0  0  0  0
    0.5986   -9.5243   16.7567 F   0  0  0  0  0  0  0  0  0  0  0  0
    1.2265   -7.4099   27.2334 C   0  0  0  0  0  0  0  0  0  0  0  0
    8.8009   -7.1680   27.7161 C   0  0  0  0  0  0  0  0  0  0  0  0
    6.6960   -8.5353   27.6578 N   0  0  0  0  0  0  0  0  0  0  0  0
    3.4262   -8.1208   15.7895 N   0  0  0  0  0  0  0  0  0  0  0  0
    2.8185   -9.9653   17.4283 O   0  0  0  0  0  0  0  0  0  0  0  0
    5.2594   -6.0833   26.7433 N   0  0  0  0  0  0  0  0  0  0  0  0
    7.2921   -7.3683   27.5780 C   0  0  0  0  0  0  0  0  0  0  0  0
   -0.1697   -4.9614   26.7408 C   0  0  0  0  0  0  0  0  0  0  0  0
    3.6262   -7.4991   26.0015 C   0  0  0  0  0  0  0  0  0  0  0  0
    7.1629   -4.6795   27.3614 He  0  0  0  0  0  0  0  0  0  0  0  0
   -2.5185   -4.9530   27.3819 He  0  0  0  0  0  0  0  0  0  0  0  0
  1  4  4  0
  1 20  4  0
  2  4  4  0
  2 18  4  0
  2 25  4  0
  3 10  1  0
  3 11  4  0
  3 20  1  0
  3 21  4  0
  3 24  2  0
  4 20  3  0
  4 23  4  0
  4 26  1  0
  5  7  4  0
  5 15  4  0
  6 11  1  0
  6 16  4  0
  6 20  4  0
  6 21  2  0
  7 12  3  0
  7 22  1  0
  8 12  4  0
  8 15  3  0
  8 21  4  0
  9 10  1  0
 10 11  4  0
 10 20  4  0
 10 25  1  0
 11 16  2  0
 11 21  2  0
 11 22  4  0
 11 24  3  0
 12 20  1  0
 12 22  3  0
 13 14  4  0
 13 16  1  0
 14 19  1  0
 14 21  2  0
 14 23  4  0
 14 24  4  0
 15 16  3  0
 15 18  4  0
 15 22  4  0
 15 26  1  0
 16 18  1  0
 16 19  4  0
 17 22  2  0
 18 19  4  0
 18 23  1  0
 19 24  4  0
 20 24  4  0
 21 24  3  0
M  END
$$$$

 Created by Python create_sdf_string function

 28 55  0  0  0  0  0  0  0  0999 V2000
    5.3222   -8.3671   26.6381 C   0  0  0  0  0  0  0  0  0  0  0  0
   -0.1240   -6.8414   27.2048 C   0  0  0  0  0  0  0  0  0  0  0  0
    4.6434   -7.3391   26.2544 C   0  0  0  0  0  0  0  0  0  0  0  0
    2.3929   -5.5277   26.4063 C   0  0  0  0  0  0  0  0  0  0  0  0
    6.8847   -4.7815   27.2623 C   0  0  0  0  0  0  0  0  0  0  0  0
    8.6381   -5.0653   27.6087 C   0  0  0  0  0  0  0  0  0  0  0  0
    0.9089   -4.4176   26.4005 C   0  0  0  0  0  0  0  0  0  0  0  0
    4.7479   -8.4306   16.3260 S   0  0  0  0  0  0  0  0  0  0  0  0
   -1.7779   -3.3040   26.1083 N   0  0  0  0  0  0  0  0  0  0  0  0
   -1.1993   -4.5596   27.1845 C   0  0  0  0  0  0  0  0  0  0  0  0
    4.1113   -9.9065   17.1861 C   0  0  0  0  0  0  0  0  0  0  0  0
   -2.3172   -5.0766   27.6236 O   0  0  0  0  0  0  0  0  0  0  0  0
   10.6600   -6.4621   28.0583 C   0  0  0  0  0  0  0  0  0  0  0  0
    6.4805   -6.0433   27.3053 C   0  0  0  0  0  0  0  0  0  0  0  0
    2.1869   -6.5453   26.5176 C   0  0  0  0  0  0  0  0  0  0  0  0
    9.3006   -6.1989   28.1938 C   0  0  0  0  0  0  0  0  0  0  0  0
    0.2530   -8.9831   17.0593 F   0  0  0  0  0  0  0  0  0  0  0  0
    1.2113   -7.6355   27.8573 C   0  0  0  0  0  0  0  0  0  0  0  0
    8.8066   -7.3076   27.7935 C   0  0  0  0  0  0  0  0  0  0  0  0
    6.6600   -8.4858   27.8041 N   0  0  0  0  0  0  0  0  0  0  0  0
    3.4938   -7.7029   15.8337 C   0  0  0  0  0  0  0  0  0  0  0  0
    3.0723  -10.1822   17.4331 C   0  0  0  0  0  0  0  0  0  0  0  0
    5.3817   -6.0725   26.6181 N   0  0  0  0  0  0  0  0  0  0  0  0
    7.2972   -7.3019   27.3587 C   0  0  0  0  0  0  0  0  0  0  0  0
    0.0220   -5.2472   26.8522 C   0  0  0  0  0  0  0  0  0  0  0  0
    3.1400   -7.4225   26.3873 C   0  0  0  0  0  0  0  0  0  0  0  0
    2.4684   -7.6905   15.9941 He  0  0  0  0  0  0  0  0  0  0  0  0
    1.9452   -8.8872   16.6956 He  0  0  0  0  0  0  0  0  0  0  0  0
  1  2  3  0
  1  3  4  0
  1 20  4  0
  1 22  1  0
  2 11  4  0
  2 13  1  0
  2 18  4  0
  2 24  1  0
  3 23  4  0
  3 26  1  0
  4  5  3  0
  4  7  4  0
  4 15  4  0
  4 18  1  0
  4 20  2  0
  4 26  1  0
  5  6  4  0
  5 14  4  0
  5 17  3  0
  5 21  1  0
  5 22  2  0
  6 16  4  0
  7 17  2  0
  7 22  2  0
  7 25  4  0
  8 11  1  0
  8 19  1  0
  8 22  4  0
  9 10  1  0
  9 12  3  0
 10 12  2  0
 10 17  2  0
 10 18  1  0
 11 22  3  0
 13 16  1  0
 13 24  3  0
 14 23  4  0
 14 24  4  0
 15 18  4  0
 15 21  1  0
 15 25  2  0
 15 26  1  0
 16 17  4  0
 16 19  4  0
 16 23  4  0
 17 18  3  0
 17 20  1  0
 17 22  4  0
 17 25  4  0
 20 24  4  0
 21 23  4  0
 21 24  3  0
 22 26  3  0
 23 26  3  0
 24 25  1  0
M  END
$$$$

 Created by Python create_sdf_string function

 28 63  0  0  0  0  0  0  0  0999 V2000
    0.2762   -6.8405   27.3970 C   0  0  0  0  0  0  0  0  0  0  0  0
    2.1125   -8.1588   15.8063 C   0  0  0  0  0  0  0  0  0  0  0  0
    4.8262   -7.5704   26.5934 C   0  0  0  0  0  0  0  0  0  0  0  0
    2.2946   -5.1648   26.5389 C   0  0  0  0  0  0  0  0  0  0  0  0
    7.6780   -5.3330   27.2237 F   0  0  0  0  0  0  0  0  0  0  0  0
    8.5981   -4.8796   27.4555 C   0  0  0  0  0  0  0  0  0  0  0  0
    0.9033   -4.7034   26.3403 C   0  0  0  0  0  0  0  0  0  0  0  0
    4.5318   -8.3259   16.2773 C   0  0  0  0  0  0  0  0  0  0  0  0
   -1.4213   -3.4895   26.1832 N   0  0  0  0  0  0  0  0  0  0  0  0
   -1.5605   -4.5524   27.0317 C   0  0  0  0  0  0  0  0  0  0  0  0
    1.8479   -8.9475   16.8706 C   0  0  0  0  0  0  0  0  0  0  0  0
    4.5205   -9.4698   16.9853 C   0  0  0  0  0  0  0  0  0  0  0  0
   -2.0631   -5.3906   27.5725 O   0  0  0  0  0  0  0  0  0  0  0  0
   10.6130   -6.1570   28.1642 C   0  0  0  0  0  0  0  0  0  0  0  0
    6.6053   -5.9448   26.8805 C   0  0  0  0  0  0  0  0  0  0  0  0
    2.3554   -6.4461   26.4860 N   0  0  0  0  0  0  0  0  0  0  0  0
    9.4043   -6.1029   27.9867 C   0  0  0  0  0  0  0  0  0  0  0  0
    0.9475   -9.0621   16.8282 P   0  0  0  0  0  0  0  0  0  0  0  0
    1.0685   -7.0458   27.3841 C   0  0  0  0  0  0  0  0  0  0  0  0
    8.5082   -7.2330   27.6212 C   0  0  0  0  0  0  0  0  0  0  0  0
    6.7061   -8.3545   27.2227 N   0  0  0  0  0  0  0  0  0  0  0  0
    2.3054  -10.0065   17.1958 C   0  0  0  0  0  0  0  0  0  0  0  0
    5.4072   -6.2501   26.8723 N   0  0  0  0  0  0  0  0  0  0  0  0
    7.2917   -7.5015   27.2463 C   0  0  0  0  0  0  0  0  0  0  0  0
    0.1518   -5.2185   26.9706 C   0  0  0  0  0  0  0  0  0  0  0  0
    3.1377   -7.2899   26.5127 C   0  0  0  0  0  0  0  0  0  0  0  0
    5.4290   -8.3673   26.9307 He  0  0  0  0  0  0  0  0  0  0  0  0
    3.5835   -7.6877   16.0377 He  0  0  0  0  0  0  0  0  0  0  0  0
  1  5  4  0
  1  7  1  0
  1 10  3  0
  1 19  4  0
  1 25  4  0
  2  5  2  0
  2 10  3  0
  2 11  4  0
  2 15  3  0
  2 19  2  0
  3 23  4  0
  3 26  1  0
  4  7  4  0
  4 11  1  0
  4 16  4  0
  4 18  4  0
  4 19  4  0
  5  6  4  0
  5 15  4  0
  5 22  2  0
  6  8  3  0
  6 17  4  0
  6 18  1  0
  6 22  4  0
  7 21  4  0
  7 22  3  0
  7 25  4  0
  8 12  4  0
  8 13  1  0
  8 18  4  0
  8 21  1  0
  8 23  2  0
  8 26  4  0
  9 10  1  0
  9 12  1  0
  9 19  3  0
  9 20  2  0
 10 13  2  0
 10 25  1  0
 11 13  4  0
 11 15  4  0
 11 18  1  0
 11 22  4  0
 11 23  4  0
 12 16  1  0
 12 20  2  0
 12 22  4  0
 12 24  2  0
 13 22  1  0
 14 17  1  0
 14 19  1  0
 14 20  1  0
 15 22  2  0
 15 23  4  0
 15 24  4  0
 16 18  2  0
 16 26  1  0
 17 18  4  0
 17 21  3  0
 19 24  3  0
 20 24  4  0
 21 24  4  0
 23 24  4  0
M  END
$$$$

 Created by Python create_sdf_string function

 28 47  0  0  0  0  0  0  0  0999 V2000
    5.5523   -8.3296   26.8852 C   0  0  0  0  0  0  0  0  0  0  0  0
   -0.1202   -6.5675   27.4140 C   0  0  0  0  0  0  0  0  0  0  0  0
    2.7396   -7.5980   16.0338 C   0  0  0  0  0  0  0  0  0  0  0  0
    4.6747   -7.2694   26.5329 C   0  0  0  0  0  0  0  0  0  0  0  0
    2.2614   -5.2091   26.3679 C   0  0  0  0  0  0  0  0  0  0  0  0
    7.4607   -5.5164   27.4514 O   0  0  0  0  0  0  0  0  0  0  0  0
    8.3670   -4.8165   27.7224 C   0  0  0  0  0  0  0  0  0  0  0  0
    1.0295   -4.5050   26.5217 C   0  0  0  0  0  0  0  0  0  0  0  0
    4.6599   -8.8468   16.2548 C   0  0  0  0  0  0  0  0  0  0  0  0
   -1.7478   -3.4588   26.3855 N   0  0  0  0  0  0  0  0  0  0  0  0
   -1.2039   -4.8998   27.2752 C   0  0  0  0  0  0  0  0  0  0  0  0
    2.2092   -9.6433   16.7034 C   0  0  0  0  0  0  0  0  0  0  0  0
    3.4875   -9.4966   17.0063 C   0  0  0  0  0  0  0  0  0  0  0  0
   -2.3902   -5.1636   27.6659 O   0  0  0  0  0  0  0  0  0  0  0  0
   10.7167   -6.0999   28.1797 C   0  0  0  0  0  0  0  0  0  0  0  0
    2.5212   -6.4875   26.6779 N   0  0  0  0  0  0  0  0  0  0  0  0
    9.2610   -6.0627   27.8962 C   0  0  0  0  0  0  0  0  0  0  0  0
    1.4744   -7.5315   27.4450 C   0  0  0  0  0  0  0  0  0  0  0  0
    8.8301   -7.3447   27.6568 C   0  0  0  0  0  0  0  0  0  0  0  0
    6.6497   -8.6930   27.3649 N   0  0  0  0  0  0  0  0  0  0  0  0
    3.8348   -7.9924   15.6556 C   0  0  0  0  0  0  0  0  0  0  0  0
    2.8152   -9.9379   17.2179 C   0  0  0  0  0  0  0  0  0  0  0  0
    5.0830   -6.1924   26.6967 N   0  0  0  0  0  0  0  0  0  0  0  0
    7.2574   -7.4919   27.2794 C   0  0  0  0  0  0  0  0  0  0  0  0
   -0.0548   -5.5191   27.1729 C   0  0  0  0  0  0  0  0  0  0  0  0
    3.2426   -7.7552   26.0619 C   0  0  0  0  0  0  0  0  0  0  0  0
    6.7278   -6.1948   27.3453 He  0  0  0  0  0  0  0  0  0  0  0  0
    0.4214   -9.4749   16.7574 He  0  0  0  0  0  0  0  0  0  0  0  0
  1  4  4  0
  1 12  2  0
  2 10  4  0
  2 18  4  0
  2 25  4  0
  3 12  4  0
  3 13  1  0
  3 18  2  0
  3 19  3  0
  3 20  2  0
  4 23  3  0
  4 26  1  0
  5  8  4  0
  5 13  1  0
  5 16  4  0
  6  7  4  0
  6 19  4  0
  7 11  4  0
  7 17  4  0
  7 21  1  0
  7 22  1  0
  8 25  4  0
  9 13  4  0
  9 21  4  0
  9 22  1  0
 10 14  3  0
 10 22  1  0
 11 14  2  0
 11 17  4  0
 11 19  4  0
 11 25  1  0
 12 16  4  0
 13 22  4  0
 14 21  2  0
 15 17  1  0
 16 18  4  0
 16 24  4  0
 16 26  1  0
 17 18  2  0
 17 19  4  0
 17 20  1  0
 17 21  4  0
 18 25  4  0
 19 20  4  0
 19 24  4  0
 21 24  3  0
 22 24  3  0
M  END
$$$$

 Created by Python create_sdf_string function

 28 49  0  0  0  0  0  0  0  0999 V2000
    5.6752   -8.6012   26.6882 C   0  0  0  0  0  0  0  0  0  0  0  0
    0.1355   -6.3935   27.5538 Cl  0  0  0  0  0  0  0  0  0  0  0  0
    2.3764   -7.9628   15.9062 C   0  0  0  0  0  0  0  0  0  0  0  0
    4.7628   -7.5893   26.8715 C   0  0  0  0  0  0  0  0  0  0  0  0
    2.0846   -5.5541   26.2730 C   0  0  0  0  0  0  0  0  0  0  0  0
    6.9802   -4.6704   27.1879 F   0  0  0  0  0  0  0  0  0  0  0  0
    8.6570   -4.8065   27.9558 C   0  0  0  0  0  0  0  0  0  0  0  0
    0.9762   -4.7187   26.8309 C   0  0  0  0  0  0  0  0  0  0  0  0
    4.4608   -8.3929   16.8713 C   0  0  0  0  0  0  0  0  0  0  0  0
   -1.1694   -3.5667   26.6453 N   0  0  0  0  0  0  0  0  0  0  0  0
   -1.1351   -4.9662   27.1833 C   0  0  0  0  0  0  0  0  0  0  0  0
    1.4843   -9.1502   17.2864 C   0  0  0  0  0  0  0  0  0  0  0  0
    3.9866   -9.4985   16.8167 C   0  0  0  0  0  0  0  0  0  0  0  0
   -2.2457   -5.0237   27.6999 O   0  0  0  0  0  0  0  0  0  0  0  0
   10.7367   -6.0989   28.3081 C   0  0  0  0  0  0  0  0  0  0  0  0
    6.5986   -6.3779   26.9594 C   0  0  0  0  0  0  0  0  0  0  0  0
    2.5057   -6.7326   26.4959 N   0  0  0  0  0  0  0  0  0  0  0  0
    9.2095   -6.0915   27.8561 C   0  0  0  0  0  0  0  0  0  0  0  0
   -0.0568   -8.9090   16.9225 N   0  0  0  0  0  0  0  0  0  0  0  0
    1.6917   -7.5664   27.1949 C   0  0  0  0  0  0  0  0  0  0  0  0
    8.7912   -7.2292   27.6639 C   0  0  0  0  0  0  0  0  0  0  0  0
    6.7669   -8.7756   27.1304 P   0  0  0  0  0  0  0  0  0  0  0  0
    3.5844   -7.3327   15.4208 Cl  0  0  0  0  0  0  0  0  0  0  0  0
    2.6778   -9.9882   17.0719 C   0  0  0  0  0  0  0  0  0  0  0  0
    7.3021   -7.3979   27.5309 Br  0  0  0  0  0  0  0  0  0  0  0  0
    0.1297   -5.3273   27.1028 C   0  0  0  0  0  0  0  0  0  0  0  0
    3.1403   -7.5600   26.2047 C   0  0  0  0  0  0  0  0  0  0  0  0
    5.0226   -6.1321   26.9183 He  0  0  0  0  0  0  0  0  0  0  0  0
  1  4  4  0
  1 21  2  0
  1 22  4  0
  2 19  3  0
  2 26  4  0
  3  6  4  0
  3 12  4  0
  3 18  1  0
  3 23  4  0
  4  5  2  0
  4  9  1  0
  4 20  1  0
  4 24  4  0
  5  8  4  0
  5 13  3  0
  5 17  4  0
  5 26  4  0
  6 12  1  0
  6 16  4  0
  6 27  2  0
  7 11  2  0
  7 18  4  0
  7 23  3  0
  8 10  1  0
  8 26  4  0
  9 11  1  0
  9 13  3  0
  9 15  3  0
  9 23  4  0
 10 11  1  0
 10 12  2  0
 11 14  2  0
 11 26  3  0
 12 21  4  0
 12 24  4  0
 13 22  1  0
 13 24  4  0
 15 18  1  0
 16 20  4  0
 16 25  4  0
 17 20  4  0
 18 20  3  0
 18 21  4  0
 20 26  1  0
 21 25  4  0
 21 27  3  0
 22 24  1  0
 22 25  4  0
 23 26  4  0
M  END
$$$$

 Created by Python create_sdf_string function

 28 38  0  0  0  0  0  0  0  0999 V2000
    5.3998   -8.6380   26.8236 C   0  0  0  0  0  0  0  0  0  0  0  0
    0.2051   -6.4687   27.9026 C   0  0  0  0  0  0  0  0  0  0  0  0
    1.9539   -7.8886   15.5985 C   0  0  0  0  0  0  0  0  0  0  0  0
    4.3786   -7.3436   26.6309 C   0  0  0  0  0  0  0  0  0  0  0  0
    2.4074   -5.6208   26.3157 C   0  0  0  0  0  0  0  0  0  0  0  0
    6.9522   -4.5664   27.3131 C   0  0  0  0  0  0  0  0  0  0  0  0
    8.5592   -4.9610   27.7303 C   0  0  0  0  0  0  0  0  0  0  0  0
    4.2474   -8.4839   16.8326 C   0  0  0  0  0  0  0  0  0  0  0  0
   -1.2364   -4.8509   27.2745 C   0  0  0  0  0  0  0  0  0  0  0  0
    1.7550   -8.9203   16.7452 C   0  0  0  0  0  0  0  0  0  0  0  0
    4.4361   -9.8288   17.1381 C   0  0  0  0  0  0  0  0  0  0  0  0
   -2.0076   -5.4222   27.8869 O   0  0  0  0  0  0  0  0  0  0  0  0
   10.8311   -5.9551   28.4154 N   0  0  0  0  0  0  0  0  0  0  0  0
    6.6795   -6.2671   27.2246 C   0  0  0  0  0  0  0  0  0  0  0  0
    2.4470   -6.4750   26.7361 N   0  0  0  0  0  0  0  0  0  0  0  0
    9.5781   -6.1807   28.0209 C   0  0  0  0  0  0  0  0  0  0  0  0
    0.0305   -9.1257   16.7718 N   0  0  0  0  0  0  0  0  0  0  0  0
    1.4783   -7.6667   27.7761 C   0  0  0  0  0  0  0  0  0  0  0  0
    6.6721   -8.6777   26.8085 N   0  0  0  0  0  0  0  0  0  0  0  0
    3.8112   -7.4604   16.2951 C   0  0  0  0  0  0  0  0  0  0  0  0
    2.8132   -9.9225   17.2706 C   0  0  0  0  0  0  0  0  0  0  0  0
    4.9817   -6.1969   26.9119 C   0  0  0  0  0  0  0  0  0  0  0  0
    7.2571   -7.2928   27.2944 C   0  0  0  0  0  0  0  0  0  0  0  0
   -0.1029   -5.3975   27.1045 C   0  0  0  0  0  0  0  0  0  0  0  0
    3.6608   -7.4956   26.2481 C   0  0  0  0  0  0  0  0  0  0  0  0
    1.3091   -4.7440   26.2620 He  0  0  0  0  0  0  0  0  0  0  0  0
   -1.2292   -3.5106   26.6964 He  0  0  0  0  0  0  0  0  0  0  0  0
    8.7672   -7.1662   27.5322 He  0  0  0  0  0  0  0  0  0  0  0  0
  1  2  3  0
  1  3  2  0
  1  4  4  0
  1 19  4  0
  2 18  4  0
  2 24  4  0
  3 10  4  0
  3 20  4  0
  3 24  1  0
  4 13  3  0
  4 22  4  0
  5 15  1  0
  6  7  4  0
  6 14  4  0
  6 23  3  0
  7  8  2  0
  7 12  3  0
  7 16  4  0
  7 18  4  0
  8 11  1  0
  9 12  1  0
  9 24  1  0
 10 13  1  0
 10 17  1  0
 11 14  1  0
 11 21  4  0
 11 23  3  0
 12 17  3  0
 13 16  1  0
 14 22  4  0
 14 23  4  0
 15 16  4  0
 16 20  3  0
 17 19  3  0
 17 22  4  0
 18 24  1  0
 19 23  4  0
 22 24  4  0
M  END
$$$$

 Created by Python create_sdf_string function

 28 50  0  0  0  0  0  0  0  0999 V2000
    5.5279   -8.3849   26.4981 C   0  0  0  0  0  0  0  0  0  0  0  0
    0.1560   -6.7307   27.7955 C   0  0  0  0  0  0  0  0  0  0  0  0
    2.2523   -7.8402   15.6144 C   0  0  0  0  0  0  0  0  0  0  0  0
    4.8017   -7.5324   26.5806 C   0  0  0  0  0  0  0  0  0  0  0  0
    7.1268   -5.0294   27.1717 C   0  0  0  0  0  0  0  0  0  0  0  0
    8.8653   -4.7481   27.8376 C   0  0  0  0  0  0  0  0  0  0  0  0
    0.8074   -4.6657   26.3730 C   0  0  0  0  0  0  0  0  0  0  0  0
    4.9057   -8.2044   16.5344 C   0  0  0  0  0  0  0  0  0  0  0  0
   -1.0704   -3.4828   26.8089 N   0  0  0  0  0  0  0  0  0  0  0  0
   -1.0041   -4.8520   27.2174 C   0  0  0  0  0  0  0  0  0  0  0  0
    1.8265   -9.0791   16.2577 C   0  0  0  0  0  0  0  0  0  0  0  0
   -1.9964   -5.1900   27.8621 O   0  0  0  0  0  0  0  0  0  0  0  0
   10.4484   -5.9975   28.2995 N   0  0  0  0  0  0  0  0  0  0  0  0
    6.6449   -6.4187   27.1103 C   0  0  0  0  0  0  0  0  0  0  0  0
    2.3712   -6.7883   26.7978 N   0  0  0  0  0  0  0  0  0  0  0  0
    8.9977   -6.0313   28.1245 C   0  0  0  0  0  0  0  0  0  0  0  0
    0.1980   -9.1115   16.9879 N   0  0  0  0  0  0  0  0  0  0  0  0
    1.7879   -7.3011   27.4863 C   0  0  0  0  0  0  0  0  0  0  0  0
    8.6857   -7.0584   27.7541 C   0  0  0  0  0  0  0  0  0  0  0  0
    6.5410   -8.4566   26.9723 N   0  0  0  0  0  0  0  0  0  0  0  0
    3.3724   -7.6911   15.9672 C   0  0  0  0  0  0  0  0  0  0  0  0
    2.8115  -10.1734   17.4726 Cl  0  0  0  0  0  0  0  0  0  0  0  0
    5.1942   -6.4391   26.8372 C   0  0  0  0  0  0  0  0  0  0  0  0
    0.1772   -5.3881   27.1450 C   0  0  0  0  0  0  0  0  0  0  0  0
    3.2238   -7.4494   26.4318 C   0  0  0  0  0  0  0  0  0  0  0  0
    2.3031   -5.5577   26.2994 He  0  0  0  0  0  0  0  0  0  0  0  0
    3.6854   -9.2325   17.3513 He  0  0  0  0  0  0  0  0  0  0  0  0
    7.2590   -7.2051   27.0378 He  0  0  0  0  0  0  0  0  0  0  0  0
  1  4  4  0
  1  9  4  0
  1 18  4  0
  1 20  4  0
  2  3  1  0
  2  5  2  0
  2 18  2  0
  2 21  4  0
  3  4  3  0
  3  5  1  0
  3  7  3  0
  3 11  4  0
  3 21  4  0
  4  8  1  0
  4 23  4  0
  5  6  4  0
  5 14  4  0
  5 19  2  0
  5 24  1  0
  6 11  4  0
  6 16  4  0
  6 17  1  0
  6 21  2  0
  7  8  4  0
  7 13  2  0
  7 24  4  0
  8 14  2  0
  8 17  1  0
  8 20  1  0
  8 21  4  0
  8 22  4  0
  9 10  1  0
 10 21  3  0
 10 24  1  0
 11 13  2  0
 11 17  4  0
 11 18  2  0
 11 22  4  0
 11 23  2  0
 12 18  2  0
 12 19  1  0
 13 16  1  0
 14 18  4  0
 14 23  4  0
 15 18  1  0
 16 19  4  0
 16 24  2  0
 18 19  2  0
 21 24  1  0
 22 23  4  0
M  END
$$$$

 Created by Python create_sdf_string function

 28 47  0  0  0  0  0  0  0  0999 V2000
    5.3854   -8.4448   26.6106 C   0  0  0  0  0  0  0  0  0  0  0  0
    0.2597   -6.6709   28.1249 C   0  0  0  0  0  0  0  0  0  0  0  0
    2.3380   -7.6511   15.8972 C   0  0  0  0  0  0  0  0  0  0  0  0
    4.5820   -7.3814   26.4895 C   0  0  0  0  0  0  0  0  0  0  0  0
    2.4870   -5.6125   26.3223 C   0  0  0  0  0  0  0  0  0  0  0  0
    6.9763   -4.9677   27.3900 C   0  0  0  0  0  0  0  0  0  0  0  0
    8.5025   -4.8491   27.5701 C   0  0  0  0  0  0  0  0  0  0  0  0
    1.0542   -4.7081   26.3559 C   0  0  0  0  0  0  0  0  0  0  0  0
    4.5337   -8.2170   16.6649 C   0  0  0  0  0  0  0  0  0  0  0  0
   -1.1491   -3.5984   26.5805 N   0  0  0  0  0  0  0  0  0  0  0  0
   -1.1117   -4.8265   27.2999 C   0  0  0  0  0  0  0  0  0  0  0  0
    1.7167   -8.7510   16.5947 C   0  0  0  0  0  0  0  0  0  0  0  0
    4.1637   -8.9426   17.5298 C   0  0  0  0  0  0  0  0  0  0  0  0
   -2.2819   -5.4080   27.8932 O   0  0  0  0  0  0  0  0  0  0  0  0
   10.6482   -5.8121   28.5333 N   0  0  0  0  0  0  0  0  0  0  0  0
    6.5342   -6.1813   27.0490 C   0  0  0  0  0  0  0  0  0  0  0  0
    2.1389   -6.5937   26.7910 N   0  0  0  0  0  0  0  0  0  0  0  0
    9.1156   -6.0537   28.0384 C   0  0  0  0  0  0  0  0  0  0  0  0
    1.4174   -7.2579   27.3750 C   0  0  0  0  0  0  0  0  0  0  0  0
    8.7188   -7.2991   27.3690 C   0  0  0  0  0  0  0  0  0  0  0  0
    6.8568   -8.3622   26.6376 N   0  0  0  0  0  0  0  0  0  0  0  0
    3.5095   -7.3108   16.0881 C   0  0  0  0  0  0  0  0  0  0  0  0
    2.8325  -10.3286   17.4458 C   0  0  0  0  0  0  0  0  0  0  0  0
    5.2513   -6.4457   26.7419 C   0  0  0  0  0  0  0  0  0  0  0  0
    7.4883   -7.3422   27.2124 C   0  0  0  0  0  0  0  0  0  0  0  0
    0.0044   -5.4328   27.1727 C   0  0  0  0  0  0  0  0  0  0  0  0
    3.2625   -7.4949   26.3194 C   0  0  0  0  0  0  0  0  0  0  0  0
    0.0301   -9.1047   16.1084 He  0  0  0  0  0  0  0  0  0  0  0  0
  1  4  4  0
  1 11  4  0
  1 18  2  0
  1 21  4  0
  1 27  4  0
  2 10  1  0
  2 19  4  0
  2 26  4  0
  3 12  4  0
  3 20  4  0
  3 22  4  0
  4 13  4  0
  4 24  4  0
  4 27  1  0
  5  8  4  0
  5 17  4  0
  5 19  3  0
  6  7  4  0
  6 15  4  0
  6 16  4  0
  7 18  4  0
  8 18  1  0
  8 26  3  0
  9 11  1  0
  9 13  1  0
  9 21  1  0
  9 22  4  0
 10 11  1  0
 10 23  3  0
 11 12  1  0
 11 14  2  0
 11 26  1  0
 12 17  4  0
 12 22  1  0
 12 23  4  0
 13 23  4  0
 14 21  1  0
 15 18  1  0
 16 20  1  0
 16 24  4  0
 16 25  4  0
 16 26  2  0
 17 19  4  0
 17 27  1  0
 18 20  4  0
 20 25  4  0
 23 26  2  0
M  END
$$$$

 Created by Python create_sdf_string function

 28 43  0  0  0  0  0  0  0  0999 V2000
    5.6232   -8.4831   26.4389 C   0  0  0  0  0  0  0  0  0  0  0  0
    0.4264   -6.6278   27.9786 C   0  0  0  0  0  0  0  0  0  0  0  0
    2.3606   -7.5848   15.5144 C   0  0  0  0  0  0  0  0  0  0  0  0
    4.5508   -7.4605   26.5586 C   0  0  0  0  0  0  0  0  0  0  0  0
    2.1899   -5.4898   26.3236 C   0  0  0  0  0  0  0  0  0  0  0  0
    7.0476   -4.6770   27.2151 B   0  0  0  0  0  0  0  0  0  0  0  0
    8.4701   -4.6605   27.7277 C   0  0  0  0  0  0  0  0  0  0  0  0
    1.0654   -4.7525   26.3886 C   0  0  0  0  0  0  0  0  0  0  0  0
    4.4264   -8.2428   17.2120 C   0  0  0  0  0  0  0  0  0  0  0  0
   -1.4342   -4.6920   27.4151 O   0  0  0  0  0  0  0  0  0  0  0  0
    1.5337   -8.9563   16.4916 Cl  0  0  0  0  0  0  0  0  0  0  0  0
   -2.3455   -5.4033   27.8255 O   0  0  0  0  0  0  0  0  0  0  0  0
   10.7561   -5.6972   28.3557 B   0  0  0  0  0  0  0  0  0  0  0  0
    2.4342   -6.8097   26.7848 N   0  0  0  0  0  0  0  0  0  0  0  0
    9.4370   -6.0484   28.0504 C   0  0  0  0  0  0  0  0  0  0  0  0
    0.2496   -9.6622   16.2998 Br  0  0  0  0  0  0  0  0  0  0  0  0
    0.9610   -6.8711   27.6258 C   0  0  0  0  0  0  0  0  0  0  0  0
    8.7605   -7.3538   27.5224 C   0  0  0  0  0  0  0  0  0  0  0  0
    6.7445   -8.5177   26.9280 N   0  0  0  0  0  0  0  0  0  0  0  0
    4.0338   -7.2696   15.8181 C   0  0  0  0  0  0  0  0  0  0  0  0
    2.9794   -9.4396   17.2736 C   0  0  0  0  0  0  0  0  0  0  0  0
    5.3337   -6.1262   26.9067 C   0  0  0  0  0  0  0  0  0  0  0  0
    7.4979   -7.2941   27.0521 C   0  0  0  0  0  0  0  0  0  0  0  0
   -0.0029   -5.4275   27.1825 C   0  0  0  0  0  0  0  0  0  0  0  0
    3.2859   -7.8469   26.4178 C   0  0  0  0  0  0  0  0  0  0  0  0
   -1.5596   -3.5611   26.8707 He  0  0  0  0  0  0  0  0  0  0  0  0
    3.6058   -9.1681   17.2968 He  0  0  0  0  0  0  0  0  0  0  0  0
    6.4158   -5.9780   27.0442 He  0  0  0  0  0  0  0  0  0  0  0  0
  1  4  4  0
  1 13  1  0
  1 19  4  0
  2 23  1  0
  2 24  4  0
  3  8  2  0
  3 11  4  0
  3 17  3  0
  3 20  4  0
  3 23  1  0
  3 25  4  0
  4 20  4  0
  4 22  4  0
  4 25  1  0
  5  8  4  0
  5  9  3  0
  5 13  1  0
  5 14  4  0
  6  7  4  0
  6 25  1  0
  7 14  1  0
  7 15  4  0
  7 23  4  0
  8 24  4  0
  9 14  3  0
  9 20  4  0
  9 22  4  0
 10 12  2  0
 10 20  3  0
 10 24  1  0
 11 16  1  0
 11 21  4  0
 11 24  4  0
 13 15  1  0
 13 25  3  0
 14 17  4  0
 14 25  1  0
 15 18  4  0
 16 25  1  0
 17 18  2  0
 18 21  3  0
 18 23  4  0
 19 23  4  0
M  END
$$$$

 Created by Python create_sdf_string function

 28 45  0  0  0  0  0  0  0  0999 V2000
    5.4598   -8.4070   26.4644 C   0  0  0  0  0  0  0  0  0  0  0  0
    0.2975   -6.5831   27.8196 C   0  0  0  0  0  0  0  0  0  0  0  0
    2.2770   -7.6322   15.8689 P   0  0  0  0  0  0  0  0  0  0  0  0
    4.6782   -7.3831   26.5336 C   0  0  0  0  0  0  0  0  0  0  0  0
    2.2009   -5.4542   26.2215 C   0  0  0  0  0  0  0  0  0  0  0  0
    7.1589   -4.2704   27.2643 C   0  0  0  0  0  0  0  0  0  0  0  0
    8.3080   -4.6471   27.4761 C   0  0  0  0  0  0  0  0  0  0  0  0
    0.9978   -4.6634   26.5614 C   0  0  0  0  0  0  0  0  0  0  0  0
    4.3511   -8.0728   16.9538 C   0  0  0  0  0  0  0  0  0  0  0  0
   -1.3079   -3.5417   26.6822 O   0  0  0  0  0  0  0  0  0  0  0  0
   -1.4159   -4.9604   27.4856 C   0  0  0  0  0  0  0  0  0  0  0  0
    2.1584   -8.9930   16.3157 C   0  0  0  0  0  0  0  0  0  0  0  0
    3.9846   -8.9703   17.5731 C   0  0  0  0  0  0  0  0  0  0  0  0
   -2.2339   -5.2532   27.7489 O   0  0  0  0  0  0  0  0  0  0  0  0
   10.6926   -5.8785   28.2890 C   0  0  0  0  0  0  0  0  0  0  0  0
    6.6745   -6.0229   27.2110 C   0  0  0  0  0  0  0  0  0  0  0  0
    2.3846   -6.6509   26.8439 N   0  0  0  0  0  0  0  0  0  0  0  0
    9.2344   -5.9559   27.9076 C   0  0  0  0  0  0  0  0  0  0  0  0
    0.4423   -9.1647   16.4575 Br  0  0  0  0  0  0  0  0  0  0  0  0
    1.2058   -7.2329   27.8081 C   0  0  0  0  0  0  0  0  0  0  0  0
    8.6276   -7.0536   27.4695 C   0  0  0  0  0  0  0  0  0  0  0  0
    7.0759   -8.5311   26.7935 N   0  0  0  0  0  0  0  0  0  0  0  0
    3.9001   -7.5528   15.7988 Se  0  0  0  0  0  0  0  0  0  0  0  0
    2.6633   -9.4749   17.1167 C   0  0  0  0  0  0  0  0  0  0  0  0
    5.2842   -6.2524   26.9492 C   0  0  0  0  0  0  0  0  0  0  0  0
    7.3289   -7.1941   27.2359 C   0  0  0  0  0  0  0  0  0  0  0  0
    0.0864   -5.3125   27.1131 C   0  0  0  0  0  0  0  0  0  0  0  0
    3.2737   -7.4735   26.2888 C   0  0  0  0  0  0  0  0  0  0  0  0
  1  4  4  0
  1 14  4  0
  1 22  4  0
  2 20  4  0
  2 27  4  0
  2 28  2  0
  3 12  4  0
  3 13  2  0
  3 16  3  0
  3 23  4  0
  4 10  1  0
  4 12  2  0
  4 25  4  0
  4 28  1  0
  5  8  4  0
  5 10  4  0
  5 17  2  0
  5 28  1  0
  6 11  3  0
  6 15  1  0
  6 16  4  0
  7 18  4  0
  8 27  4  0
  9 10  3  0
  9 13  4  0
  9 23  4  0
 10 11  1  0
 11 14  2  0
 12 14  1  0
 12 19  1  0
 12 28  4  0
 13 16  4  0
 13 17  4  0
 13 24  4  0
 15 18  1  0
 15 21  3  0
 16 19  2  0
 16 25  4  0
 16 26  4  0
 17 20  1  0
 17 28  1  0
 20 21  1  0
 20 24  3  0
 21 27  4  0
 22 26  4  0
M  END
$$$$

 Created by Python create_sdf_string function

 28 41  0  0  0  0  0  0  0  0999 V2000
    5.5792   -8.4173   26.5490 C   0  0  0  0  0  0  0  0  0  0  0  0
    0.0912   -6.4819   27.8341 C   0  0  0  0  0  0  0  0  0  0  0  0
    2.3363   -8.0042   15.7508 C   0  0  0  0  0  0  0  0  0  0  0  0
    4.5949   -7.1744   26.6876 C   0  0  0  0  0  0  0  0  0  0  0  0
    2.1671   -5.4539   26.1910 C   0  0  0  0  0  0  0  0  0  0  0  0
    7.4640   -4.7296   27.3243 C   0  0  0  0  0  0  0  0  0  0  0  0
    0.9704   -4.7945   26.5396 C   0  0  0  0  0  0  0  0  0  0  0  0
    4.5476   -8.0597   16.9120 C   0  0  0  0  0  0  0  0  0  0  0  0
   -1.3584   -3.6205   26.7392 O   0  0  0  0  0  0  0  0  0  0  0  0
   -1.4059   -4.6824   27.3809 C   0  0  0  0  0  0  0  0  0  0  0  0
    2.1591   -8.7259   16.0900 N   0  0  0  0  0  0  0  0  0  0  0  0
    3.9988   -9.4462   17.7721 C   0  0  0  0  0  0  0  0  0  0  0  0
   -2.3392   -5.5837   27.7690 O   0  0  0  0  0  0  0  0  0  0  0  0
   10.5463   -5.7868   28.1263 C   0  0  0  0  0  0  0  0  0  0  0  0
    6.4753   -5.9908   27.0940 C   0  0  0  0  0  0  0  0  0  0  0  0
    2.4282   -6.7035   26.7078 N   0  0  0  0  0  0  0  0  0  0  0  0
    9.1622   -6.0063   27.9197 C   0  0  0  0  0  0  0  0  0  0  0  0
    0.3296   -9.3241   16.3815 Br  0  0  0  0  0  0  0  0  0  0  0  0
    1.2988   -7.5889   27.7201 C   0  0  0  0  0  0  0  0  0  0  0  0
    8.6799   -7.1193   27.5149 C   0  0  0  0  0  0  0  0  0  0  0  0
    6.9610   -8.3481   27.0036 C   0  0  0  0  0  0  0  0  0  0  0  0
    3.6239   -7.5268   15.5824 C   0  0  0  0  0  0  0  0  0  0  0  0
    2.5810   -9.4348   17.5625 C   0  0  0  0  0  0  0  0  0  0  0  0
    5.1681   -6.1316   26.8465 C   0  0  0  0  0  0  0  0  0  0  0  0
    7.4234   -7.2795   27.2312 C   0  0  0  0  0  0  0  0  0  0  0  0
    0.0718   -5.5107   27.1046 C   0  0  0  0  0  0  0  0  0  0  0  0
    3.3256   -7.6304   25.8913 C   0  0  0  0  0  0  0  0  0  0  0  0
    8.6166   -4.5973   27.6730 He  0  0  0  0  0  0  0  0  0  0  0  0
  1  4  4  0
  1 15  3  0
  1 18  3  0
  1 21  4  0
  1 26  3  0
  2 19  3  0
  2 23  2  0
  2 26  4  0
  3 11  4  0
  3 22  4  0
  4 15  1  0
  4 24  4  0
  5  7  4  0
  5 16  4  0
  5 17  3  0
  6  8  2  0
  6 15  4  0
  7 26  4  0
  8 12  4  0
  8 21  3  0
  8 22  4  0
  9 10  1  0
 10 13  2  0
 10 20  3  0
 10 26  1  0
 11 18  4  0
 11 20  4  0
 11 23  4  0
 12 23  4  0
 14 17  1  0
 14 25  1  0
 15 25  4  0
 16 19  4  0
 16 23  3  0
 16 27  1  0
 17 20  4  0
 17 22  1  0
 18 21  2  0
 19 23  4  0
 20 25  4  0
 21 25  4  0
M  END
$$$$

 Created by Python create_sdf_string function

 28 41  0  0  0  0  0  0  0  0999 V2000
    5.4477   -8.5754   26.5125 C   0  0  0  0  0  0  0  0  0  0  0  0
    0.2114   -6.7398   27.7663 C   0  0  0  0  0  0  0  0  0  0  0  0
    2.5710   -7.6853   15.6776 C   0  0  0  0  0  0  0  0  0  0  0  0
    4.7027   -7.1301   26.6952 C   0  0  0  0  0  0  0  0  0  0  0  0
    2.3159   -5.5137   26.0639 C   0  0  0  0  0  0  0  0  0  0  0  0
    7.1260   -4.8225   27.1678 C   0  0  0  0  0  0  0  0  0  0  0  0
    8.4723   -4.6289   27.9228 C   0  0  0  0  0  0  0  0  0  0  0  0
    0.9147   -4.8343   26.4022 C   0  0  0  0  0  0  0  0  0  0  0  0
   -1.4820   -3.7868   26.9905 O   0  0  0  0  0  0  0  0  0  0  0  0
   -1.1358   -4.6834   27.1847 C   0  0  0  0  0  0  0  0  0  0  0  0
    4.0464   -9.3325   17.6866 C   0  0  0  0  0  0  0  0  0  0  0  0
   -2.2176   -5.5459   27.8918 O   0  0  0  0  0  0  0  0  0  0  0  0
   10.7281   -5.5465   28.3461 C   0  0  0  0  0  0  0  0  0  0  0  0
    6.4187   -5.8528   26.9656 Cl  0  0  0  0  0  0  0  0  0  0  0  0
    2.2809   -6.9861   26.6317 N   0  0  0  0  0  0  0  0  0  0  0  0
    9.2709   -5.8757   27.7816 C   0  0  0  0  0  0  0  0  0  0  0  0
    0.6348   -9.2488   16.2093 Br  0  0  0  0  0  0  0  0  0  0  0  0
    1.4575   -7.3432   27.4410 F   0  0  0  0  0  0  0  0  0  0  0  0
    8.8128   -6.9991   27.4255 C   0  0  0  0  0  0  0  0  0  0  0  0
    6.8724   -8.4270   27.1640 C   0  0  0  0  0  0  0  0  0  0  0  0
    3.4895   -7.9748   15.9789 N   0  0  0  0  0  0  0  0  0  0  0  0
    2.5981   -9.4899   17.4868 C   0  0  0  0  0  0  0  0  0  0  0  0
    5.2377   -6.1286   26.8192 C   0  0  0  0  0  0  0  0  0  0  0  0
    7.3226   -7.0975   27.1544 C   0  0  0  0  0  0  0  0  0  0  0  0
   -0.0195   -5.5068   27.2692 C   0  0  0  0  0  0  0  0  0  0  0  0
    3.2599   -7.5209   26.2302 C   0  0  0  0  0  0  0  0  0  0  0  0
    4.5368   -8.5194   16.5218 He  0  0  0  0  0  0  0  0  0  0  0  0
    1.8421   -9.0700   16.3229 He  0  0  0  0  0  0  0  0  0  0  0  0
  1  4  4  0
  1  9  3  0
  1 20  4  0
  2 18  4  0
  2 25  4  0
  3  4  2  0
  3 18  4  0
  3 21  4  0
  4 21  1  0
  4 23  4  0
  4 26  1  0
  5  8  4  0
  5 15  4  0
  5 25  4  0
  6  7  3  0
  6  8  4  0
  6 14  4  0
  6 16  1  0
  7 16  4  0
  7 22  3  0
  8  9  4  0
  8 18  4  0
  8 25  4  0
  9 10  1  0
 10 12  2  0
 10 25  1  0
 11 12  2  0
 11 22  4  0
 12 18  2  0
 13 16  1  0
 14 23  4  0
 14 24  4  0
 15 17  2  0
 15 18  4  0
 15 21  3  0
 15 26  1  0
 16 19  4  0
 19 22  1  0
 19 24  4  0
 20 24  4  0
 20 25  4  0
M  END
$$$$

 Created by Python create_sdf_string function

 28 39  0  0  0  0  0  0  0  0999 V2000
    5.3509   -8.4579   26.6995 C   0  0  0  0  0  0  0  0  0  0  0  0
    0.2111   -6.9269   27.8293 C   0  0  0  0  0  0  0  0  0  0  0  0
    2.3483   -8.1758   15.6085 C   0  0  0  0  0  0  0  0  0  0  0  0
    4.7581   -7.3606   26.5525 C   0  0  0  0  0  0  0  0  0  0  0  0
    2.1772   -5.6411   26.1708 C   0  0  0  0  0  0  0  0  0  0  0  0
    7.3995   -4.8034   27.3682 C   0  0  0  0  0  0  0  0  0  0  0  0
    8.4556   -4.5662   27.7111 C   0  0  0  0  0  0  0  0  0  0  0  0
    0.7565   -4.8351   26.4504 C   0  0  0  0  0  0  0  0  0  0  0  0
    4.3105   -8.3251   16.8385 S   0  0  0  0  0  0  0  0  0  0  0  0
   -1.5993   -3.8951   27.0489 O   0  0  0  0  0  0  0  0  0  0  0  0
   -1.1376   -4.7382   27.3640 C   0  0  0  0  0  0  0  0  0  0  0  0
    1.9072   -8.7671   16.5657 C   0  0  0  0  0  0  0  0  0  0  0  0
    3.8143   -9.3156   17.6221 C   0  0  0  0  0  0  0  0  0  0  0  0
   -2.1739   -5.6421   27.8281 O   0  0  0  0  0  0  0  0  0  0  0  0
    2.3238   -6.8829   26.5740 N   0  0  0  0  0  0  0  0  0  0  0  0
    9.2422   -5.7181   27.7824 C   0  0  0  0  0  0  0  0  0  0  0  0
    0.4171   -9.0908   16.1266 O   0  0  0  0  0  0  0  0  0  0  0  0
    1.4045   -7.5373   27.5095 C   0  0  0  0  0  0  0  0  0  0  0  0
    8.7437   -7.0159   27.5524 C   0  0  0  0  0  0  0  0  0  0  0  0
    3.9858   -7.7248   16.1821 F   0  0  0  0  0  0  0  0  0  0  0  0
    2.6473   -9.7561   17.5466 C   0  0  0  0  0  0  0  0  0  0  0  0
    7.4937   -7.1372   26.9444 C   0  0  0  0  0  0  0  0  0  0  0  0
    0.0371   -5.5975   27.1672 C   0  0  0  0  0  0  0  0  0  0  0  0
    3.0694   -7.6697   26.0707 C   0  0  0  0  0  0  0  0  0  0  0  0
   10.8181   -5.7383   28.5711 He  0  0  0  0  0  0  0  0  0  0  0  0
    6.3915   -5.8565   27.1798 He  0  0  0  0  0  0  0  0  0  0  0  0
    6.8053   -8.5427   26.8930 He  0  0  0  0  0  0  0  0  0  0  0  0
    5.1574   -6.2699   26.5772 He  0  0  0  0  0  0  0  0  0  0  0  0
  1  4  4  0
  1 13  3  0
  1 22  3  0
  2 14  2  0
  2 18  3  0
  2 22  2  0
  2 23  4  0
  3 12  4  0
  3 20  4  0
  3 23  2  0
  4  5  2  0
  4 17  3  0
  4 19  3  0
  4 22  3  0
  4 24  1  0
  5  8  4  0
  5 14  1  0
  5 15  4  0
  6  7  4  0
  6 15  1  0
  6 20  1  0
  6 24  4  0
  7 16  4  0
  8 19  2  0
  8 23  4  0
  9 13  4  0
  9 20  4  0
 10 11  1  0
 11 14  2  0
 11 23  1  0
 12 17  1  0
 12 21  4  0
 13 21  4  0
 13 24  2  0
 15 18  4  0
 15 20  2  0
 15 24  1  0
 16 19  4  0
 19 22  4  0
M  END
$$$$

 Created by Python create_sdf_string function

 28 42  0  0  0  0  0  0  0  0999 V2000
    5.4822   -8.5005   26.7157 C   0  0  0  0  0  0  0  0  0  0  0  0
    0.1218   -7.0546   27.7776 C   0  0  0  0  0  0  0  0  0  0  0  0
    2.4587   -7.8196   15.5819 C   0  0  0  0  0  0  0  0  0  0  0  0
    4.7242   -7.5536   26.5855 C   0  0  0  0  0  0  0  0  0  0  0  0
    2.1742   -5.5439   26.0954 C   0  0  0  0  0  0  0  0  0  0  0  0
    7.2074   -4.4886   27.1920 C   0  0  0  0  0  0  0  0  0  0  0  0
    8.3777   -4.5480   27.6048 C   0  0  0  0  0  0  0  0  0  0  0  0
    0.9694   -5.0127   26.5379 C   0  0  0  0  0  0  0  0  0  0  0  0
   -1.6143   -3.7834   26.9714 O   0  0  0  0  0  0  0  0  0  0  0  0
   -1.1908   -4.9145   27.3288 C   0  0  0  0  0  0  0  0  0  0  0  0
    1.8993   -9.1087   16.4451 O   0  0  0  0  0  0  0  0  0  0  0  0
    3.8656   -9.5600   17.4611 C   0  0  0  0  0  0  0  0  0  0  0  0
   -2.1655   -5.7258   28.0419 O   0  0  0  0  0  0  0  0  0  0  0  0
   10.5605   -5.6128   28.3582 C   0  0  0  0  0  0  0  0  0  0  0  0
    6.4993   -6.2976   26.9847 O   0  0  0  0  0  0  0  0  0  0  0  0
    2.1458   -7.0006   26.5857 N   0  0  0  0  0  0  0  0  0  0  0  0
    9.0792   -5.7370   27.8922 C   0  0  0  0  0  0  0  0  0  0  0  0
    0.3369   -9.1691   16.4334 O   0  0  0  0  0  0  0  0  0  0  0  0
    1.6777   -7.5838   27.5343 C   0  0  0  0  0  0  0  0  0  0  0  0
    8.8371   -7.0674   27.4020 P   0  0  0  0  0  0  0  0  0  0  0  0
    6.7931   -8.4416   27.0381 N   0  0  0  0  0  0  0  0  0  0  0  0
    3.7676   -7.8358   16.0448 C   0  0  0  0  0  0  0  0  0  0  0  0
    2.4189   -9.7323   17.2158 C   0  0  0  0  0  0  0  0  0  0  0  0
    5.2840   -6.3169   26.6500 C   0  0  0  0  0  0  0  0  0  0  0  0
    7.4586   -7.0822   27.2742 N   0  0  0  0  0  0  0  0  0  0  0  0
   -0.0213   -5.6207   27.0226 C   0  0  0  0  0  0  0  0  0  0  0  0
    3.4498   -7.5830   26.1262 C   0  0  0  0  0  0  0  0  0  0  0  0
    4.3898   -8.2551   16.7026 He  0  0  0  0  0  0  0  0  0  0  0  0
  1  3  1  0
  1  4  4  0
  1 21  4  0
  2  6  1  0
  2 19  4  0
  2 26  4  0
  3  6  1  0
  3 11  4  0
  3 22  4  0
  4 24  4  0
  4 27  1  0
  5  8  4  0
  5 16  4  0
  6  7  4  0
  6 12  2  0
  6 15  4  0
  6 20  4  0
  7 11  4  0
  7 17  4  0
  8 19  1  0
  8 26  4  0
  9 10  1  0
 10 13  2  0
 10 14  4  0
 10 26  1  0
 11 18  1  0
 11 23  4  0
 12 23  4  0
 12 27  4  0
 13 26  3  0
 14 19  1  0
 15 23  2  0
 15 24  4  0
 15 25  4  0
 16 19  2  0
 16 27  1  0
 17 20  4  0
 18 19  4  0
 18 20  2  0
 18 27  4  0
 20 25  4  0
 21 25  4  0
M  END
$$$$

 Created by Python create_sdf_string function

 28 43  0  0  0  0  0  0  0  0999 V2000
    5.6284   -8.7365   26.6480 C   0  0  0  0  0  0  0  0  0  0  0  0
    0.3987   -6.8819   27.5938 C   0  0  0  0  0  0  0  0  0  0  0  0
    2.4055   -8.0030   15.5506 F   0  0  0  0  0  0  0  0  0  0  0  0
    4.9017   -7.6467   26.6201 C   0  0  0  0  0  0  0  0  0  0  0  0
    2.1674   -5.5928   26.1423 C   0  0  0  0  0  0  0  0  0  0  0  0
    7.1732   -4.9389   27.0750 C   0  0  0  0  0  0  0  0  0  0  0  0
    8.5895   -4.6348   27.5311 C   0  0  0  0  0  0  0  0  0  0  0  0
    0.9265   -4.9081   26.5563 C   0  0  0  0  0  0  0  0  0  0  0  0
    4.3198   -8.2138   16.9469 C   0  0  0  0  0  0  0  0  0  0  0  0
   -1.4240   -3.7190   26.9172 O   0  0  0  0  0  0  0  0  0  0  0  0
   -1.2525   -5.0522   27.3990 C   0  0  0  0  0  0  0  0  0  0  0  0
    1.8351   -9.2265   16.5134 C   0  0  0  0  0  0  0  0  0  0  0  0
    3.6738   -9.6159   17.4888 F   0  0  0  0  0  0  0  0  0  0  0  0
   -2.1336   -5.7811   28.2239 O   0  0  0  0  0  0  0  0  0  0  0  0
   10.4844   -5.4816   28.3978 C   0  0  0  0  0  0  0  0  0  0  0  0
    6.5877   -5.8398   26.8576 C   0  0  0  0  0  0  0  0  0  0  0  0
    2.3110   -6.9245   26.8419 N   0  0  0  0  0  0  0  0  0  0  0  0
    9.1199   -5.7615   27.8074 C   0  0  0  0  0  0  0  0  0  0  0  0
    0.4417   -9.1658   16.3192 O   0  0  0  0  0  0  0  0  0  0  0  0
    1.3738   -7.5792   27.4755 C   0  0  0  0  0  0  0  0  0  0  0  0
    8.6752   -6.8998   27.7831 C   0  0  0  0  0  0  0  0  0  0  0  0
    6.9593   -8.3887   27.0694 N   0  0  0  0  0  0  0  0  0  0  0  0
    3.5360   -7.8133   15.8338 C   0  0  0  0  0  0  0  0  0  0  0  0
    2.4263   -9.7234   17.4933 C   0  0  0  0  0  0  0  0  0  0  0  0
    5.1132   -6.1435   26.7952 C   0  0  0  0  0  0  0  0  0  0  0  0
    7.1957   -7.3134   27.0305 C   0  0  0  0  0  0  0  0  0  0  0  0
   -0.0217   -5.8882   27.1249 C   0  0  0  0  0  0  0  0  0  0  0  0
    3.3950   -7.5989   25.9828 He  0  0  0  0  0  0  0  0  0  0  0  0
  1 22  4  0
  2 20  4  0
  2 27  4  0
  3 12  4  0
  3 23  4  0
  3 26  1  0
  4  7  4  0
  4 13  3  0
  4 15  1  0
  4 25  4  0
  5  8  4  0
  5 17  4  0
  6  7  4  0
  6 16  4  0
  7 15  2  0
  7 18  4  0
  7 20  4  0
  8 13  3  0
  8 27  4  0
  9 13  4  0
  9 19  3  0
  9 23  4  0
 10 11  1  0
 11 14  2  0
 11 27  1  0
 12 19  1  0
 12 21  3  0
 12 23  1  0
 12 24  4  0
 13 24  4  0
 15 18  1  0
 15 23  4  0
 16 19  4  0
 16 26  4  0
 17 20  4  0
 18 21  4  0
 19 22  1  0
 19 25  4  0
 20 21  4  0
 20 22  2  0
 20 26  1  0
 21 26  4  0
 22 26  4  0
M  END
$$$$

 Created by Python create_sdf_string function

 28 38  0  0  0  0  0  0  0  0999 V2000
    5.6319   -8.5106   26.6040 C   0  0  0  0  0  0  0  0  0  0  0  0
    0.4371   -6.9668   27.5595 C   0  0  0  0  0  0  0  0  0  0  0  0
    2.2602   -8.0365   15.7395 C   0  0  0  0  0  0  0  0  0  0  0  0
    4.6799   -7.6485   26.3410 C   0  0  0  0  0  0  0  0  0  0  0  0
    2.1370   -5.6686   26.2922 C   0  0  0  0  0  0  0  0  0  0  0  0
    7.0859   -4.6819   26.6848 C   0  0  0  0  0  0  0  0  0  0  0  0
    8.3708   -4.3180   27.4250 C   0  0  0  0  0  0  0  0  0  0  0  0
    0.9457   -4.9198   26.4636 C   0  0  0  0  0  0  0  0  0  0  0  0
    4.3290   -8.4234   16.7974 C   0  0  0  0  0  0  0  0  0  0  0  0
   -1.5126   -4.0972   27.1292 N   0  0  0  0  0  0  0  0  0  0  0  0
    1.7313   -9.0488   16.5201 C   0  0  0  0  0  0  0  0  0  0  0  0
    3.8686   -9.5640   17.5460 C   0  0  0  0  0  0  0  0  0  0  0  0
   -2.1152   -5.5536   28.1004 O   0  0  0  0  0  0  0  0  0  0  0  0
   10.4462   -5.6617   28.4161 C   0  0  0  0  0  0  0  0  0  0  0  0
    6.4797   -5.9635   26.9202 C   0  0  0  0  0  0  0  0  0  0  0  0
    2.2449   -6.8663   26.5071 N   0  0  0  0  0  0  0  0  0  0  0  0
    9.2305   -5.8083   27.8309 C   0  0  0  0  0  0  0  0  0  0  0  0
    0.4593   -9.4111   16.3988 O   0  0  0  0  0  0  0  0  0  0  0  0
    1.3814   -7.5533   27.3880 C   0  0  0  0  0  0  0  0  0  0  0  0
    8.6831   -6.9033   27.7032 F   0  0  0  0  0  0  0  0  0  0  0  0
    6.9891   -8.3416   27.0573 N   0  0  0  0  0  0  0  0  0  0  0  0
    3.5142   -7.9941   16.2181 C   0  0  0  0  0  0  0  0  0  0  0  0
    2.7188   -9.7227   17.3724 C   0  0  0  0  0  0  0  0  0  0  0  0
    5.2704   -6.1717   26.7730 C   0  0  0  0  0  0  0  0  0  0  0  0
    7.4157   -7.3066   27.2662 C   0  0  0  0  0  0  0  0  0  0  0  0
   -0.1664   -5.6495   27.2288 C   0  0  0  0  0  0  0  0  0  0  0  0
    3.4553   -7.6815   26.0633 C   0  0  0  0  0  0  0  0  0  0  0  0
   -1.3352   -5.0898   27.5396 He  0  0  0  0  0  0  0  0  0  0  0  0
  1  8  1  0
  1 21  4  0
  2 19  1  0
  2 26  4  0
  3 11  2  0
  3 14  3  0
  3 22  4  0
  3 24  2  0
  4 24  4  0
  4 27  1  0
  5  8  4  0
  5 16  4  0
  6  7  4  0
  6 15  4  0
  7 12  2  0
  7 17  4  0
  8 12  4  0
  8 26  4  0
  9 12  4  0
  9 22  4  0
 10 27  1  0
 11 18  1  0
 11 23  4  0
 12 23  4  0
 13 25  4  0
 14 17  1  0
 14 27  1  0
 15 24  4  0
 15 25  4  0
 16 19  4  0
 16 27  1  0
 17 18  4  0
 17 20  4  0
 18 27  3  0
 19 25  1  0
 19 26  3  0
 21 25  4  0
 23 24  2  0
M  END
$$$$

 Created by Python create_sdf_string function

 28 37  0  0  0  0  0  0  0  0999 V2000
    5.6174   -8.4850   26.6005 C   0  0  0  0  0  0  0  0  0  0  0  0
    0.2559   -6.9950   27.6732 C   0  0  0  0  0  0  0  0  0  0  0  0
    2.2722   -8.0978   15.8583 C   0  0  0  0  0  0  0  0  0  0  0  0
    4.7942   -7.4618   26.5597 C   0  0  0  0  0  0  0  0  0  0  0  0
    2.1001   -5.6503   26.1988 C   0  0  0  0  0  0  0  0  0  0  0  0
    7.1370   -4.6703   27.0507 C   0  0  0  0  0  0  0  0  0  0  0  0
    8.4754   -4.4723   27.3461 C   0  0  0  0  0  0  0  0  0  0  0  0
    1.0466   -4.9610   26.4356 C   0  0  0  0  0  0  0  0  0  0  0  0
    4.3694   -8.4588   16.9187 C   0  0  0  0  0  0  0  0  0  0  0  0
   -1.4194   -4.0542   27.1671 N   0  0  0  0  0  0  0  0  0  0  0  0
   -1.3085   -5.0788   27.5869 C   0  0  0  0  0  0  0  0  0  0  0  0
    3.8130   -9.5552   17.4445 C   0  0  0  0  0  0  0  0  0  0  0  0
   -2.0497   -5.7750   28.2830 O   0  0  0  0  0  0  0  0  0  0  0  0
   10.4048   -5.4083   28.2685 C   0  0  0  0  0  0  0  0  0  0  0  0
    6.5683   -6.0090   27.0431 C   0  0  0  0  0  0  0  0  0  0  0  0
    2.3756   -6.9779   26.4953 N   0  0  0  0  0  0  0  0  0  0  0  0
    8.9615   -5.7242   27.8871 C   0  0  0  0  0  0  0  0  0  0  0  0
    0.5259   -9.6277   16.2290 O   0  0  0  0  0  0  0  0  0  0  0  0
    1.4429   -7.4611   27.2332 C   0  0  0  0  0  0  0  0  0  0  0  0
    8.6352   -6.9857   27.8413 F   0  0  0  0  0  0  0  0  0  0  0  0
    6.8151   -8.2881   26.8857 N   0  0  0  0  0  0  0  0  0  0  0  0
    3.4569   -7.6387   16.0352 C   0  0  0  0  0  0  0  0  0  0  0  0
    2.4954   -9.6323   17.4585 C   0  0  0  0  0  0  0  0  0  0  0  0
    5.2502   -6.3163   26.6289 C   0  0  0  0  0  0  0  0  0  0  0  0
    7.3502   -7.1402   27.1579 C   0  0  0  0  0  0  0  0  0  0  0  0
    3.4052   -7.5484   26.0374 C   0  0  0  0  0  0  0  0  0  0  0  0
    1.5150   -9.0378   16.2650 He  0  0  0  0  0  0  0  0  0  0  0  0
   -0.0133   -5.8621   27.3376 He  0  0  0  0  0  0  0  0  0  0  0  0
  1  4  4  0
  1 21  4  0
  2 19  4  0
  3  4  1  0
  3 22  4  0
  4  7  4  0
  4 13  4  0
  4 24  4  0
  4 26  1  0
  5  8  4  0
  5 16  4  0
  5 26  4  0
  6  7  4  0
  6 15  4  0
  7 17  4  0
  7 21  1  0
  8  9  4  0
  8 12  4  0
  8 22  3  0
  9 12  4  0
  9 17  4  0
  9 18  2  0
 10 11  1  0
 12 23  4  0
 14 17  1  0
 14 18  1  0
 14 21  4  0
 15 24  4  0
 15 25  4  0
 16 19  4  0
 16 26  1  0
 17 20  4  0
 19 24  4  0
 20 24  1  0
 20 25  4  0
 21 25  4  0
 22 23  2  0
M  END
$$$$

 Created by Python create_sdf_string function

 28 28  0  0  0  0  0  0  0  0999 V2000
    5.6420   -8.3524   26.4534 C   0  0  0  0  0  0  0  0  0  0  0  0
    0.3841   -6.9128   27.7258 C   0  0  0  0  0  0  0  0  0  0  0  0
    2.2052   -8.0108   15.8710 C   0  0  0  0  0  0  0  0  0  0  0  0
    4.6301   -7.4570   26.3390 C   0  0  0  0  0  0  0  0  0  0  0  0
    2.0276   -5.6415   26.1979 C   0  0  0  0  0  0  0  0  0  0  0  0
    7.0792   -4.6408   27.0339 C   0  0  0  0  0  0  0  0  0  0  0  0
    8.3367   -4.4737   27.4563 C   0  0  0  0  0  0  0  0  0  0  0  0
    0.9819   -4.9851   26.5033 C   0  0  0  0  0  0  0  0  0  0  0  0
    4.4602   -8.4067   16.9134 C   0  0  0  0  0  0  0  0  0  0  0  0
   -1.5137   -3.8983   27.3152 N   0  0  0  0  0  0  0  0  0  0  0  0
   -1.2167   -5.1694   27.5930 C   0  0  0  0  0  0  0  0  0  0  0  0
    1.7466   -9.1515   16.4216 C   0  0  0  0  0  0  0  0  0  0  0  0
    3.9672   -9.4331   17.3349 C   0  0  0  0  0  0  0  0  0  0  0  0
   -2.1856   -5.6320   28.4024 O   0  0  0  0  0  0  0  0  0  0  0  0
   10.5766   -5.5281   28.5454 C   0  0  0  0  0  0  0  0  0  0  0  0
    6.5179   -5.9374   26.9133 C   0  0  0  0  0  0  0  0  0  0  0  0
    2.1581   -6.9098   26.4233 N   0  0  0  0  0  0  0  0  0  0  0  0
    9.0476   -5.6944   27.7015 O   0  0  0  0  0  0  0  0  0  0  0  0
    0.5566   -9.3851   16.0261 O   0  0  0  0  0  0  0  0  0  0  0  0
    8.6211   -6.7729   27.6648 N   0  0  0  0  0  0  0  0  0  0  0  0
    6.8785   -8.5072   27.1922 N   0  0  0  0  0  0  0  0  0  0  0  0
    2.6156   -9.8434   17.1244 C   0  0  0  0  0  0  0  0  0  0  0  0
    5.2114   -6.2678   26.5925 S   0  0  0  0  0  0  0  0  0  0  0  0
    3.3963   -7.6515   26.1516 C   0  0  0  0  0  0  0  0  0  0  0  0
    1.4332   -7.7142   27.2351 He  0  0  0  0  0  0  0  0  0  0  0  0
    3.4533   -7.6488   15.8525 He  0  0  0  0  0  0  0  0  0  0  0  0
    7.4648   -6.9384   27.1103 He  0  0  0  0  0  0  0  0  0  0  0  0
   -0.0567   -5.7706   27.3666 He  0  0  0  0  0  0  0  0  0  0  0  0
  1  4  4  0
  1 13  4  0
  1 21  4  0
  3  7  3  0
  3 10  4  0
  3 12  4  0
  4 23  4  0
  4 24  1  0
  5  8  4  0
  5 17  4  0
  5 20  3  0
  5 24  1  0
  6 16  4  0
  7 12  2  0
  7 18  4  0
  8 24  4  0
  9 13  4  0
  9 19  2  0
 10 11  1  0
 11 14  2  0
 11 17  2  0
 11 18  3  0
 12 19  1  0
 13 22  4  0
 15 18  1  0
 15 22  4  0
 16 23  4  0
 18 20  4  0
M  END
$$$$

 Created by Python create_sdf_string function

 28 40  0  0  0  0  0  0  0  0999 V2000
    5.5416   -8.3217   26.5052 C   0  0  0  0  0  0  0  0  0  0  0  0
    0.2168   -7.0278   27.8706 C   0  0  0  0  0  0  0  0  0  0  0  0
    2.1738   -7.8786   15.7975 C   0  0  0  0  0  0  0  0  0  0  0  0
    4.6192   -7.5319   26.5291 C   0  0  0  0  0  0  0  0  0  0  0  0
    2.0525   -5.7113   26.1622 C   0  0  0  0  0  0  0  0  0  0  0  0
    7.0464   -4.4136   27.0584 C   0  0  0  0  0  0  0  0  0  0  0  0
    8.4596   -4.6321   27.5092 C   0  0  0  0  0  0  0  0  0  0  0  0
    4.2848   -8.2612   16.7951 C   0  0  0  0  0  0  0  0  0  0  0  0
   -1.3947   -3.7720   27.2744 N   0  0  0  0  0  0  0  0  0  0  0  0
   -1.5023   -5.1508   27.6390 C   0  0  0  0  0  0  0  0  0  0  0  0
    1.7462   -9.2081   16.4206 C   0  0  0  0  0  0  0  0  0  0  0  0
    3.9649   -9.7373   17.5439 C   0  0  0  0  0  0  0  0  0  0  0  0
   -2.1701   -5.6568   28.3542 O   0  0  0  0  0  0  0  0  0  0  0  0
   10.5268   -5.3662   28.4568 C   0  0  0  0  0  0  0  0  0  0  0  0
    6.3066   -5.8926   26.8350 C   0  0  0  0  0  0  0  0  0  0  0  0
    2.2371   -6.9142   26.5313 N   0  0  0  0  0  0  0  0  0  0  0  0
    9.1996   -5.6700   27.8729 C   0  0  0  0  0  0  0  0  0  0  0  0
    0.5478   -9.3624   16.1217 O   0  0  0  0  0  0  0  0  0  0  0  0
    1.4783   -7.5435   27.3586 C   0  0  0  0  0  0  0  0  0  0  0  0
    8.7021   -6.7902   27.7420 N   0  0  0  0  0  0  0  0  0  0  0  0
    7.0295   -8.3469   27.0853 N   0  0  0  0  0  0  0  0  0  0  0  0
    3.7544   -7.4971   16.2328 C   0  0  0  0  0  0  0  0  0  0  0  0
    2.6239  -10.1622   17.1204 C   0  0  0  0  0  0  0  0  0  0  0  0
    5.4441   -6.1410   26.4824 C   0  0  0  0  0  0  0  0  0  0  0  0
    7.4601   -7.1984   27.1822 C   0  0  0  0  0  0  0  0  0  0  0  0
    0.0669   -5.8455   27.3204 C   0  0  0  0  0  0  0  0  0  0  0  0
    3.4592   -7.6354   26.0069 C   0  0  0  0  0  0  0  0  0  0  0  0
    0.8899   -5.0534   26.4770 He  0  0  0  0  0  0  0  0  0  0  0  0
  1  4  4  0
  1 21  4  0
  2 10  4  0
  2 13  2  0
  2 19  4  0
  3  7  1  0
  3 11  4  0
  3 22  4  0
  4 24  4  0
  4 27  1  0
  5 16  4  0
  5 24  2  0
  5 26  4  0
  6 15  4  0
  6 24  2  0
  7 17  4  0
  8 12  4  0
  8 22  4  0
  8 24  3  0
  9 10  1  0
  9 20  3  0
 10 13  2  0
 10 26  1  0
 11 23  4  0
 12 23  4  0
 12 27  2  0
 13 25  1  0
 14 17  1  0
 15 24  4  0
 15 25  2  0
 16 19  4  0
 16 27  1  0
 17 20  4  0
 18 20  4  0
 18 21  3  0
 19 24  4  0
 19 27  2  0
 20 25  4  0
 21 25  4  0
 23 26  4  0
M  END
$$$$

 Created by Python create_sdf_string function

 28 44  0  0  0  0  0  0  0  0999 V2000
    5.4910   -8.5414   26.5963 C   0  0  0  0  0  0  0  0  0  0  0  0
    0.4131   -6.9999   27.9288 C   0  0  0  0  0  0  0  0  0  0  0  0
    2.3826   -7.9751   15.7629 C   0  0  0  0  0  0  0  0  0  0  0  0
    4.7719   -7.3967   26.5077 C   0  0  0  0  0  0  0  0  0  0  0  0
    1.9300   -5.7225   25.9996 C   0  0  0  0  0  0  0  0  0  0  0  0
    7.0712   -4.6089   27.0261 C   0  0  0  0  0  0  0  0  0  0  0  0
    8.4282   -4.5692   27.5420 C   0  0  0  0  0  0  0  0  0  0  0  0
    0.9314   -5.0838   26.4228 C   0  0  0  0  0  0  0  0  0  0  0  0
    4.3579   -8.3007   16.8709 C   0  0  0  0  0  0  0  0  0  0  0  0
   -1.4760   -3.8009   27.1140 N   0  0  0  0  0  0  0  0  0  0  0  0
   -1.3533   -5.0426   27.6883 C   0  0  0  0  0  0  0  0  0  0  0  0
    1.9236   -9.2020   16.4690 C   0  0  0  0  0  0  0  0  0  0  0  0
    3.9556   -9.7355   17.4038 C   0  0  0  0  0  0  0  0  0  0  0  0
   -2.1789   -5.8083   28.3000 S   0  0  0  0  0  0  0  0  0  0  0  0
   10.5738   -5.4956   28.5665 C   0  0  0  0  0  0  0  0  0  0  0  0
    6.4665   -6.0043   26.9601 C   0  0  0  0  0  0  0  0  0  0  0  0
    2.3395   -6.9363   26.5456 N   0  0  0  0  0  0  0  0  0  0  0  0
    9.2153   -5.5944   27.9928 C   0  0  0  0  0  0  0  0  0  0  0  0
    0.4072   -9.5703   16.3239 O   0  0  0  0  0  0  0  0  0  0  0  0
    1.7233   -7.6874   27.3905 C   0  0  0  0  0  0  0  0  0  0  0  0
    8.7010   -6.7819   27.6180 N   0  0  0  0  0  0  0  0  0  0  0  0
    7.0625   -8.1927   27.2919 N   0  0  0  0  0  0  0  0  0  0  0  0
    3.5465   -7.5362   16.2206 F   0  0  0  0  0  0  0  0  0  0  0  0
    2.6259  -10.1100   17.1372 C   0  0  0  0  0  0  0  0  0  0  0  0
    5.3724   -6.0551   26.4797 C   0  0  0  0  0  0  0  0  0  0  0  0
    7.3538   -7.0564   27.2369 C   0  0  0  0  0  0  0  0  0  0  0  0
    0.0646   -5.7154   27.3169 C   0  0  0  0  0  0  0  0  0  0  0  0
    3.4956   -7.6208   26.0154 C   0  0  0  0  0  0  0  0  0  0  0  0
  1  2  3  0
  1  4  4  0
  1 22  4  0
  2  7  2  0
  2 17  2  0
  2 18  1  0
  2 20  4  0
  2 27  4  0
  3 12  4  0
  3 23  4  0
  4  8  1  0
  4 25  4  0
  4 28  1  0
  5  7  1  0
  5  8  4  0
  5 17  4  0
  6  7  4  0
  6 16  4  0
  6 24  2  0
  7 18  4  0
  7 23  3  0
  8 14  1  0
  8 27  4  0
  9 13  4  0
  9 23  4  0
 10 11  1  0
 10 20  2  0
 11 14  2  0
 11 18  3  0
 11 27  1  0
 12 18  1  0
 12 19  1  0
 12 24  4  0
 12 25  4  0
 13 24  4  0
 15 18  1  0
 15 28  2  0
 16 22  3  0
 16 25  4  0
 16 26  4  0
 17 20  4  0
 17 28  1  0
 18 21  4  0
 22 26  4  0
M  END
$$$$

 Created by Python create_sdf_string function

 28 29  0  0  0  0  0  0  0  0999 V2000
    5.6741   -8.4255   26.7551 C   0  0  0  0  0  0  0  0  0  0  0  0
    0.3693   -6.9963   27.7813 C   0  0  0  0  0  0  0  0  0  0  0  0
    2.2281   -7.9457   15.9537 C   0  0  0  0  0  0  0  0  0  0  0  0
    4.8153   -7.4990   26.3615 C   0  0  0  0  0  0  0  0  0  0  0  0
    2.0328   -5.5635   26.1765 C   0  0  0  0  0  0  0  0  0  0  0  0
    7.2181   -4.6291   27.0591 C   0  0  0  0  0  0  0  0  0  0  0  0
    8.4348   -4.5457   27.6524 C   0  0  0  0  0  0  0  0  0  0  0  0
    0.9362   -5.1081   26.3856 C   0  0  0  0  0  0  0  0  0  0  0  0
   -1.2075   -5.1553   27.7136 C   0  0  0  0  0  0  0  0  0  0  0  0
    1.6012   -9.2454   16.3116 C   0  0  0  0  0  0  0  0  0  0  0  0
    4.1337   -9.4543   17.4763 C   0  0  0  0  0  0  0  0  0  0  0  0
   -2.1708   -5.7534   28.3450 O   0  0  0  0  0  0  0  0  0  0  0  0
   10.5140   -5.4499   28.4850 C   0  0  0  0  0  0  0  0  0  0  0  0
    6.5852   -5.8971   26.9372 C   0  0  0  0  0  0  0  0  0  0  0  0
    2.3820   -7.0470   26.4486 N   0  0  0  0  0  0  0  0  0  0  0  0
    9.1116   -5.6441   27.8195 C   0  0  0  0  0  0  0  0  0  0  0  0
    0.4241   -9.5408   16.3045 O   0  0  0  0  0  0  0  0  0  0  0  0
    1.5811   -7.6977   27.4848 Cl  0  0  0  0  0  0  0  0  0  0  0  0
    8.5504   -6.7865   27.6921 N   0  0  0  0  0  0  0  0  0  0  0  0
    6.8103   -8.3086   27.0356 N   0  0  0  0  0  0  0  0  0  0  0  0
    3.4646   -7.4728   16.1316 C   0  0  0  0  0  0  0  0  0  0  0  0
    2.7317  -10.1228   17.0990 C   0  0  0  0  0  0  0  0  0  0  0  0
    5.2818   -6.1497   26.4297 C   0  0  0  0  0  0  0  0  0  0  0  0
   -0.0748   -5.8552   27.3327 C   0  0  0  0  0  0  0  0  0  0  0  0
    4.4898   -8.2203   17.0398 He  0  0  0  0  0  0  0  0  0  0  0  0
   -1.4722   -3.8844   27.1079 He  0  0  0  0  0  0  0  0  0  0  0  0
    7.4876   -6.9822   27.2683 He  0  0  0  0  0  0  0  0  0  0  0  0
    3.4479   -7.7181   26.0688 He  0  0  0  0  0  0  0  0  0  0  0  0
  1  4  4  0
  1 20  4  0
  2 18  4  0
  2 24  4  0
  3 10  4  0
  3 21  1  0
  4  6  1  0
  4 23  4  0
  5  8  4  0
  5 15  4  0
  6  7  4  0
  7  9  2  0
  7 16  4  0
  7 24  3  0
  8 18  1  0
  8 24  4  0
  9 12  2  0
  9 21  1  0
  9 24  1  0
 10 17  1  0
 10 22  3  0
 11 17  4  0
 11 22  4  0
 12 22  4  0
 13 16  1  0
 14 23  4  0
 15 18  4  0
 16 19  4  0
 19 24  3  0
M  END
$$$$

 Created by Python create_sdf_string function

 28 34  0  0  0  0  0  0  0  0999 V2000
    5.6382   -8.2764   26.7270 C   0  0  0  0  0  0  0  0  0  0  0  0
    0.4424   -6.9561   27.7279 C   0  0  0  0  0  0  0  0  0  0  0  0
    2.3193   -8.0216   15.8843 C   0  0  0  0  0  0  0  0  0  0  0  0
    4.8170   -7.4469   26.3550 C   0  0  0  0  0  0  0  0  0  0  0  0
    2.1257   -5.5918   26.0637 C   0  0  0  0  0  0  0  0  0  0  0  0
    7.0970   -4.7024   26.9621 C   0  0  0  0  0  0  0  0  0  0  0  0
    8.3644   -4.6325   27.4708 C   0  0  0  0  0  0  0  0  0  0  0  0
    0.8979   -5.1665   26.4490 C   0  0  0  0  0  0  0  0  0  0  0  0
    4.4652   -8.3189   16.8495 C   0  0  0  0  0  0  0  0  0  0  0  0
   -1.5074   -3.9597   27.1378 N   0  0  0  0  0  0  0  0  0  0  0  0
   -1.2421   -5.1299   27.7160 N   0  0  0  0  0  0  0  0  0  0  0  0
    1.6660   -9.2796   16.4655 C   0  0  0  0  0  0  0  0  0  0  0  0
    3.8446   -9.5819   17.5447 C   0  0  0  0  0  0  0  0  0  0  0  0
   -2.1316   -5.7871   28.3063 O   0  0  0  0  0  0  0  0  0  0  0  0
   10.3974   -5.4420   28.3622 C   0  0  0  0  0  0  0  0  0  0  0  0
    6.5367   -5.8046   26.8583 C   0  0  0  0  0  0  0  0  0  0  0  0
    2.4369   -7.0053   26.6380 N   0  0  0  0  0  0  0  0  0  0  0  0
    9.1913   -5.5982   27.9101 C   0  0  0  0  0  0  0  0  0  0  0  0
    0.5421   -9.4947   16.2853 O   0  0  0  0  0  0  0  0  0  0  0  0
    1.4202   -7.5008   27.3103 C   0  0  0  0  0  0  0  0  0  0  0  0
    8.4556   -6.8701   27.7333 N   0  0  0  0  0  0  0  0  0  0  0  0
    7.0442   -8.2579   27.2547 F   0  0  0  0  0  0  0  0  0  0  0  0
    3.4400   -7.3650   16.0850 C   0  0  0  0  0  0  0  0  0  0  0  0
    2.6346  -10.0057   17.2016 C   0  0  0  0  0  0  0  0  0  0  0  0
    5.3156   -6.3052   26.4686 C   0  0  0  0  0  0  0  0  0  0  0  0
    7.3908   -6.9049   27.3916 C   0  0  0  0  0  0  0  0  0  0  0  0
    0.0786   -5.7996   27.4291 C   0  0  0  0  0  0  0  0  0  0  0  0
    3.4774   -7.7749   26.1441 C   0  0  0  0  0  0  0  0  0  0  0  0
  1  4  4  0
  2 20  4  0
  2 27  4  0
  3  5  4  0
  3 12  4  0
  3 21  2  0
  3 23  4  0
  4 25  4  0
  4 28  1  0
  5  8  4  0
  5 17  4  0
  6  7  4  0
  6 16  4  0
  7 18  4  0
  8 15  3  0
  8 23  2  0
  8 27  4  0
  9 23  4  0
 10 11  1  0
 11 14  2  0
 11 27  1  0
 12 13  2  0
 12 15  1  0
 12 19  1  0
 12 24  4  0
 13 24  4  0
 15 18  1  0
 16 20  1  0
 16 25  4  0
 16 26  4  0
 17 20  4  0
 17 28  1  0
 21 26  4  0
 22 26  4  0
M  END
$$$$

 Created by Python create_sdf_string function

 28 47  0  0  0  0  0  0  0  0999 V2000
    5.7186   -8.4344   26.7177 C   0  0  0  0  0  0  0  0  0  0  0  0
    0.3146   -7.0524   27.7072 C   0  0  0  0  0  0  0  0  0  0  0  0
    2.1434   -7.8161   15.9376 C   0  0  0  0  0  0  0  0  0  0  0  0
    4.8004   -7.4771   26.5933 C   0  0  0  0  0  0  0  0  0  0  0  0
    2.1369   -5.6982   26.1439 C   0  0  0  0  0  0  0  0  0  0  0  0
    7.1067   -4.6807   26.9126 C   0  0  0  0  0  0  0  0  0  0  0  0
    8.4116   -4.4826   27.4566 C   0  0  0  0  0  0  0  0  0  0  0  0
    0.9394   -5.0814   26.4460 C   0  0  0  0  0  0  0  0  0  0  0  0
    4.5087   -8.2530   16.9179 C   0  0  0  0  0  0  0  0  0  0  0  0
   -1.4019   -3.9459   27.1349 N   0  0  0  0  0  0  0  0  0  0  0  0
   -1.3197   -5.0773   27.7011 C   0  0  0  0  0  0  0  0  0  0  0  0
    1.8514   -9.1052   16.5319 C   0  0  0  0  0  0  0  0  0  0  0  0
    3.9752   -9.5049   17.4325 C   0  0  0  0  0  0  0  0  0  0  0  0
   10.4766   -5.4749   28.3780 C   0  0  0  0  0  0  0  0  0  0  0  0
    6.5732   -5.9069   26.8327 C   0  0  0  0  0  0  0  0  0  0  0  0
    2.3944   -6.9263   26.4881 N   0  0  0  0  0  0  0  0  0  0  0  0
    9.1582   -5.6415   27.8155 C   0  0  0  0  0  0  0  0  0  0  0  0
    0.4582   -9.6308   16.3514 O   0  0  0  0  0  0  0  0  0  0  0  0
    1.5473   -7.5982   27.3948 C   0  0  0  0  0  0  0  0  0  0  0  0
    8.7032   -6.7439   27.7342 N   0  0  0  0  0  0  0  0  0  0  0  0
    6.9718   -8.2964   27.1368 C   0  0  0  0  0  0  0  0  0  0  0  0
    3.5089   -7.4693   16.0457 C   0  0  0  0  0  0  0  0  0  0  0  0
    2.7236   -9.9217   17.3587 C   0  0  0  0  0  0  0  0  0  0  0  0
    5.2512   -6.1038   26.4836 C   0  0  0  0  0  0  0  0  0  0  0  0
    7.4433   -7.0710   27.2983 C   0  0  0  0  0  0  0  0  0  0  0  0
    0.0573   -5.7650   27.3583 C   0  0  0  0  0  0  0  0  0  0  0  0
    3.4493   -7.7124   26.1717 C   0  0  0  0  0  0  0  0  0  0  0  0
   -1.9959   -5.8412   28.3235 He  0  0  0  0  0  0  0  0  0  0  0  0
  1  3  4  0
  1  4  4  0
  1  7  4  0
  1 21  4  0
  2  9  3  0
  2 19  4  0
  2 20  2  0
  2 26  4  0
  3  4  4  0
  3 12  4  0
  3 22  4  0
  4 19  2  0
  4 24  4  0
  4 27  1  0
  5  8  4  0
  5 16  4  0
  5 22  2  0
  5 26  3  0
  6  7  4  0
  6 10  4  0
  6 13  1  0
  6 15  4  0
  7 17  4  0
  7 22  3  0
  8 12  3  0
  8 26  4  0
  9 13  4  0
  9 22  4  0
 10 11  1  0
 11 26  1  0
 12 18  1  0
 12 23  4  0
 13 18  4  0
 13 23  4  0
 14 17  1  0
 15 24  4  0
 15 25  4  0
 16 19  4  0
 16 23  3  0
 16 27  1  0
 17 20  4  0
 18 19  4  0
 18 27  2  0
 19 21  3  0
 20 25  4  0
 21 25  4  0
 25 27  1  0
M  END
$$$$

 Created by Python create_sdf_string function

 28 38  0  0  0  0  0  0  0  0999 V2000
    5.6198   -8.5333   26.6342 C   0  0  0  0  0  0  0  0  0  0  0  0
    0.2847   -7.0127   27.7528 C   0  0  0  0  0  0  0  0  0  0  0  0
    2.1625   -7.8722   15.9211 C   0  0  0  0  0  0  0  0  0  0  0  0
    4.7767   -7.4643   26.4312 C   0  0  0  0  0  0  0  0  0  0  0  0
    2.0819   -5.6526   26.0401 C   0  0  0  0  0  0  0  0  0  0  0  0
    7.1921   -4.6627   27.0306 C   0  0  0  0  0  0  0  0  0  0  0  0
    8.3775   -4.3885   27.4213 C   0  0  0  0  0  0  0  0  0  0  0  0
    0.9847   -5.0548   26.4507 C   0  0  0  0  0  0  0  0  0  0  0  0
    4.3589   -8.1910   16.8337 C   0  0  0  0  0  0  0  0  0  0  0  0
   -1.4490   -3.9877   27.1838 N   0  0  0  0  0  0  0  0  0  0  0  0
   -1.2164   -5.1440   27.6511 C   0  0  0  0  0  0  0  0  0  0  0  0
    1.8054   -9.1239   16.3701 C   0  0  0  0  0  0  0  0  0  0  0  0
    3.8603   -9.5028   17.4799 C   0  0  0  0  0  0  0  0  0  0  0  0
   -2.0405   -5.6915   28.3352 O   0  0  0  0  0  0  0  0  0  0  0  0
   10.4353   -5.5103   28.3741 C   0  0  0  0  0  0  0  0  0  0  0  0
    6.6309   -6.0034   26.8920 C   0  0  0  0  0  0  0  0  0  0  0  0
    2.4777   -6.9556   26.6089 N   0  0  0  0  0  0  0  0  0  0  0  0
    0.4454   -9.5327   16.4784 O   0  0  0  0  0  0  0  0  0  0  0  0
    1.6251   -7.6400   27.2403 C   0  0  0  0  0  0  0  0  0  0  0  0
    8.6006   -6.7410   27.6204 N   0  0  0  0  0  0  0  0  0  0  0  0
    6.9594   -8.2923   27.1507 C   0  0  0  0  0  0  0  0  0  0  0  0
    3.4536   -7.5196   15.9881 C   0  0  0  0  0  0  0  0  0  0  0  0
    2.6813   -9.9432   17.1188 C   0  0  0  0  0  0  0  0  0  0  0  0
    5.2864   -6.1204   26.6231 C   0  0  0  0  0  0  0  0  0  0  0  0
    7.3968   -7.0552   27.2464 C   0  0  0  0  0  0  0  0  0  0  0  0
    0.0438   -5.7477   27.2575 C   0  0  0  0  0  0  0  0  0  0  0  0
    3.4522   -7.7427   26.0985 C   0  0  0  0  0  0  0  0  0  0  0  0
    9.0431   -5.6753   27.8042 He  0  0  0  0  0  0  0  0  0  0  0  0
  1  4  4  0
  1 16  4  0
  1 21  4  0
  2 19  4  0
  2 26  4  0
  3  8  3  0
  3  9  1  0
  3 12  4  0
  3 22  4  0
  4 23  1  0
  4 24  4  0
  4 27  1  0
  5  8  4  0
  5 10  3  0
  5 13  1  0
  5 17  4  0
  6  7  4  0
  6 16  4  0
  7 25  2  0
  8 11  2  0
  8 26  4  0
  9 13  4  0
  9 19  3  0
  9 22  4  0
  9 26  2  0
 10 11  1  0
 11 14  2  0
 11 26  1  0
 12 18  1  0
 12 20  4  0
 12 23  4  0
 13 23  4  0
 16 24  4  0
 16 25  4  0
 17 19  4  0
 17 27  1  0
 20 25  4  0
 21 25  4  0
M  END
$$$$

 Created by Python create_sdf_string function

 28 40  0  0  0  0  0  0  0  0999 V2000
    5.7028   -8.5224   26.6171 C   0  0  0  0  0  0  0  0  0  0  0  0
    0.3581   -7.1440   27.7553 C   0  0  0  0  0  0  0  0  0  0  0  0
    2.2547   -7.9743   15.8988 C   0  0  0  0  0  0  0  0  0  0  0  0
    4.9192   -7.3860   26.4288 C   0  0  0  0  0  0  0  0  0  0  0  0
    2.1140   -5.6595   26.0612 C   0  0  0  0  0  0  0  0  0  0  0  0
    7.0016   -4.7018   27.0680 C   0  0  0  0  0  0  0  0  0  0  0  0
    8.4160   -4.4489   27.2911 C   0  0  0  0  0  0  0  0  0  0  0  0
    0.9510   -5.0586   26.4541 C   0  0  0  0  0  0  0  0  0  0  0  0
    4.3678   -8.2166   16.8658 C   0  0  0  0  0  0  0  0  0  0  0  0
   -1.5110   -4.0019   26.9992 N   0  0  0  0  0  0  0  0  0  0  0  0
   -1.2388   -5.0683   27.5287 C   0  0  0  0  0  0  0  0  0  0  0  0
    1.7442   -8.9823   16.4897 C   0  0  0  0  0  0  0  0  0  0  0  0
    3.9553   -9.4306   17.3111 C   0  0  0  0  0  0  0  0  0  0  0  0
   -2.0805   -5.6922   28.3750 O   0  0  0  0  0  0  0  0  0  0  0  0
   10.4737   -5.4962   28.3009 C   0  0  0  0  0  0  0  0  0  0  0  0
    6.5809   -5.9562   26.8732 C   0  0  0  0  0  0  0  0  0  0  0  0
    2.3239   -6.9326   26.6246 N   0  0  0  0  0  0  0  0  0  0  0  0
    9.0550   -5.5793   27.8618 C   0  0  0  0  0  0  0  0  0  0  0  0
    0.5005   -9.5920   16.4150 O   0  0  0  0  0  0  0  0  0  0  0  0
    1.5279   -7.6906   27.2814 C   0  0  0  0  0  0  0  0  0  0  0  0
    8.6581   -6.7853   27.6670 N   0  0  0  0  0  0  0  0  0  0  0  0
    6.9312   -8.2945   27.1880 C   0  0  0  0  0  0  0  0  0  0  0  0
    3.3879   -7.4564   16.0121 C   0  0  0  0  0  0  0  0  0  0  0  0
    2.7156   -9.9709   17.1632 C   0  0  0  0  0  0  0  0  0  0  0  0
    5.3656   -6.2700   26.5989 C   0  0  0  0  0  0  0  0  0  0  0  0
    7.3732   -7.0832   27.1755 C   0  0  0  0  0  0  0  0  0  0  0  0
   -0.0537   -5.7962   27.2701 C   0  0  0  0  0  0  0  0  0  0  0  0
    3.4996   -7.6933   26.0687 C   0  0  0  0  0  0  0  0  0  0  0  0
  1  4  4  0
  1 12  1  0
  1 19  4  0
  1 22  4  0
  2 20  4  0
  2 27  4  0
  3 12  4  0
  3 14  1  0
  3 23  4  0
  4 25  4  0
  4 28  1  0
  5  8  1  0
  5 17  4  0
  6  7  4  0
  6  8  1  0
  6 10  2  0
  6 16  4  0
  7 18  4  0
  7 28  2  0
  8 27  4  0
  9 13  4  0
  9 16  3  0
  9 23  4  0
 10 11  1  0
 11 14  2  0
 11 27  1  0
 12 19  1  0
 12 24  4  0
 13 24  4  0
 13 26  3  0
 15 18  1  0
 16 25  4  0
 16 26  4  0
 17 20  4  0
 17 28  1  0
 18 21  4  0
 19 24  3  0
 20 27  4  0
 21 26  4  0
 22 26  4  0
M  END
$$$$

 Created by Python create_sdf_string function

 28 35  0  0  0  0  0  0  0  0999 V2000
    5.7293   -8.5684   26.6000 C   0  0  0  0  0  0  0  0  0  0  0  0
    0.2764   -6.9674   27.7404 C   0  0  0  0  0  0  0  0  0  0  0  0
    2.1675   -7.8791   15.8998 C   0  0  0  0  0  0  0  0  0  0  0  0
    4.8179   -7.4718   26.3849 C   0  0  0  0  0  0  0  0  0  0  0  0
    2.1249   -5.7777   26.0348 C   0  0  0  0  0  0  0  0  0  0  0  0
    7.0755   -4.5830   26.9186 C   0  0  0  0  0  0  0  0  0  0  0  0
    8.3275   -4.4683   27.4251 C   0  0  0  0  0  0  0  0  0  0  0  0
    0.9679   -5.0724   26.4110 C   0  0  0  0  0  0  0  0  0  0  0  0
    4.4117   -8.1797   16.7492 C   0  0  0  0  0  0  0  0  0  0  0  0
   -1.2618   -5.1098   27.6406 C   0  0  0  0  0  0  0  0  0  0  0  0
    1.7994   -9.0514   16.4711 C   0  0  0  0  0  0  0  0  0  0  0  0
    4.0523   -9.4939   17.3435 C   0  0  0  0  0  0  0  0  0  0  0  0
   -2.0584   -5.6623   28.4246 O   0  0  0  0  0  0  0  0  0  0  0  0
   10.5704   -5.3769   28.3475 C   0  0  0  0  0  0  0  0  0  0  0  0
    6.6069   -5.9551   27.0218 C   0  0  0  0  0  0  0  0  0  0  0  0
    2.4161   -6.9622   26.5090 N   0  0  0  0  0  0  0  0  0  0  0  0
    9.1455   -5.6912   27.8743 C   0  0  0  0  0  0  0  0  0  0  0  0
    0.4931   -9.5115   16.5399 O   0  0  0  0  0  0  0  0  0  0  0  0
    1.4805   -7.6434   27.3441 C   0  0  0  0  0  0  0  0  0  0  0  0
    8.6024   -6.7501   27.6932 N   0  0  0  0  0  0  0  0  0  0  0  0
    6.9866   -8.2669   27.1156 C   0  0  0  0  0  0  0  0  0  0  0  0
    3.4201   -7.4745   16.0673 C   0  0  0  0  0  0  0  0  0  0  0  0
    2.6609   -9.9115   17.1807 C   0  0  0  0  0  0  0  0  0  0  0  0
    5.3563   -6.1368   26.6744 C   0  0  0  0  0  0  0  0  0  0  0  0
    7.6026   -7.0070   27.2765 C   0  0  0  0  0  0  0  0  0  0  0  0
    0.0242   -5.7526   27.2314 C   0  0  0  0  0  0  0  0  0  0  0  0
    3.4937   -7.7588   26.0106 C   0  0  0  0  0  0  0  0  0  0  0  0
   -1.5212   -3.9643   26.9695 He  0  0  0  0  0  0  0  0  0  0  0  0
  1  4  4  0
  1 21  4  0
  2 13  4  0
  2 17  3  0
  2 19  4  0
  2 26  4  0
  3 11  4  0
  3 12  2  0
  3 22  4  0
  4 24  4  0
  4 27  1  0
  5  8  4  0
  5 16  4  0
  6  7  4  0
  6 15  4  0
  7 17  4  0
  8 26  4  0
  9 12  4  0
  9 22  4  0
  9 25  1  0
 10 19  3  0
 10 26  1  0
 10 27  2  0
 11 18  1  0
 11 23  4  0
 12 13  4  0
 12 23  4  0
 14 17  1  0
 15 24  4  0
 15 25  4  0
 16 19  4  0
 16 27  1  0
 17 20  4  0
 20 25  4  0
 21 25  4  0
M  END
$$$$

 Created by Python create_sdf_string function

 28 41  0  0  0  0  0  0  0  0999 V2000
    5.7108   -8.5218   26.7371 C   0  0  0  0  0  0  0  0  0  0  0  0
    0.3050   -6.9771   27.6951 C   0  0  0  0  0  0  0  0  0  0  0  0
    2.1816   -7.9305   15.8430 C   0  0  0  0  0  0  0  0  0  0  0  0
    4.9131   -7.4386   26.4307 O   0  0  0  0  0  0  0  0  0  0  0  0
    2.1050   -5.6412   26.0723 C   0  0  0  0  0  0  0  0  0  0  0  0
    7.1154   -4.6606   26.9993 C   0  0  0  0  0  0  0  0  0  0  0  0
    8.3360   -4.5265   27.3773 C   0  0  0  0  0  0  0  0  0  0  0  0
    0.9589   -5.0862   26.3314 C   0  0  0  0  0  0  0  0  0  0  0  0
    4.3789   -8.1743   16.7981 C   0  0  0  0  0  0  0  0  0  0  0  0
   -1.5835   -4.0446   27.0606 N   0  0  0  0  0  0  0  0  0  0  0  0
   -1.3001   -4.9372   27.5575 C   0  0  0  0  0  0  0  0  0  0  0  0
    1.8737   -8.9821   16.5207 C   0  0  0  0  0  0  0  0  0  0  0  0
    4.0562   -9.4196   17.2745 C   0  0  0  0  0  0  0  0  0  0  0  0
   -1.9866   -5.6060   28.3462 O   0  0  0  0  0  0  0  0  0  0  0  0
   10.5376   -5.2406   28.3305 C   0  0  0  0  0  0  0  0  0  0  0  0
    6.6640   -5.9512   26.9590 C   0  0  0  0  0  0  0  0  0  0  0  0
    2.4980   -6.9652   26.5411 N   0  0  0  0  0  0  0  0  0  0  0  0
    9.1273   -5.5460   27.8304 C   0  0  0  0  0  0  0  0  0  0  0  0
    0.5022   -9.4715   16.4671 O   0  0  0  0  0  0  0  0  0  0  0  0
    1.5125   -7.6125   27.3156 C   0  0  0  0  0  0  0  0  0  0  0  0
    8.7613   -6.8270   27.7028 N   0  0  0  0  0  0  0  0  0  0  0  0
    7.1054   -8.2992   27.0982 C   0  0  0  0  0  0  0  0  0  0  0  0
    3.4239   -7.4365   16.0888 C   0  0  0  0  0  0  0  0  0  0  0  0
    2.7470   -9.9448   17.1620 C   0  0  0  0  0  0  0  0  0  0  0  0
    5.3236   -6.2274   26.5857 C   0  0  0  0  0  0  0  0  0  0  0  0
    7.4576   -7.0070   27.2780 C   0  0  0  0  0  0  0  0  0  0  0  0
    0.0777   -5.6300   27.2678 C   0  0  0  0  0  0  0  0  0  0  0  0
    3.4173   -7.7128   26.0721 C   0  0  0  0  0  0  0  0  0  0  0  0
  1  4  4  0
  1  6  3  0
  1  9  1  0
  1 22  4  0
  2 20  4  0
  2 27  4  0
  3 12  4  0
  3 23  4  0
  4 22  3  0
  4 25  4  0
  4 28  1  0
  5  8  4  0
  5 17  4  0
  6  7  4  0
  6 16  4  0
  7 11  1  0
  7 18  4  0
  8 27  4  0
  9 13  4  0
  9 23  4  0
 10 11  1  0
 10 28  1  0
 11 14  2  0
 11 27  1  0
 12 17  1  0
 12 19  1  0
 12 24  4  0
 13 17  1  0
 13 24  4  0
 14 15  3  0
 14 19  1  0
 14 28  4  0
 15 18  1  0
 16 25  4  0
 16 26  4  0
 17 20  4  0
 17 28  1  0
 18 21  4  0
 20 22  3  0
 21 26  4  0
 22 26  4  0
M  END
$$$$

 Created by Python create_sdf_string function

 28 30  0  0  0  0  0  0  0  0999 V2000
    5.7113   -8.4229   26.7007 C   0  0  0  0  0  0  0  0  0  0  0  0
    0.3027   -6.8596   27.6857 C   0  0  0  0  0  0  0  0  0  0  0  0
    2.2632   -7.9016   15.8598 C   0  0  0  0  0  0  0  0  0  0  0  0
    4.8503   -7.4338   26.4736 C   0  0  0  0  0  0  0  0  0  0  0  0
    2.1403   -5.6768   26.0756 C   0  0  0  0  0  0  0  0  0  0  0  0
    7.0643   -4.6068   26.9728 C   0  0  0  0  0  0  0  0  0  0  0  0
    8.3880   -4.4661   27.4563 C   0  0  0  0  0  0  0  0  0  0  0  0
    0.9061   -5.0645   26.4018 C   0  0  0  0  0  0  0  0  0  0  0  0
   -1.4473   -3.9072   26.9952 O   0  0  0  0  0  0  0  0  0  0  0  0
   -1.2565   -5.0036   27.6367 C   0  0  0  0  0  0  0  0  0  0  0  0
    1.8761   -9.0789   16.5618 P   0  0  0  0  0  0  0  0  0  0  0  0
    4.1054   -9.4366   17.2681 C   0  0  0  0  0  0  0  0  0  0  0  0
   -1.9867   -5.6188   28.3745 O   0  0  0  0  0  0  0  0  0  0  0  0
   10.5188   -5.2312   28.3638 C   0  0  0  0  0  0  0  0  0  0  0  0
    6.6080   -5.9648   26.8900 C   0  0  0  0  0  0  0  0  0  0  0  0
    2.4409   -6.9908   26.4855 N   0  0  0  0  0  0  0  0  0  0  0  0
    9.1515   -5.5320   27.8751 C   0  0  0  0  0  0  0  0  0  0  0  0
    0.4916   -9.4783   16.5513 O   0  0  0  0  0  0  0  0  0  0  0  0
    1.4893   -7.6943   27.3048 C   0  0  0  0  0  0  0  0  0  0  0  0
    8.7894   -6.7477   27.7651 N   0  0  0  0  0  0  0  0  0  0  0  0
    7.0136   -8.3148   27.1368 C   0  0  0  0  0  0  0  0  0  0  0  0
    3.5528   -7.4051   16.0380 C   0  0  0  0  0  0  0  0  0  0  0  0
    2.7952   -9.9175   17.1342 C   0  0  0  0  0  0  0  0  0  0  0  0
    5.3229   -6.2121   26.5196 C   0  0  0  0  0  0  0  0  0  0  0  0
    7.4695   -7.0493   27.2233 C   0  0  0  0  0  0  0  0  0  0  0  0
    0.0234   -5.6938   27.2402 C   0  0  0  0  0  0  0  0  0  0  0  0
    3.5261   -7.7661   26.0202 C   0  0  0  0  0  0  0  0  0  0  0  0
    4.5344   -8.1522   16.7559 He  0  0  0  0  0  0  0  0  0  0  0  0
  1  4  4  0
  1 19  4  0
  1 21  1  0
  2 19  4  0
  3 11  4  0
  3 22  4  0
  4 24  4  0
  4 27  1  0
  5  8  4  0
  5 16  4  0
  6  7  4  0
  6 15  4  0
  7 17  4  0
  8 26  4  0
  9 10  1  0
 10 13  2  0
 10 26  1  0
 11 18  1  0
 11 23  4  0
 12 23  4  0
 13 14  3  0
 14 17  1  0
 15 24  4  0
 15 25  4  0
 16 19  4  0
 16 27  1  0
 17 20  4  0
 20 25  4  0
 21 25  4  0
 22 26  4  0
M  END
$$$$

 Created by Python create_sdf_string function

 28 37  0  0  0  0  0  0  0  0999 V2000
    5.6814   -8.4939   26.7385 C   0  0  0  0  0  0  0  0  0  0  0  0
    0.2682   -6.8801   27.6645 C   0  0  0  0  0  0  0  0  0  0  0  0
    2.2395   -7.7905   15.8934 C   0  0  0  0  0  0  0  0  0  0  0  0
    4.8760   -7.3959   26.3628 C   0  0  0  0  0  0  0  0  0  0  0  0
    2.1516   -5.6949   26.0533 C   0  0  0  0  0  0  0  0  0  0  0  0
    7.0798   -4.7244   27.0233 C   0  0  0  0  0  0  0  0  0  0  0  0
    8.3945   -4.4349   27.4802 C   0  0  0  0  0  0  0  0  0  0  0  0
    0.9381   -5.0344   26.4265 C   0  0  0  0  0  0  0  0  0  0  0  0
    4.5294   -8.1599   16.7856 C   0  0  0  0  0  0  0  0  0  0  0  0
   -1.4900   -3.8777   26.9946 O   0  0  0  0  0  0  0  0  0  0  0  0
   -1.1968   -5.0323   27.5623 C   0  0  0  0  0  0  0  0  0  0  0  0
    1.8838   -9.0617   16.5426 C   0  0  0  0  0  0  0  0  0  0  0  0
    4.1518   -9.4875   17.1793 C   0  0  0  0  0  0  0  0  0  0  0  0
   -1.9458   -5.5623   28.4072 O   0  0  0  0  0  0  0  0  0  0  0  0
   10.4753   -5.2461   28.3136 C   0  0  0  0  0  0  0  0  0  0  0  0
    6.5920   -5.9108   26.9279 C   0  0  0  0  0  0  0  0  0  0  0  0
    2.4234   -7.0067   26.5095 N   0  0  0  0  0  0  0  0  0  0  0  0
    9.1884   -5.5274   27.8611 C   0  0  0  0  0  0  0  0  0  0  0  0
    0.6019   -9.4471   16.5212 O   0  0  0  0  0  0  0  0  0  0  0  0
    1.4851   -7.5882   27.2658 C   0  0  0  0  0  0  0  0  0  0  0  0
    8.6882   -6.7229   27.7070 N   0  0  0  0  0  0  0  0  0  0  0  0
    7.0068   -8.2529   27.0824 C   0  0  0  0  0  0  0  0  0  0  0  0
    3.5610   -7.4855   16.0445 C   0  0  0  0  0  0  0  0  0  0  0  0
    2.7283   -9.8345   17.2059 C   0  0  0  0  0  0  0  0  0  0  0  0
    5.3220   -6.2624   26.5159 C   0  0  0  0  0  0  0  0  0  0  0  0
    7.5054   -6.9788   27.3128 C   0  0  0  0  0  0  0  0  0  0  0  0
    0.1105   -5.7838   27.1854 C   0  0  0  0  0  0  0  0  0  0  0  0
    3.5254   -7.6858   26.0457 C   0  0  0  0  0  0  0  0  0  0  0  0
  1  4  4  0
  1 22  4  0
  2 20  4  0
  2 27  4  0
  3 12  4  0
  3 23  4  0
  4 15  2  0
  4 25  4  0
  4 28  1  0
  5  8  4  0
  5 17  4  0
  6  7  4  0
  6 16  4  0
  7 18  4  0
  8 27  4  0
  9 13  4  0
  9 14  4  0
  9 23  4  0
 10 11  1  0
 11 14  2  0
 11 21  4  0
 11 22  3  0
 11 27  1  0
 12 19  1  0
 12 24  4  0
 13 24  4  0
 15 18  1  0
 16 25  4  0
 16 26  4  0
 17 20  4  0
 17 28  1  0
 18 21  4  0
 21 23  3  0
 21 26  4  0
 21 28  4  0
 22 26  4  0
 25 26  2  0
M  END
$$$$

 Created by Python create_sdf_string function

 28 32  0  0  0  0  0  0  0  0999 V2000
    5.6491   -8.4506   26.6127 C   0  0  0  0  0  0  0  0  0  0  0  0
    0.3462   -7.0084   27.6306 C   0  0  0  0  0  0  0  0  0  0  0  0
    2.3361   -7.8495   15.9599 C   0  0  0  0  0  0  0  0  0  0  0  0
    4.8053   -7.4866   26.4883 C   0  0  0  0  0  0  0  0  0  0  0  0
    2.1464   -5.6539   26.0833 F   0  0  0  0  0  0  0  0  0  0  0  0
    7.1429   -4.6669   27.0195 C   0  0  0  0  0  0  0  0  0  0  0  0
    8.3979   -4.4409   27.4853 C   0  0  0  0  0  0  0  0  0  0  0  0
    4.5393   -8.2061   16.7237 C   0  0  0  0  0  0  0  0  0  0  0  0
   -1.4674   -3.9189   27.0645 Cl  0  0  0  0  0  0  0  0  0  0  0  0
   -1.1556   -5.0466   27.5969 C   0  0  0  0  0  0  0  0  0  0  0  0
    1.9190   -8.9745   16.5816 C   0  0  0  0  0  0  0  0  0  0  0  0
    4.1125   -9.4911   17.2506 C   0  0  0  0  0  0  0  0  0  0  0  0
   -1.9922   -5.5273   28.3715 O   0  0  0  0  0  0  0  0  0  0  0  0
   10.4278   -5.2354   28.3396 C   0  0  0  0  0  0  0  0  0  0  0  0
    6.6002   -5.8972   26.9898 C   0  0  0  0  0  0  0  0  0  0  0  0
    2.4011   -7.0013   26.4242 N   0  0  0  0  0  0  0  0  0  0  0  0
    9.1723   -5.4822   27.8377 C   0  0  0  0  0  0  0  0  0  0  0  0
    0.6136   -9.4407   16.5216 O   0  0  0  0  0  0  0  0  0  0  0  0
    1.4064   -7.5697   27.3225 C   0  0  0  0  0  0  0  0  0  0  0  0
    8.6913   -6.7121   27.7374 N   0  0  0  0  0  0  0  0  0  0  0  0
    7.0429   -8.2876   27.1616 C   0  0  0  0  0  0  0  0  0  0  0  0
    3.5692   -7.4476   16.0616 C   0  0  0  0  0  0  0  0  0  0  0  0
    2.7547   -9.8378   17.2083 C   0  0  0  0  0  0  0  0  0  0  0  0
    5.3712   -6.1216   26.5437 C   0  0  0  0  0  0  0  0  0  0  0  0
    7.4474   -6.9708   27.3458 C   0  0  0  0  0  0  0  0  0  0  0  0
    0.1099   -5.7314   27.1384 C   0  0  0  0  0  0  0  0  0  0  0  0
    3.4538   -7.7126   25.9623 C   0  0  0  0  0  0  0  0  0  0  0  0
    0.9708   -5.0505   26.3752 He  0  0  0  0  0  0  0  0  0  0  0  0
  1  4  4  0
  1 21  4  0
  2 17  2  0
  2 19  4  0
  2 26  4  0
  3 11  4  0
  3 22  4  0
  4 24  4  0
  4 27  1  0
  5 16  1  0
  6  7  4  0
  6 15  4  0
  7 17  4  0
  8 12  4  0
  8 22  4  0
  9 10  1  0
 10 26  1  0
 11 18  1  0
 11 23  4  0
 12 23  4  0
 14 17  1  0
 14 21  1  0
 15 17  2  0
 15 24  4  0
 15 25  4  0
 16 19  4  0
 16 27  1  0
 17 19  4  0
 17 20  4  0
 19 23  2  0
 20 25  4  0
 21 25  4  0
M  END
$$$$

 Created by Python create_sdf_string function

 28 32  0  0  0  0  0  0  0  0999 V2000
    5.6705   -8.4675   26.6668 C   0  0  0  0  0  0  0  0  0  0  0  0
    0.3668   -6.9762   27.6107 C   0  0  0  0  0  0  0  0  0  0  0  0
    2.2460   -7.7364   16.0036 C   0  0  0  0  0  0  0  0  0  0  0  0
    4.8575   -7.3773   26.4171 C   0  0  0  0  0  0  0  0  0  0  0  0
    2.1197   -5.6876   26.0134 C   0  0  0  0  0  0  0  0  0  0  0  0
    7.1646   -4.6358   26.9945 C   0  0  0  0  0  0  0  0  0  0  0  0
    8.3298   -4.4214   27.4812 C   0  0  0  0  0  0  0  0  0  0  0  0
    1.0544   -4.9645   26.3632 C   0  0  0  0  0  0  0  0  0  0  0  0
    4.5703   -8.2272   16.6628 C   0  0  0  0  0  0  0  0  0  0  0  0
   -1.3355   -3.9019   26.9997 O   0  0  0  0  0  0  0  0  0  0  0  0
   -1.1415   -4.9588   27.6078 C   0  0  0  0  0  0  0  0  0  0  0  0
    1.9046   -9.0140   16.5713 C   0  0  0  0  0  0  0  0  0  0  0  0
    4.1794   -9.3842   17.3095 C   0  0  0  0  0  0  0  0  0  0  0  0
   -1.9846   -5.6036   28.3511 O   0  0  0  0  0  0  0  0  0  0  0  0
   10.4512   -5.2334   28.3880 C   0  0  0  0  0  0  0  0  0  0  0  0
    6.5346   -5.9316   26.9241 C   0  0  0  0  0  0  0  0  0  0  0  0
    2.4277   -7.0104   26.4746 N   0  0  0  0  0  0  0  0  0  0  0  0
    9.1062   -5.4920   27.7747 C   0  0  0  0  0  0  0  0  0  0  0  0
    0.6091   -9.4376   16.5423 O   0  0  0  0  0  0  0  0  0  0  0  0
    1.4408   -7.5745   27.2408 C   0  0  0  0  0  0  0  0  0  0  0  0
    8.6900   -6.6501   27.7684 N   0  0  0  0  0  0  0  0  0  0  0  0
    7.0190   -8.2940   27.1960 C   0  0  0  0  0  0  0  0  0  0  0  0
    3.5700   -7.4228   16.0823 C   0  0  0  0  0  0  0  0  0  0  0  0
    2.8248   -9.8451   17.1653 C   0  0  0  0  0  0  0  0  0  0  0  0
    5.2762   -6.1399   26.5656 C   0  0  0  0  0  0  0  0  0  0  0  0
    7.4791   -6.9054   27.3154 C   0  0  0  0  0  0  0  0  0  0  0  0
    0.0866   -5.7091   27.1900 C   0  0  0  0  0  0  0  0  0  0  0  0
    3.5132   -7.7322   25.9422 C   0  0  0  0  0  0  0  0  0  0  0  0
  1  4  4  0
  1 19  2  0
  1 22  4  0
  2 20  4  0
  2 27  4  0
  3 12  4  0
  3 23  4  0
  4 25  4  0
  4 28  1  0
  5  8  4  0
  5 17  4  0
  6  7  4  0
  6 16  4  0
  7 18  4  0
  7 20  1  0
  8 27  4  0
  9 13  4  0
  9 23  4  0
 10 11  1  0
 11 14  2  0
 11 27  1  0
 12 19  1  0
 12 24  4  0
 15 18  1  0
 15 19  2  0
 16 25  4  0
 16 26  4  0
 17 20  4  0
 17 28  1  0
 18 21  4  0
 21 26  4  0
 22 26  4  0
M  END
$$$$

 Created by Python create_sdf_string function

 28 29  0  0  0  0  0  0  0  0999 V2000
    5.6802   -8.4857   26.7164 C   0  0  0  0  0  0  0  0  0  0  0  0
    0.3463   -7.0033   27.6275 C   0  0  0  0  0  0  0  0  0  0  0  0
    2.2250   -7.7556   15.9849 C   0  0  0  0  0  0  0  0  0  0  0  0
    4.8237   -7.4463   26.4052 C   0  0  0  0  0  0  0  0  0  0  0  0
    2.1839   -5.6916   26.0625 C   0  0  0  0  0  0  0  0  0  0  0  0
    7.0826   -4.5668   27.0155 C   0  0  0  0  0  0  0  0  0  0  0  0
    8.3544   -4.4328   27.4744 C   0  0  0  0  0  0  0  0  0  0  0  0
    1.0310   -5.0046   26.3818 C   0  0  0  0  0  0  0  0  0  0  0  0
    4.6023   -8.1625   16.6439 C   0  0  0  0  0  0  0  0  0  0  0  0
   -1.3483   -3.9018   26.9930 O   0  0  0  0  0  0  0  0  0  0  0  0
   -1.0768   -5.0256   27.5176 C   0  0  0  0  0  0  0  0  0  0  0  0
    1.9537   -8.9914   16.5772 C   0  0  0  0  0  0  0  0  0  0  0  0
    4.1838   -9.4291   17.3085 C   0  0  0  0  0  0  0  0  0  0  0  0
   -1.9449   -5.5328   28.2968 O   0  0  0  0  0  0  0  0  0  0  0  0
   10.4557   -5.2242   28.3800 C   0  0  0  0  0  0  0  0  0  0  0  0
    6.5594   -5.9470   26.9035 C   0  0  0  0  0  0  0  0  0  0  0  0
    2.4589   -7.0065   26.4338 N   0  0  0  0  0  0  0  0  0  0  0  0
    9.1736   -5.4464   27.8504 C   0  0  0  0  0  0  0  0  0  0  0  0
    0.6530   -9.4326   16.5388 O   0  0  0  0  0  0  0  0  0  0  0  0
    1.5566   -7.6118   27.1770 C   0  0  0  0  0  0  0  0  0  0  0  0
    7.0092   -8.3182   27.1880 C   0  0  0  0  0  0  0  0  0  0  0  0
    3.6213   -7.3643   16.0662 C   0  0  0  0  0  0  0  0  0  0  0  0
    2.8871   -9.8330   17.2067 C   0  0  0  0  0  0  0  0  0  0  0  0
    5.3377   -6.2381   26.5283 C   0  0  0  0  0  0  0  0  0  0  0  0
    7.4617   -6.9460   27.3098 C   0  0  0  0  0  0  0  0  0  0  0  0
    0.0585   -5.6652   27.1771 C   0  0  0  0  0  0  0  0  0  0  0  0
    3.5192   -7.6920   25.9952 C   0  0  0  0  0  0  0  0  0  0  0  0
    8.6331   -6.6913   27.7757 He  0  0  0  0  0  0  0  0  0  0  0  0
  1  4  4  0
  1 21  4  0
  2 20  4  0
  2 26  4  0
  3 12  4  0
  3 22  4  0
  4 24  4  0
  4 27  1  0
  5  8  4  0
  6  7  4  0
  6 12  1  0
  6 16  4  0
  7 18  4  0
  8  9  2  0
  8 26  4  0
  9 13  4  0
  9 22  4  0
 10 11  1  0
 11 14  2  0
 11 26  1  0
 12 19  1  0
 12 23  4  0
 13 23  4  0
 15 18  1  0
 16 24  4  0
 16 25  4  0
 17 20  4  0
 17 27  1  0
 21 25  4  0
M  END
$$$$

 Created by Python create_sdf_string function

 28 31  0  0  0  0  0  0  0  0999 V2000
    5.6822   -8.4518   26.7338 C   0  0  0  0  0  0  0  0  0  0  0  0
    0.3397   -7.0956   27.5892 C   0  0  0  0  0  0  0  0  0  0  0  0
    2.2997   -7.7751   16.0078 C   0  0  0  0  0  0  0  0  0  0  0  0
    4.8467   -7.4305   26.4320 C   0  0  0  0  0  0  0  0  0  0  0  0
    2.1951   -5.6738   26.0566 C   0  0  0  0  0  0  0  0  0  0  0  0
    7.0563   -4.5758   26.9973 C   0  0  0  0  0  0  0  0  0  0  0  0
    8.3335   -4.3728   27.4295 C   0  0  0  0  0  0  0  0  0  0  0  0
    1.0519   -4.9749   26.3563 C   0  0  0  0  0  0  0  0  0  0  0  0
    4.6335   -8.1508   16.7062 C   0  0  0  0  0  0  0  0  0  0  0  0
   -1.3192   -3.8779   26.9859 F   0  0  0  0  0  0  0  0  0  0  0  0
   -1.1371   -5.0084   27.5229 C   0  0  0  0  0  0  0  0  0  0  0  0
    1.9849   -8.9984   16.5625 C   0  0  0  0  0  0  0  0  0  0  0  0
    4.2273   -9.4007   17.2768 C   0  0  0  0  0  0  0  0  0  0  0  0
   -1.9186   -5.5688   28.2591 O   0  0  0  0  0  0  0  0  0  0  0  0
   10.4840   -5.1945   28.3475 C   0  0  0  0  0  0  0  0  0  0  0  0
    6.6455   -5.9151   26.9582 C   0  0  0  0  0  0  0  0  0  0  0  0
    2.3871   -6.9897   26.4469 N   0  0  0  0  0  0  0  0  0  0  0  0
    9.1428   -5.4566   27.8739 C   0  0  0  0  0  0  0  0  0  0  0  0
    0.7062   -9.4283   16.5895 O   0  0  0  0  0  0  0  0  0  0  0  0
    1.5342   -7.6235   27.1818 C   0  0  0  0  0  0  0  0  0  0  0  0
    8.7204   -6.7072   27.8009 N   0  0  0  0  0  0  0  0  0  0  0  0
    6.9670   -8.2893   27.1835 C   0  0  0  0  0  0  0  0  0  0  0  0
    3.6387   -7.3329   16.0301 C   0  0  0  0  0  0  0  0  0  0  0  0
    2.9249   -9.7623   17.1496 C   0  0  0  0  0  0  0  0  0  0  0  0
    5.3567   -6.1968   26.5646 C   0  0  0  0  0  0  0  0  0  0  0  0
    7.4700   -6.9447   27.2671 C   0  0  0  0  0  0  0  0  0  0  0  0
    0.0784   -5.6823   27.1719 C   0  0  0  0  0  0  0  0  0  0  0  0
    3.5186   -7.7513   25.9444 C   0  0  0  0  0  0  0  0  0  0  0  0
  1  4  4  0
  1 22  4  0
  1 25  2  0
  2 20  4  0
  2 27  4  0
  3 12  4  0
  3 23  4  0
  4 25  4  0
  4 28  1  0
  5  7  4  0
  5  8  4  0
  5 17  4  0
  6  7  4  0
  6 16  4  0
  7 18  4  0
  7 25  2  0
  8 27  4  0
  9 13  4  0
  9 23  4  0
 10 11  1  0
 11 14  2  0
 11 27  1  0
 12 19  1  0
 12 24  4  0
 15 18  1  0
 16 26  4  0
 17 20  4  0
 17 28  1  0
 18 21  4  0
 21 26  4  0
 22 26  4  0
M  END
$$$$

 Created by Python create_sdf_string function

 28 33  0  0  0  0  0  0  0  0999 V2000
    5.6654   -8.4208   26.7516 C   0  0  0  0  0  0  0  0  0  0  0  0
    0.3443   -7.0704   27.5751 C   0  0  0  0  0  0  0  0  0  0  0  0
    2.3506   -7.7537   15.9724 C   0  0  0  0  0  0  0  0  0  0  0  0
    4.8357   -7.4307   26.4433 C   0  0  0  0  0  0  0  0  0  0  0  0
    2.2029   -5.6657   26.0476 C   0  0  0  0  0  0  0  0  0  0  0  0
    7.0626   -4.6120   27.0014 C   0  0  0  0  0  0  0  0  0  0  0  0
    8.3565   -4.4099   27.4707 C   0  0  0  0  0  0  0  0  0  0  0  0
    1.0733   -5.0118   26.3809 C   0  0  0  0  0  0  0  0  0  0  0  0
    4.6712   -8.1242   16.6635 C   0  0  0  0  0  0  0  0  0  0  0  0
   -1.2881   -3.8929   26.9519 O   0  0  0  0  0  0  0  0  0  0  0  0
   -1.1134   -5.0526   27.4824 C   0  0  0  0  0  0  0  0  0  0  0  0
    2.0152   -8.9728   16.5773 C   0  0  0  0  0  0  0  0  0  0  0  0
    4.2835   -9.3583   17.2711 C   0  0  0  0  0  0  0  0  0  0  0  0
   -1.9065   -5.5342   28.2452 O   0  0  0  0  0  0  0  0  0  0  0  0
   10.4073   -5.1941   28.3184 C   0  0  0  0  0  0  0  0  0  0  0  0
    6.5721   -5.9173   26.9337 C   0  0  0  0  0  0  0  0  0  0  0  0
    2.4087   -6.9904   26.4227 N   0  0  0  0  0  0  0  0  0  0  0  0
    9.1648   -5.4495   27.8742 C   0  0  0  0  0  0  0  0  0  0  0  0
    0.8054   -9.4166   16.6054 O   0  0  0  0  0  0  0  0  0  0  0  0
    1.4800   -7.6164   27.1936 C   0  0  0  0  0  0  0  0  0  0  0  0
    8.6866   -6.6896   27.7958 N   0  0  0  0  0  0  0  0  0  0  0  0
    7.0000   -8.2714   27.2122 C   0  0  0  0  0  0  0  0  0  0  0  0
    3.6415   -7.2999   16.0414 C   0  0  0  0  0  0  0  0  0  0  0  0
    2.9771   -9.7676   17.1957 C   0  0  0  0  0  0  0  0  0  0  0  0
    5.3496   -6.2394   26.5299 C   0  0  0  0  0  0  0  0  0  0  0  0
    7.4425   -7.0025   27.3176 C   0  0  0  0  0  0  0  0  0  0  0  0
    0.1049   -5.6924   27.1784 C   0  0  0  0  0  0  0  0  0  0  0  0
    3.4984   -7.7123   25.9651 C   0  0  0  0  0  0  0  0  0  0  0  0
  1  4  4  0
  1 22  4  0
  2  4  3  0
  2 20  4  0
  2 25  3  0
  2 27  4  0
  3  5  4  0
  3 12  4  0
  3 23  4  0
  4 25  4  0
  4 28  1  0
  5  8  4  0
  5 17  4  0
  6  7  4  0
  6 16  4  0
  7 18  4  0
  9 13  4  0
  9 23  4  0
 10 11  1  0
 11 14  2  0
 11 18  4  0
 11 27  1  0
 12 19  1  0
 12 24  4  0
 13 24  4  0
 14 20  2  0
 15 18  1  0
 16 25  4  0
 16 26  4  0
 17 20  4  0
 17 28  1  0
 18 21  4  0
 22 26  4  0
M  END
$$$$

 Created by Python create_sdf_string function

 28 31  0  0  0  0  0  0  0  0999 V2000
    5.6951   -8.4397   26.7384 C   0  0  0  0  0  0  0  0  0  0  0  0
    0.3725   -7.0569   27.5694 C   0  0  0  0  0  0  0  0  0  0  0  0
    2.3630   -7.7129   15.9899 C   0  0  0  0  0  0  0  0  0  0  0  0
    4.8865   -7.4127   26.4176 C   0  0  0  0  0  0  0  0  0  0  0  0
    2.2065   -5.6858   26.0275 C   0  0  0  0  0  0  0  0  0  0  0  0
    7.0667   -4.6293   26.9839 C   0  0  0  0  0  0  0  0  0  0  0  0
    8.3314   -4.3543   27.4729 C   0  0  0  0  0  0  0  0  0  0  0  0
    1.0775   -5.0297   26.3905 C   0  0  0  0  0  0  0  0  0  0  0  0
    4.7018   -8.1061   16.6704 C   0  0  0  0  0  0  0  0  0  0  0  0
   -1.2750   -3.9109   26.9497 O   0  0  0  0  0  0  0  0  0  0  0  0
   -1.1227   -5.0556   27.5079 C   0  0  0  0  0  0  0  0  0  0  0  0
    2.0752   -8.9974   16.6194 C   0  0  0  0  0  0  0  0  0  0  0  0
    4.3177   -9.3570   17.2746 C   0  0  0  0  0  0  0  0  0  0  0  0
   -1.9074   -5.5608   28.2747 O   0  0  0  0  0  0  0  0  0  0  0  0
   10.4020   -5.1615   28.3016 C   0  0  0  0  0  0  0  0  0  0  0  0
    6.5708   -5.8760   26.9591 C   0  0  0  0  0  0  0  0  0  0  0  0
    2.4520   -6.9919   26.4019 N   0  0  0  0  0  0  0  0  0  0  0  0
    9.1572   -5.4390   27.8429 C   0  0  0  0  0  0  0  0  0  0  0  0
    0.7960   -9.3976   16.5951 O   0  0  0  0  0  0  0  0  0  0  0  0
    1.4568   -7.6416   27.1774 C   0  0  0  0  0  0  0  0  0  0  0  0
    8.6941   -6.7146   27.7520 N   0  0  0  0  0  0  0  0  0  0  0  0
    6.9562   -8.2710   27.2266 C   0  0  0  0  0  0  0  0  0  0  0  0
    3.6932   -7.3147   16.0257 C   0  0  0  0  0  0  0  0  0  0  0  0
    3.0029   -9.7715   17.2260 C   0  0  0  0  0  0  0  0  0  0  0  0
    5.3489   -6.1866   26.5120 C   0  0  0  0  0  0  0  0  0  0  0  0
    7.4708   -6.9322   27.3045 C   0  0  0  0  0  0  0  0  0  0  0  0
    0.1303   -5.7225   27.1834 C   0  0  0  0  0  0  0  0  0  0  0  0
    3.4992   -7.6985   25.9789 He  0  0  0  0  0  0  0  0  0  0  0  0
  1  4  4  0
  1 22  4  0
  2 20  4  0
  2 27  4  0
  3 12  4  0
  3 23  4  0
  4 16  3  0
  4 25  4  0
  5  8  4  0
  5 17  4  0
  6  7  4  0
  6 16  4  0
  7 15  1  0
  7 18  4  0
  8 27  4  0
  9 13  4  0
  9 23  4  0
 10 11  1  0
 11 14  2  0
 11 27  1  0
 12 19  1  0
 12 24  4  0
 13 24  4  0
 14 26  4  0
 15 18  1  0
 16 25  4  0
 16 26  4  0
 17 20  4  0
 18 21  4  0
 21 26  4  0
 22 26  4  0
M  END
$$$$

 Created by Python create_sdf_string function

 28 28  0  0  0  0  0  0  0  0999 V2000
    5.6869   -8.4435   26.7694 C   0  0  0  0  0  0  0  0  0  0  0  0
    0.3600   -7.0501   27.5615 C   0  0  0  0  0  0  0  0  0  0  0  0
    2.4308   -7.7106   15.9844 C   0  0  0  0  0  0  0  0  0  0  0  0
    4.8435   -7.4211   26.4466 C   0  0  0  0  0  0  0  0  0  0  0  0
    2.2586   -5.6644   26.0665 C   0  0  0  0  0  0  0  0  0  0  0  0
    7.0838   -4.6324   26.9784 C   0  0  0  0  0  0  0  0  0  0  0  0
    8.3102   -4.3528   27.4555 C   0  0  0  0  0  0  0  0  0  0  0  0
    1.0631   -5.0350   26.3846 C   0  0  0  0  0  0  0  0  0  0  0  0
   -1.2790   -3.9145   26.9372 O   0  0  0  0  0  0  0  0  0  0  0  0
   -1.0819   -5.0307   27.4977 C   0  0  0  0  0  0  0  0  0  0  0  0
    2.1122   -8.9621   16.6106 C   0  0  0  0  0  0  0  0  0  0  0  0
    4.3389   -9.3345   17.2819 C   0  0  0  0  0  0  0  0  0  0  0  0
   -1.8939   -5.5656   28.2795 O   0  0  0  0  0  0  0  0  0  0  0  0
   10.4663   -5.1767   28.3248 C   0  0  0  0  0  0  0  0  0  0  0  0
    6.5837   -5.8821   26.9428 C   0  0  0  0  0  0  0  0  0  0  0  0
    2.4600   -6.9891   26.4334 N   0  0  0  0  0  0  0  0  0  0  0  0
    9.1218   -5.4279   27.8669 C   0  0  0  0  0  0  0  0  0  0  0  0
    0.8348   -9.3917   16.6047 O   0  0  0  0  0  0  0  0  0  0  0  0
    1.5352   -7.6697   27.1716 C   0  0  0  0  0  0  0  0  0  0  0  0
    8.6695   -6.6927   27.7310 N   0  0  0  0  0  0  0  0  0  0  0  0
    3.7421   -7.3152   16.0455 C   0  0  0  0  0  0  0  0  0  0  0  0
    3.0451   -9.7549   17.2208 C   0  0  0  0  0  0  0  0  0  0  0  0
    5.3529   -6.1662   26.4977 C   0  0  0  0  0  0  0  0  0  0  0  0
    7.4450   -6.9084   27.2942 C   0  0  0  0  0  0  0  0  0  0  0  0
    0.1227   -5.7373   27.1654 C   0  0  0  0  0  0  0  0  0  0  0  0
    3.5402   -7.7120   26.0123 C   0  0  0  0  0  0  0  0  0  0  0  0
    4.6963   -8.0812   16.6793 He  0  0  0  0  0  0  0  0  0  0  0  0
    6.9698   -8.2707   27.2010 He  0  0  0  0  0  0  0  0  0  0  0  0
  1  4  4  0
  2 19  4  0
  2 25  4  0
  3 11  4  0
  3 21  4  0
  4 23  4  0
  4 26  1  0
  5  8  4  0
  5 16  4  0
  6  7  4  0
  6 15  4  0
  7 17  4  0
  8 18  1  0
  8 25  4  0
  9 10  1  0
  9 22  2  0
 10 13  2  0
 10 25  1  0
 11 18  1  0
 11 22  4  0
 12 22  4  0
 14 17  1  0
 15 23  4  0
 15 24  4  0
 16 19  4  0
 16 26  1  0
 17 20  4  0
 20 24  4  0
M  END
$$$$

 Created by Python create_sdf_string function

 28 32  0  0  0  0  0  0  0  0999 V2000
    5.6999   -8.4547   26.7400 C   0  0  0  0  0  0  0  0  0  0  0  0
    0.3536   -7.0626   27.5665 C   0  0  0  0  0  0  0  0  0  0  0  0
    2.4474   -7.7114   15.9887 C   0  0  0  0  0  0  0  0  0  0  0  0
    4.8385   -7.4350   26.4376 C   0  0  0  0  0  0  0  0  0  0  0  0
    2.2501   -5.6792   26.0605 C   0  0  0  0  0  0  0  0  0  0  0  0
    7.1001   -4.6114   26.9961 C   0  0  0  0  0  0  0  0  0  0  0  0
    8.3065   -4.3572   27.4529 C   0  0  0  0  0  0  0  0  0  0  0  0
    1.0924   -5.0489   26.3880 C   0  0  0  0  0  0  0  0  0  0  0  0
    4.6945   -8.0823   16.6982 C   0  0  0  0  0  0  0  0  0  0  0  0
   -1.2656   -3.9078   26.9544 O   0  0  0  0  0  0  0  0  0  0  0  0
   -1.0701   -5.0700   27.4886 C   0  0  0  0  0  0  0  0  0  0  0  0
    2.1445   -8.9429   16.6065 C   0  0  0  0  0  0  0  0  0  0  0  0
    4.3878   -9.3131   17.2670 C   0  0  0  0  0  0  0  0  0  0  0  0
   -1.8963   -5.5797   28.2531 O   0  0  0  0  0  0  0  0  0  0  0  0
   10.4604   -5.1633   28.3254 C   0  0  0  0  0  0  0  0  0  0  0  0
    6.5938   -5.9052   26.9156 C   0  0  0  0  0  0  0  0  0  0  0  0
    2.4636   -6.9895   26.4317 N   0  0  0  0  0  0  0  0  0  0  0  0
    9.1347   -5.4161   27.8397 C   0  0  0  0  0  0  0  0  0  0  0  0
    0.8863   -9.3676   16.5831 O   0  0  0  0  0  0  0  0  0  0  0  0
    1.5228   -7.6544   27.1443 C   0  0  0  0  0  0  0  0  0  0  0  0
    8.6862   -6.6859   27.7147 N   0  0  0  0  0  0  0  0  0  0  0  0
    6.9784   -8.2470   27.2028 C   0  0  0  0  0  0  0  0  0  0  0  0
    3.7509   -7.3110   16.0544 C   0  0  0  0  0  0  0  0  0  0  0  0
    3.0945   -9.7481   17.2262 C   0  0  0  0  0  0  0  0  0  0  0  0
    5.3489   -6.1544   26.5111 C   0  0  0  0  0  0  0  0  0  0  0  0
    7.4468   -6.9512   27.3060 C   0  0  0  0  0  0  0  0  0  0  0  0
    0.1563   -5.7484   27.1609 C   0  0  0  0  0  0  0  0  0  0  0  0
    3.5442   -7.7304   25.9947 C   0  0  0  0  0  0  0  0  0  0  0  0
  1  4  4  0
  1 22  4  0
  2 20  4  0
  2 27  4  0
  3 12  4  0
  3 23  4  0
  4 25  4  0
  4 28  1  0
  5  8  4  0
  5 17  4  0
  6  7  4  0
  6 16  4  0
  7 18  4  0
  8 27  4  0
  9 13  4  0
  9 23  4  0
 10 11  1  0
 11 14  2  0
 11 27  1  0
 12 19  1  0
 12 24  4  0
 13 24  4  0
 15 18  1  0
 16 25  4  0
 16 26  4  0
 17 20  4  0
 17 28  1  0
 18 21  4  0
 21 26  4  0
 22 26  4  0
 26 28  1  0
 27 28  2  0
M  END
$$$$

 Created by Python create_sdf_string function

 28 30  0  0  0  0  0  0  0  0999 V2000
    5.6950   -8.4357   26.7329 C   0  0  0  0  0  0  0  0  0  0  0  0
    0.3706   -7.0555   27.5407 C   0  0  0  0  0  0  0  0  0  0  0  0
    2.4727   -7.7039   15.9860 C   0  0  0  0  0  0  0  0  0  0  0  0
    4.8613   -7.4304   26.4257 C   0  0  0  0  0  0  0  0  0  0  0  0
    2.2751   -5.6727   26.0434 C   0  0  0  0  0  0  0  0  0  0  0  0
    7.0956   -4.6133   26.9957 C   0  0  0  0  0  0  0  0  0  0  0  0
    8.3244   -4.3720   27.4579 C   0  0  0  0  0  0  0  0  0  0  0  0
    1.0931   -5.0611   26.3845 C   0  0  0  0  0  0  0  0  0  0  0  0
    4.7311   -8.0707   16.7079 C   0  0  0  0  0  0  0  0  0  0  0  0
   -1.2490   -3.9268   26.9749 O   0  0  0  0  0  0  0  0  0  0  0  0
   -1.0349   -5.0744   27.4757 C   0  0  0  0  0  0  0  0  0  0  0  0
    2.1810   -8.9325   16.6114 C   0  0  0  0  0  0  0  0  0  0  0  0
    4.4213   -9.2940   17.2793 C   0  0  0  0  0  0  0  0  0  0  0  0
   -1.8573   -5.5884   28.2315 O   0  0  0  0  0  0  0  0  0  0  0  0
   10.4434   -5.1715   28.3244 C   0  0  0  0  0  0  0  0  0  0  0  0
    6.5964   -5.8874   26.9230 C   0  0  0  0  0  0  0  0  0  0  0  0
    2.4659   -6.9919   26.4236 N   0  0  0  0  0  0  0  0  0  0  0  0
    9.1331   -5.4082   27.8367 C   0  0  0  0  0  0  0  0  0  0  0  0
    0.9230   -9.3492   16.5950 O   0  0  0  0  0  0  0  0  0  0  0  0
    1.5137   -7.6793   27.1454 C   0  0  0  0  0  0  0  0  0  0  0  0
    8.6893   -6.6922   27.7341 N   0  0  0  0  0  0  0  0  0  0  0  0
    6.9719   -8.2415   27.1866 C   0  0  0  0  0  0  0  0  0  0  0  0
    3.7774   -7.3015   16.0530 C   0  0  0  0  0  0  0  0  0  0  0  0
    3.1201   -9.7369   17.2369 C   0  0  0  0  0  0  0  0  0  0  0  0
    5.3365   -6.1802   26.5142 C   0  0  0  0  0  0  0  0  0  0  0  0
    7.4493   -6.9403   27.2925 C   0  0  0  0  0  0  0  0  0  0  0  0
    0.1716   -5.7449   27.1486 C   0  0  0  0  0  0  0  0  0  0  0  0
    3.5451   -7.7298   25.9835 C   0  0  0  0  0  0  0  0  0  0  0  0
  1  4  4  0
  1 22  4  0
  2 20  4  0
  2 27  4  0
  3 12  4  0
  3 23  4  0
  4 25  4  0
  4 28  1  0
  5  8  4  0
  5 17  4  0
  6  7  4  0
  6 16  4  0
  7 18  4  0
  8 27  4  0
  9 13  4  0
  9 23  4  0
 10 11  1  0
 11 14  2  0
 11 27  1  0
 12 19  1  0
 12 24  4  0
 13 24  4  0
 15 18  1  0
 16 25  4  0
 16 26  4  0
 17 20  4  0
 17 28  1  0
 18 21  4  0
 21 26  4  0
 22 26  4  0
M  END
$$$$

 Created by Python create_sdf_string function

 28 30  0  0  0  0  0  0  0  0999 V2000
    5.7080   -8.4517   26.7253 C   0  0  0  0  0  0  0  0  0  0  0  0
    0.3872   -7.0680   27.5285 C   0  0  0  0  0  0  0  0  0  0  0  0
    2.5034   -7.6976   16.0030 C   0  0  0  0  0  0  0  0  0  0  0  0
    4.8653   -7.4317   26.4170 C   0  0  0  0  0  0  0  0  0  0  0  0
    2.2806   -5.6751   26.0449 C   0  0  0  0  0  0  0  0  0  0  0  0
    7.0945   -4.6148   26.9997 C   0  0  0  0  0  0  0  0  0  0  0  0
    8.3141   -4.3763   27.4478 C   0  0  0  0  0  0  0  0  0  0  0  0
    1.1171   -5.0594   26.3625 C   0  0  0  0  0  0  0  0  0  0  0  0
    4.7676   -8.0544   16.7062 C   0  0  0  0  0  0  0  0  0  0  0  0
   -1.2292   -3.9279   26.9749 O   0  0  0  0  0  0  0  0  0  0  0  0
   -1.0143   -5.0849   27.4624 C   0  0  0  0  0  0  0  0  0  0  0  0
    2.2127   -8.9238   16.6173 C   0  0  0  0  0  0  0  0  0  0  0  0
    4.4600   -9.2747   17.2929 C   0  0  0  0  0  0  0  0  0  0  0  0
   -1.8289   -5.5953   28.2081 O   0  0  0  0  0  0  0  0  0  0  0  0
   10.4391   -5.1795   28.3221 C   0  0  0  0  0  0  0  0  0  0  0  0
    6.5980   -5.8919   26.9236 C   0  0  0  0  0  0  0  0  0  0  0  0
    2.4665   -6.9869   26.4183 N   0  0  0  0  0  0  0  0  0  0  0  0
    9.1365   -5.4141   27.8310 C   0  0  0  0  0  0  0  0  0  0  0  0
    0.9577   -9.3366   16.5991 O   0  0  0  0  0  0  0  0  0  0  0  0
    1.5144   -7.6835   27.1325 C   0  0  0  0  0  0  0  0  0  0  0  0
    8.6915   -6.6808   27.7287 N   0  0  0  0  0  0  0  0  0  0  0  0
    6.9840   -8.2453   27.1858 C   0  0  0  0  0  0  0  0  0  0  0  0
    3.8120   -7.2898   16.0537 C   0  0  0  0  0  0  0  0  0  0  0  0
    3.1535   -9.7275   17.2439 C   0  0  0  0  0  0  0  0  0  0  0  0
    5.3420   -6.1696   26.5129 C   0  0  0  0  0  0  0  0  0  0  0  0
    7.4537   -6.9526   27.2920 C   0  0  0  0  0  0  0  0  0  0  0  0
    0.1758   -5.7547   27.1328 C   0  0  0  0  0  0  0  0  0  0  0  0
    3.5458   -7.7366   25.9767 C   0  0  0  0  0  0  0  0  0  0  0  0
  1  4  4  0
  1 22  4  0
  2 20  4  0
  2 27  4  0
  3 12  4  0
  3 23  4  0
  4 25  4  0
  4 28  1  0
  5  8  4  0
  5 17  4  0
  6  7  4  0
  6 16  4  0
  7 18  4  0
  8 27  4  0
  9 13  4  0
  9 23  4  0
 10 11  1  0
 11 14  2  0
 11 27  1  0
 12 19  1  0
 12 24  4  0
 13 24  4  0
 15 18  1  0
 16 25  4  0
 16 26  4  0
 17 20  4  0
 17 28  1  0
 18 21  4  0
 21 26  4  0
 22 26  4  0
M  END
$$$$

 Created by Python create_sdf_string function

 28 30  0  0  0  0  0  0  0  0999 V2000
    5.7174   -8.4529   26.7190 C   0  0  0  0  0  0  0  0  0  0  0  0
    0.3974   -7.0711   27.5149 C   0  0  0  0  0  0  0  0  0  0  0  0
    2.5338   -7.6891   16.0102 C   0  0  0  0  0  0  0  0  0  0  0  0
    4.8690   -7.4380   26.4151 C   0  0  0  0  0  0  0  0  0  0  0  0
    2.3021   -5.6726   26.0378 C   0  0  0  0  0  0  0  0  0  0  0  0
    7.0880   -4.6163   27.0010 C   0  0  0  0  0  0  0  0  0  0  0  0
    8.3117   -4.3698   27.4436 C   0  0  0  0  0  0  0  0  0  0  0  0
    1.1339   -5.0515   26.3541 C   0  0  0  0  0  0  0  0  0  0  0  0
    4.8080   -8.0362   16.7101 C   0  0  0  0  0  0  0  0  0  0  0  0
   -1.2173   -3.9294   26.9717 O   0  0  0  0  0  0  0  0  0  0  0  0
   -1.0025   -5.0942   27.4586 C   0  0  0  0  0  0  0  0  0  0  0  0
    2.2474   -8.9123   16.6273 C   0  0  0  0  0  0  0  0  0  0  0  0
    4.4957   -9.2636   17.3041 C   0  0  0  0  0  0  0  0  0  0  0  0
   -1.8070   -5.6086   28.1920 O   0  0  0  0  0  0  0  0  0  0  0  0
   10.4296   -5.1799   28.3140 C   0  0  0  0  0  0  0  0  0  0  0  0
    6.6017   -5.9004   26.9187 C   0  0  0  0  0  0  0  0  0  0  0  0
    2.4761   -6.9940   26.4111 N   0  0  0  0  0  0  0  0  0  0  0  0
    9.1353   -5.4053   27.8239 C   0  0  0  0  0  0  0  0  0  0  0  0
    0.9922   -9.3232   16.5995 O   0  0  0  0  0  0  0  0  0  0  0  0
    1.5232   -7.6869   27.1182 C   0  0  0  0  0  0  0  0  0  0  0  0
    8.6878   -6.6715   27.7262 N   0  0  0  0  0  0  0  0  0  0  0  0
    6.9911   -8.2423   27.1808 C   0  0  0  0  0  0  0  0  0  0  0  0
    3.8436   -7.2758   16.0578 C   0  0  0  0  0  0  0  0  0  0  0  0
    3.1882   -9.7190   17.2566 C   0  0  0  0  0  0  0  0  0  0  0  0
    5.3488   -6.1737   26.5092 C   0  0  0  0  0  0  0  0  0  0  0  0
    7.4567   -6.9464   27.2858 C   0  0  0  0  0  0  0  0  0  0  0  0
    0.1921   -5.7592   27.1123 C   0  0  0  0  0  0  0  0  0  0  0  0
    3.5517   -7.7407   25.9711 C   0  0  0  0  0  0  0  0  0  0  0  0
  1  4  4  0
  1 22  4  0
  2 20  4  0
  2 27  4  0
  3 12  4  0
  3 23  4  0
  4 25  4  0
  4 28  1  0
  5  8  4  0
  5 17  4  0
  6  7  4  0
  6 16  4  0
  7 18  4  0
  8 27  4  0
  9 13  4  0
  9 23  4  0
 10 11  1  0
 11 14  2  0
 11 27  1  0
 12 19  1  0
 12 24  4  0
 13 24  4  0
 15 18  1  0
 16 25  4  0
 16 26  4  0
 17 20  4  0
 17 28  1  0
 18 21  4  0
 21 26  4  0
 22 26  4  0
M  END
$$$$

 Created by Python create_sdf_string function

 28 30  0  0  0  0  0  0  0  0999 V2000
    5.7174   -8.4529   26.7190 C   0  0  0  0  0  0  0  0  0  0  0  0
    0.3974   -7.0711   27.5149 C   0  0  0  0  0  0  0  0  0  0  0  0
    2.5338   -7.6891   16.0102 C   0  0  0  0  0  0  0  0  0  0  0  0
    4.8690   -7.4380   26.4151 C   0  0  0  0  0  0  0  0  0  0  0  0
    2.3021   -5.6726   26.0378 C   0  0  0  0  0  0  0  0  0  0  0  0
    7.0880   -4.6163   27.0010 C   0  0  0  0  0  0  0  0  0  0  0  0
    8.3117   -4.3698   27.4436 C   0  0  0  0  0  0  0  0  0  0  0  0
    1.1339   -5.0515   26.3541 C   0  0  0  0  0  0  0  0  0  0  0  0
    4.8080   -8.0362   16.7101 C   0  0  0  0  0  0  0  0  0  0  0  0
   -1.2173   -3.9294   26.9717 O   0  0  0  0  0  0  0  0  0  0  0  0
   -1.0025   -5.0942   27.4586 C   0  0  0  0  0  0  0  0  0  0  0  0
    2.2474   -8.9123   16.6273 C   0  0  0  0  0  0  0  0  0  0  0  0
    4.4957   -9.2636   17.3041 C   0  0  0  0  0  0  0  0  0  0  0  0
   -1.8070   -5.6086   28.1920 O   0  0  0  0  0  0  0  0  0  0  0  0
   10.4296   -5.1799   28.3140 C   0  0  0  0  0  0  0  0  0  0  0  0
    6.6017   -5.9004   26.9187 C   0  0  0  0  0  0  0  0  0  0  0  0
    2.4761   -6.9940   26.4111 N   0  0  0  0  0  0  0  0  0  0  0  0
    9.1353   -5.4053   27.8239 C   0  0  0  0  0  0  0  0  0  0  0  0
    0.9922   -9.3232   16.5995 O   0  0  0  0  0  0  0  0  0  0  0  0
    1.5232   -7.6869   27.1182 C   0  0  0  0  0  0  0  0  0  0  0  0
    8.6878   -6.6715   27.7262 N   0  0  0  0  0  0  0  0  0  0  0  0
    6.9911   -8.2423   27.1808 C   0  0  0  0  0  0  0  0  0  0  0  0
    3.8436   -7.2758   16.0578 C   0  0  0  0  0  0  0  0  0  0  0  0
    3.1882   -9.7190   17.2566 C   0  0  0  0  0  0  0  0  0  0  0  0
    5.3488   -6.1737   26.5092 C   0  0  0  0  0  0  0  0  0  0  0  0
    7.4567   -6.9464   27.2858 C   0  0  0  0  0  0  0  0  0  0  0  0
    0.1921   -5.7592   27.1123 C   0  0  0  0  0  0  0  0  0  0  0  0
    3.5517   -7.7407   25.9711 C   0  0  0  0  0  0  0  0  0  0  0  0
  1  4  4  0
  1 22  4  0
  2 20  4  0
  2 27  4  0
  3 12  4  0
  3 23  4  0
  4 25  4  0
  4 28  1  0
  5  8  4  0
  5 17  4  0
  6  7  4  0
  6 16  4  0
  7 18  4  0
  8 27  4  0
  9 13  4  0
  9 23  4  0
 10 11  1  0
 11 14  2  0
 11 27  1  0
 12 19  1  0
 12 24  4  0
 13 24  4  0
 15 18  1  0
 16 25  4  0
 16 26  4  0
 17 20  4  0
 17 28  1  0
 18 21  4  0
 21 26  4  0
 22 26  4  0
M  END
$$$$

 Created by Python create_sdf_string function

 28 30  0  0  0  0  0  0  0  0999 V2000
    5.7174   -8.4529   26.7190 C   0  0  0  0  0  0  0  0  0  0  0  0
    0.3974   -7.0711   27.5149 C   0  0  0  0  0  0  0  0  0  0  0  0
    2.5338   -7.6891   16.0102 C   0  0  0  0  0  0  0  0  0  0  0  0
    4.8690   -7.4380   26.4151 C   0  0  0  0  0  0  0  0  0  0  0  0
    2.3021   -5.6726   26.0378 C   0  0  0  0  0  0  0  0  0  0  0  0
    7.0880   -4.6163   27.0010 C   0  0  0  0  0  0  0  0  0  0  0  0
    8.3117   -4.3698   27.4436 C   0  0  0  0  0  0  0  0  0  0  0  0
    1.1339   -5.0515   26.3541 C   0  0  0  0  0  0  0  0  0  0  0  0
    4.8080   -8.0362   16.7101 C   0  0  0  0  0  0  0  0  0  0  0  0
   -1.2173   -3.9294   26.9717 O   0  0  0  0  0  0  0  0  0  0  0  0
   -1.0025   -5.0942   27.4586 C   0  0  0  0  0  0  0  0  0  0  0  0
    2.2474   -8.9123   16.6273 C   0  0  0  0  0  0  0  0  0  0  0  0
    4.4957   -9.2636   17.3041 C   0  0  0  0  0  0  0  0  0  0  0  0
   -1.8070   -5.6086   28.1920 O   0  0  0  0  0  0  0  0  0  0  0  0
   10.4296   -5.1799   28.3140 C   0  0  0  0  0  0  0  0  0  0  0  0
    6.6017   -5.9004   26.9187 C   0  0  0  0  0  0  0  0  0  0  0  0
    2.4761   -6.9940   26.4111 N   0  0  0  0  0  0  0  0  0  0  0  0
    9.1353   -5.4053   27.8239 C   0  0  0  0  0  0  0  0  0  0  0  0
    0.9922   -9.3232   16.5995 O   0  0  0  0  0  0  0  0  0  0  0  0
    1.5232   -7.6869   27.1182 C   0  0  0  0  0  0  0  0  0  0  0  0
    8.6878   -6.6715   27.7262 N   0  0  0  0  0  0  0  0  0  0  0  0
    6.9911   -8.2423   27.1808 C   0  0  0  0  0  0  0  0  0  0  0  0
    3.8436   -7.2758   16.0578 C   0  0  0  0  0  0  0  0  0  0  0  0
    3.1882   -9.7190   17.2566 C   0  0  0  0  0  0  0  0  0  0  0  0
    5.3488   -6.1737   26.5092 C   0  0  0  0  0  0  0  0  0  0  0  0
    7.4567   -6.9464   27.2858 C   0  0  0  0  0  0  0  0  0  0  0  0
    0.1921   -5.7592   27.1123 C   0  0  0  0  0  0  0  0  0  0  0  0
    3.5517   -7.7407   25.9711 C   0  0  0  0  0  0  0  0  0  0  0  0
  1  4  4  0
  1 22  4  0
  2 20  4  0
  2 27  4  0
  3 12  4  0
  3 23  4  0
  4 25  4  0
  4 28  1  0
  5  8  4  0
  5 17  4  0
  6  7  4  0
  6 16  4  0
  7 18  4  0
  8 27  4  0
  9 13  4  0
  9 23  4  0
 10 11  1  0
 11 14  2  0
 11 27  1  0
 12 19  1  0
 12 24  4  0
 13 24  4  0
 15 18  1  0
 16 25  4  0
 16 26  4  0
 17 20  4  0
 17 28  1  0
 18 21  4  0
 21 26  4  0
 22 26  4  0
M  END
$$$$

 Created by Python create_sdf_string function

 28 30  0  0  0  0  0  0  0  0999 V2000
    5.7174   -8.4529   26.7190 C   0  0  0  0  0  0  0  0  0  0  0  0
    0.3974   -7.0711   27.5149 C   0  0  0  0  0  0  0  0  0  0  0  0
    2.5338   -7.6891   16.0102 C   0  0  0  0  0  0  0  0  0  0  0  0
    4.8690   -7.4380   26.4151 C   0  0  0  0  0  0  0  0  0  0  0  0
    2.3021   -5.6726   26.0378 C   0  0  0  0  0  0  0  0  0  0  0  0
    7.0880   -4.6163   27.0010 C   0  0  0  0  0  0  0  0  0  0  0  0
    8.3117   -4.3698   27.4436 C   0  0  0  0  0  0  0  0  0  0  0  0
    1.1339   -5.0515   26.3541 C   0  0  0  0  0  0  0  0  0  0  0  0
    4.8080   -8.0362   16.7101 C   0  0  0  0  0  0  0  0  0  0  0  0
   -1.2173   -3.9294   26.9717 O   0  0  0  0  0  0  0  0  0  0  0  0
   -1.0025   -5.0942   27.4586 C   0  0  0  0  0  0  0  0  0  0  0  0
    2.2474   -8.9123   16.6273 C   0  0  0  0  0  0  0  0  0  0  0  0
    4.4957   -9.2636   17.3041 C   0  0  0  0  0  0  0  0  0  0  0  0
   -1.8070   -5.6086   28.1920 O   0  0  0  0  0  0  0  0  0  0  0  0
   10.4296   -5.1799   28.3140 C   0  0  0  0  0  0  0  0  0  0  0  0
    6.6017   -5.9004   26.9187 C   0  0  0  0  0  0  0  0  0  0  0  0
    2.4761   -6.9940   26.4111 N   0  0  0  0  0  0  0  0  0  0  0  0
    9.1353   -5.4053   27.8239 C   0  0  0  0  0  0  0  0  0  0  0  0
    0.9922   -9.3232   16.5995 O   0  0  0  0  0  0  0  0  0  0  0  0
    1.5232   -7.6869   27.1182 C   0  0  0  0  0  0  0  0  0  0  0  0
    8.6878   -6.6715   27.7262 N   0  0  0  0  0  0  0  0  0  0  0  0
    6.9911   -8.2423   27.1808 C   0  0  0  0  0  0  0  0  0  0  0  0
    3.8436   -7.2758   16.0578 C   0  0  0  0  0  0  0  0  0  0  0  0
    3.1882   -9.7190   17.2566 C   0  0  0  0  0  0  0  0  0  0  0  0
    5.3488   -6.1737   26.5092 C   0  0  0  0  0  0  0  0  0  0  0  0
    7.4567   -6.9464   27.2858 C   0  0  0  0  0  0  0  0  0  0  0  0
    0.1921   -5.7592   27.1123 C   0  0  0  0  0  0  0  0  0  0  0  0
    3.5517   -7.7407   25.9711 C   0  0  0  0  0  0  0  0  0  0  0  0
  1  4  4  0
  1 22  4  0
  2 20  4  0
  2 27  4  0
  3 12  4  0
  3 23  4  0
  4 25  4  0
  4 28  1  0
  5  8  4  0
  5 17  4  0
  6  7  4  0
  6 16  4  0
  7 18  4  0
  8 27  4  0
  9 13  4  0
  9 23  4  0
 10 11  1  0
 11 14  2  0
 11 27  1  0
 12 19  1  0
 12 24  4  0
 13 24  4  0
 15 18  1  0
 16 25  4  0
 16 26  4  0
 17 20  4  0
 17 28  1  0
 18 21  4  0
 21 26  4  0
 22 26  4  0
M  END
$$$$

 Created by Python create_sdf_string function

 28 30  0  0  0  0  0  0  0  0999 V2000
    5.7174   -8.4529   26.7190 C   0  0  0  0  0  0  0  0  0  0  0  0
    0.3974   -7.0711   27.5149 C   0  0  0  0  0  0  0  0  0  0  0  0
    2.5338   -7.6891   16.0102 C   0  0  0  0  0  0  0  0  0  0  0  0
    4.8690   -7.4380   26.4151 C   0  0  0  0  0  0  0  0  0  0  0  0
    2.3021   -5.6726   26.0378 C   0  0  0  0  0  0  0  0  0  0  0  0
    7.0880   -4.6163   27.0010 C   0  0  0  0  0  0  0  0  0  0  0  0
    8.3117   -4.3698   27.4436 C   0  0  0  0  0  0  0  0  0  0  0  0
    1.1339   -5.0515   26.3541 C   0  0  0  0  0  0  0  0  0  0  0  0
    4.8080   -8.0362   16.7101 C   0  0  0  0  0  0  0  0  0  0  0  0
   -1.2173   -3.9294   26.9717 O   0  0  0  0  0  0  0  0  0  0  0  0
   -1.0025   -5.0942   27.4586 C   0  0  0  0  0  0  0  0  0  0  0  0
    2.2474   -8.9123   16.6273 C   0  0  0  0  0  0  0  0  0  0  0  0
    4.4957   -9.2636   17.3041 C   0  0  0  0  0  0  0  0  0  0  0  0
   -1.8070   -5.6086   28.1920 O   0  0  0  0  0  0  0  0  0  0  0  0
   10.4296   -5.1799   28.3140 C   0  0  0  0  0  0  0  0  0  0  0  0
    6.6017   -5.9004   26.9187 C   0  0  0  0  0  0  0  0  0  0  0  0
    2.4761   -6.9940   26.4111 N   0  0  0  0  0  0  0  0  0  0  0  0
    9.1353   -5.4053   27.8239 C   0  0  0  0  0  0  0  0  0  0  0  0
    0.9922   -9.3232   16.5995 O   0  0  0  0  0  0  0  0  0  0  0  0
    1.5232   -7.6869   27.1182 C   0  0  0  0  0  0  0  0  0  0  0  0
    8.6878   -6.6715   27.7262 N   0  0  0  0  0  0  0  0  0  0  0  0
    6.9911   -8.2423   27.1808 C   0  0  0  0  0  0  0  0  0  0  0  0
    3.8436   -7.2758   16.0578 C   0  0  0  0  0  0  0  0  0  0  0  0
    3.1882   -9.7190   17.2566 C   0  0  0  0  0  0  0  0  0  0  0  0
    5.3488   -6.1737   26.5092 C   0  0  0  0  0  0  0  0  0  0  0  0
    7.4567   -6.9464   27.2858 C   0  0  0  0  0  0  0  0  0  0  0  0
    0.1921   -5.7592   27.1123 C   0  0  0  0  0  0  0  0  0  0  0  0
    3.5517   -7.7407   25.9711 C   0  0  0  0  0  0  0  0  0  0  0  0
  1  4  4  0
  1 22  4  0
  2 20  4  0
  2 27  4  0
  3 12  4  0
  3 23  4  0
  4 25  4  0
  4 28  1  0
  5  8  4  0
  5 17  4  0
  6  7  4  0
  6 16  4  0
  7 18  4  0
  8 27  4  0
  9 13  4  0
  9 23  4  0
 10 11  1  0
 11 14  2  0
 11 27  1  0
 12 19  1  0
 12 24  4  0
 13 24  4  0
 15 18  1  0
 16 25  4  0
 16 26  4  0
 17 20  4  0
 17 28  1  0
 18 21  4  0
 21 26  4  0
 22 26  4  0
M  END
$$$$

 Created by Python create_sdf_string function

 28 30  0  0  0  0  0  0  0  0999 V2000
    5.7174   -8.4529   26.7190 C   0  0  0  0  0  0  0  0  0  0  0  0
    0.3974   -7.0711   27.5149 C   0  0  0  0  0  0  0  0  0  0  0  0
    2.5338   -7.6891   16.0102 C   0  0  0  0  0  0  0  0  0  0  0  0
    4.8690   -7.4380   26.4151 C   0  0  0  0  0  0  0  0  0  0  0  0
    2.3021   -5.6726   26.0378 C   0  0  0  0  0  0  0  0  0  0  0  0
    7.0880   -4.6163   27.0010 C   0  0  0  0  0  0  0  0  0  0  0  0
    8.3117   -4.3698   27.4436 C   0  0  0  0  0  0  0  0  0  0  0  0
    1.1339   -5.0515   26.3541 C   0  0  0  0  0  0  0  0  0  0  0  0
    4.8080   -8.0362   16.7101 C   0  0  0  0  0  0  0  0  0  0  0  0
   -1.2173   -3.9294   26.9717 O   0  0  0  0  0  0  0  0  0  0  0  0
   -1.0025   -5.0942   27.4586 C   0  0  0  0  0  0  0  0  0  0  0  0
    2.2474   -8.9123   16.6273 C   0  0  0  0  0  0  0  0  0  0  0  0
    4.4957   -9.2636   17.3041 C   0  0  0  0  0  0  0  0  0  0  0  0
   -1.8070   -5.6086   28.1920 O   0  0  0  0  0  0  0  0  0  0  0  0
   10.4296   -5.1799   28.3140 C   0  0  0  0  0  0  0  0  0  0  0  0
    6.6017   -5.9004   26.9187 C   0  0  0  0  0  0  0  0  0  0  0  0
    2.4761   -6.9940   26.4111 N   0  0  0  0  0  0  0  0  0  0  0  0
    9.1353   -5.4053   27.8239 C   0  0  0  0  0  0  0  0  0  0  0  0
    0.9922   -9.3232   16.5995 O   0  0  0  0  0  0  0  0  0  0  0  0
    1.5232   -7.6869   27.1182 C   0  0  0  0  0  0  0  0  0  0  0  0
    8.6878   -6.6715   27.7262 N   0  0  0  0  0  0  0  0  0  0  0  0
    6.9911   -8.2423   27.1808 C   0  0  0  0  0  0  0  0  0  0  0  0
    3.8436   -7.2758   16.0578 C   0  0  0  0  0  0  0  0  0  0  0  0
    3.1882   -9.7190   17.2566 C   0  0  0  0  0  0  0  0  0  0  0  0
    5.3488   -6.1737   26.5092 C   0  0  0  0  0  0  0  0  0  0  0  0
    7.4567   -6.9464   27.2858 C   0  0  0  0  0  0  0  0  0  0  0  0
    0.1921   -5.7592   27.1123 C   0  0  0  0  0  0  0  0  0  0  0  0
    3.5517   -7.7407   25.9711 C   0  0  0  0  0  0  0  0  0  0  0  0
  1  4  4  0
  1 22  4  0
  2 20  4  0
  2 27  4  0
  3 12  4  0
  3 23  4  0
  4 25  4  0
  4 28  1  0
  5  8  4  0
  5 17  4  0
  6  7  4  0
  6 16  4  0
  7 18  4  0
  8 27  4  0
  9 13  4  0
  9 23  4  0
 10 11  1  0
 11 14  2  0
 11 27  1  0
 12 19  1  0
 12 24  4  0
 13 24  4  0
 15 18  1  0
 16 25  4  0
 16 26  4  0
 17 20  4  0
 17 28  1  0
 18 21  4  0
 21 26  4  0
 22 26  4  0
M  END
$$$$

 Created by Python create_sdf_string function

 28 30  0  0  0  0  0  0  0  0999 V2000
    5.7174   -8.4529   26.7190 C   0  0  0  0  0  0  0  0  0  0  0  0
    0.3974   -7.0711   27.5149 C   0  0  0  0  0  0  0  0  0  0  0  0
    2.5338   -7.6891   16.0102 C   0  0  0  0  0  0  0  0  0  0  0  0
    4.8690   -7.4380   26.4151 C   0  0  0  0  0  0  0  0  0  0  0  0
    2.3021   -5.6726   26.0378 C   0  0  0  0  0  0  0  0  0  0  0  0
    7.0880   -4.6163   27.0010 C   0  0  0  0  0  0  0  0  0  0  0  0
    8.3117   -4.3698   27.4436 C   0  0  0  0  0  0  0  0  0  0  0  0
    1.1339   -5.0515   26.3541 C   0  0  0  0  0  0  0  0  0  0  0  0
    4.8080   -8.0362   16.7101 C   0  0  0  0  0  0  0  0  0  0  0  0
   -1.2173   -3.9294   26.9717 O   0  0  0  0  0  0  0  0  0  0  0  0
   -1.0025   -5.0942   27.4586 C   0  0  0  0  0  0  0  0  0  0  0  0
    2.2474   -8.9123   16.6273 C   0  0  0  0  0  0  0  0  0  0  0  0
    4.4957   -9.2636   17.3041 C   0  0  0  0  0  0  0  0  0  0  0  0
   -1.8070   -5.6086   28.1920 O   0  0  0  0  0  0  0  0  0  0  0  0
   10.4296   -5.1799   28.3140 C   0  0  0  0  0  0  0  0  0  0  0  0
    6.6017   -5.9004   26.9187 C   0  0  0  0  0  0  0  0  0  0  0  0
    2.4761   -6.9940   26.4111 N   0  0  0  0  0  0  0  0  0  0  0  0
    9.1353   -5.4053   27.8239 C   0  0  0  0  0  0  0  0  0  0  0  0
    0.9922   -9.3232   16.5995 O   0  0  0  0  0  0  0  0  0  0  0  0
    1.5232   -7.6869   27.1182 C   0  0  0  0  0  0  0  0  0  0  0  0
    8.6878   -6.6715   27.7262 N   0  0  0  0  0  0  0  0  0  0  0  0
    6.9911   -8.2423   27.1808 C   0  0  0  0  0  0  0  0  0  0  0  0
    3.8436   -7.2758   16.0578 C   0  0  0  0  0  0  0  0  0  0  0  0
    3.1882   -9.7190   17.2566 C   0  0  0  0  0  0  0  0  0  0  0  0
    5.3488   -6.1737   26.5092 C   0  0  0  0  0  0  0  0  0  0  0  0
    7.4567   -6.9464   27.2858 C   0  0  0  0  0  0  0  0  0  0  0  0
    0.1921   -5.7592   27.1123 C   0  0  0  0  0  0  0  0  0  0  0  0
    3.5517   -7.7407   25.9711 C   0  0  0  0  0  0  0  0  0  0  0  0
  1  4  4  0
  1 22  4  0
  2 20  4  0
  2 27  4  0
  3 12  4  0
  3 23  4  0
  4 25  4  0
  4 28  1  0
  5  8  4  0
  5 17  4  0
  6  7  4  0
  6 16  4  0
  7 18  4  0
  8 27  4  0
  9 13  4  0
  9 23  4  0
 10 11  1  0
 11 14  2  0
 11 27  1  0
 12 19  1  0
 12 24  4  0
 13 24  4  0
 15 18  1  0
 16 25  4  0
 16 26  4  0
 17 20  4  0
 17 28  1  0
 18 21  4  0
 21 26  4  0
 22 26  4  0
M  END
$$$$

 Created by Python create_sdf_string function

 28 30  0  0  0  0  0  0  0  0999 V2000
    5.7174   -8.4529   26.7190 C   0  0  0  0  0  0  0  0  0  0  0  0
    0.3974   -7.0711   27.5149 C   0  0  0  0  0  0  0  0  0  0  0  0
    2.5338   -7.6891   16.0102 C   0  0  0  0  0  0  0  0  0  0  0  0
    4.8690   -7.4380   26.4151 C   0  0  0  0  0  0  0  0  0  0  0  0
    2.3021   -5.6726   26.0378 C   0  0  0  0  0  0  0  0  0  0  0  0
    7.0880   -4.6163   27.0010 C   0  0  0  0  0  0  0  0  0  0  0  0
    8.3117   -4.3698   27.4436 C   0  0  0  0  0  0  0  0  0  0  0  0
    1.1339   -5.0515   26.3541 C   0  0  0  0  0  0  0  0  0  0  0  0
    4.8080   -8.0362   16.7101 C   0  0  0  0  0  0  0  0  0  0  0  0
   -1.2173   -3.9294   26.9717 O   0  0  0  0  0  0  0  0  0  0  0  0
   -1.0025   -5.0942   27.4586 C   0  0  0  0  0  0  0  0  0  0  0  0
    2.2474   -8.9123   16.6273 C   0  0  0  0  0  0  0  0  0  0  0  0
    4.4957   -9.2636   17.3041 C   0  0  0  0  0  0  0  0  0  0  0  0
   -1.8070   -5.6086   28.1920 O   0  0  0  0  0  0  0  0  0  0  0  0
   10.4296   -5.1799   28.3140 C   0  0  0  0  0  0  0  0  0  0  0  0
    6.6017   -5.9004   26.9187 C   0  0  0  0  0  0  0  0  0  0  0  0
    2.4761   -6.9940   26.4111 N   0  0  0  0  0  0  0  0  0  0  0  0
    9.1353   -5.4053   27.8239 C   0  0  0  0  0  0  0  0  0  0  0  0
    0.9922   -9.3232   16.5995 O   0  0  0  0  0  0  0  0  0  0  0  0
    1.5232   -7.6869   27.1182 C   0  0  0  0  0  0  0  0  0  0  0  0
    8.6878   -6.6715   27.7262 N   0  0  0  0  0  0  0  0  0  0  0  0
    6.9911   -8.2423   27.1808 C   0  0  0  0  0  0  0  0  0  0  0  0
    3.8436   -7.2758   16.0578 C   0  0  0  0  0  0  0  0  0  0  0  0
    3.1882   -9.7190   17.2566 C   0  0  0  0  0  0  0  0  0  0  0  0
    5.3488   -6.1737   26.5092 C   0  0  0  0  0  0  0  0  0  0  0  0
    7.4567   -6.9464   27.2858 C   0  0  0  0  0  0  0  0  0  0  0  0
    0.1921   -5.7592   27.1123 C   0  0  0  0  0  0  0  0  0  0  0  0
    3.5517   -7.7407   25.9711 C   0  0  0  0  0  0  0  0  0  0  0  0
  1  4  4  0
  1 22  4  0
  2 20  4  0
  2 27  4  0
  3 12  4  0
  3 23  4  0
  4 25  4  0
  4 28  1  0
  5  8  4  0
  5 17  4  0
  6  7  4  0
  6 16  4  0
  7 18  4  0
  8 27  4  0
  9 13  4  0
  9 23  4  0
 10 11  1  0
 11 14  2  0
 11 27  1  0
 12 19  1  0
 12 24  4  0
 13 24  4  0
 15 18  1  0
 16 25  4  0
 16 26  4  0
 17 20  4  0
 17 28  1  0
 18 21  4  0
 21 26  4  0
 22 26  4  0
M  END
$$$$

 Created by Python create_sdf_string function

 28 30  0  0  0  0  0  0  0  0999 V2000
    5.7174   -8.4529   26.7190 C   0  0  0  0  0  0  0  0  0  0  0  0
    0.3974   -7.0711   27.5149 C   0  0  0  0  0  0  0  0  0  0  0  0
    2.5338   -7.6891   16.0102 C   0  0  0  0  0  0  0  0  0  0  0  0
    4.8690   -7.4380   26.4151 C   0  0  0  0  0  0  0  0  0  0  0  0
    2.3021   -5.6726   26.0378 C   0  0  0  0  0  0  0  0  0  0  0  0
    7.0880   -4.6163   27.0010 C   0  0  0  0  0  0  0  0  0  0  0  0
    8.3117   -4.3698   27.4436 C   0  0  0  0  0  0  0  0  0  0  0  0
    1.1339   -5.0515   26.3541 C   0  0  0  0  0  0  0  0  0  0  0  0
    4.8080   -8.0362   16.7101 C   0  0  0  0  0  0  0  0  0  0  0  0
   -1.2173   -3.9294   26.9717 O   0  0  0  0  0  0  0  0  0  0  0  0
   -1.0025   -5.0942   27.4586 C   0  0  0  0  0  0  0  0  0  0  0  0
    2.2474   -8.9123   16.6273 C   0  0  0  0  0  0  0  0  0  0  0  0
    4.4957   -9.2636   17.3041 C   0  0  0  0  0  0  0  0  0  0  0  0
   -1.8070   -5.6086   28.1920 O   0  0  0  0  0  0  0  0  0  0  0  0
   10.4296   -5.1799   28.3140 C   0  0  0  0  0  0  0  0  0  0  0  0
    6.6017   -5.9004   26.9187 C   0  0  0  0  0  0  0  0  0  0  0  0
    2.4761   -6.9940   26.4111 N   0  0  0  0  0  0  0  0  0  0  0  0
    9.1353   -5.4053   27.8239 C   0  0  0  0  0  0  0  0  0  0  0  0
    0.9922   -9.3232   16.5995 O   0  0  0  0  0  0  0  0  0  0  0  0
    1.5232   -7.6869   27.1182 C   0  0  0  0  0  0  0  0  0  0  0  0
    8.6878   -6.6715   27.7262 N   0  0  0  0  0  0  0  0  0  0  0  0
    6.9911   -8.2423   27.1808 C   0  0  0  0  0  0  0  0  0  0  0  0
    3.8436   -7.2758   16.0578 C   0  0  0  0  0  0  0  0  0  0  0  0
    3.1882   -9.7190   17.2566 C   0  0  0  0  0  0  0  0  0  0  0  0
    5.3488   -6.1737   26.5092 C   0  0  0  0  0  0  0  0  0  0  0  0
    7.4567   -6.9464   27.2858 C   0  0  0  0  0  0  0  0  0  0  0  0
    0.1921   -5.7592   27.1123 C   0  0  0  0  0  0  0  0  0  0  0  0
    3.5517   -7.7407   25.9711 C   0  0  0  0  0  0  0  0  0  0  0  0
  1  4  4  0
  1 22  4  0
  2 20  4  0
  2 27  4  0
  3 12  4  0
  3 23  4  0
  4 25  4  0
  4 28  1  0
  5  8  4  0
  5 17  4  0
  6  7  4  0
  6 16  4  0
  7 18  4  0
  8 27  4  0
  9 13  4  0
  9 23  4  0
 10 11  1  0
 11 14  2  0
 11 27  1  0
 12 19  1  0
 12 24  4  0
 13 24  4  0
 15 18  1  0
 16 25  4  0
 16 26  4  0
 17 20  4  0
 17 28  1  0
 18 21  4  0
 21 26  4  0
 22 26  4  0
M  END
$$$$

 Created by Python create_sdf_string function

 28 30  0  0  0  0  0  0  0  0999 V2000
    5.7174   -8.4529   26.7190 C   0  0  0  0  0  0  0  0  0  0  0  0
    0.3974   -7.0711   27.5149 C   0  0  0  0  0  0  0  0  0  0  0  0
    2.5338   -7.6891   16.0102 C   0  0  0  0  0  0  0  0  0  0  0  0
    4.8690   -7.4380   26.4151 C   0  0  0  0  0  0  0  0  0  0  0  0
    2.3021   -5.6726   26.0378 C   0  0  0  0  0  0  0  0  0  0  0  0
    7.0880   -4.6163   27.0010 C   0  0  0  0  0  0  0  0  0  0  0  0
    8.3117   -4.3698   27.4436 C   0  0  0  0  0  0  0  0  0  0  0  0
    1.1339   -5.0515   26.3541 C   0  0  0  0  0  0  0  0  0  0  0  0
    4.8080   -8.0362   16.7101 C   0  0  0  0  0  0  0  0  0  0  0  0
   -1.2173   -3.9294   26.9717 O   0  0  0  0  0  0  0  0  0  0  0  0
   -1.0025   -5.0942   27.4586 C   0  0  0  0  0  0  0  0  0  0  0  0
    2.2474   -8.9123   16.6273 C   0  0  0  0  0  0  0  0  0  0  0  0
    4.4957   -9.2636   17.3041 C   0  0  0  0  0  0  0  0  0  0  0  0
   -1.8070   -5.6086   28.1920 O   0  0  0  0  0  0  0  0  0  0  0  0
   10.4296   -5.1799   28.3140 C   0  0  0  0  0  0  0  0  0  0  0  0
    6.6017   -5.9004   26.9187 C   0  0  0  0  0  0  0  0  0  0  0  0
    2.4761   -6.9940   26.4111 N   0  0  0  0  0  0  0  0  0  0  0  0
    9.1353   -5.4053   27.8239 C   0  0  0  0  0  0  0  0  0  0  0  0
    0.9922   -9.3232   16.5995 O   0  0  0  0  0  0  0  0  0  0  0  0
    1.5232   -7.6869   27.1182 C   0  0  0  0  0  0  0  0  0  0  0  0
    8.6878   -6.6715   27.7262 N   0  0  0  0  0  0  0  0  0  0  0  0
    6.9911   -8.2423   27.1808 C   0  0  0  0  0  0  0  0  0  0  0  0
    3.8436   -7.2758   16.0578 C   0  0  0  0  0  0  0  0  0  0  0  0
    3.1882   -9.7190   17.2566 C   0  0  0  0  0  0  0  0  0  0  0  0
    5.3488   -6.1737   26.5092 C   0  0  0  0  0  0  0  0  0  0  0  0
    7.4567   -6.9464   27.2858 C   0  0  0  0  0  0  0  0  0  0  0  0
    0.1921   -5.7592   27.1123 C   0  0  0  0  0  0  0  0  0  0  0  0
    3.5517   -7.7407   25.9711 C   0  0  0  0  0  0  0  0  0  0  0  0
  1  4  4  0
  1 22  4  0
  2 20  4  0
  2 27  4  0
  3 12  4  0
  3 23  4  0
  4 25  4  0
  4 28  1  0
  5  8  4  0
  5 17  4  0
  6  7  4  0
  6 16  4  0
  7 18  4  0
  8 27  4  0
  9 13  4  0
  9 23  4  0
 10 11  1  0
 11 14  2  0
 11 27  1  0
 12 19  1  0
 12 24  4  0
 13 24  4  0
 15 18  1  0
 16 25  4  0
 16 26  4  0
 17 20  4  0
 17 28  1  0
 18 21  4  0
 21 26  4  0
 22 26  4  0
M  END
$$$$

 Created by Python create_sdf_string function

 28 30  0  0  0  0  0  0  0  0999 V2000
    5.7174   -8.4529   26.7190 C   0  0  0  0  0  0  0  0  0  0  0  0
    0.3974   -7.0711   27.5149 C   0  0  0  0  0  0  0  0  0  0  0  0
    2.5338   -7.6891   16.0102 C   0  0  0  0  0  0  0  0  0  0  0  0
    4.8690   -7.4380   26.4151 C   0  0  0  0  0  0  0  0  0  0  0  0
    2.3021   -5.6726   26.0378 C   0  0  0  0  0  0  0  0  0  0  0  0
    7.0880   -4.6163   27.0010 C   0  0  0  0  0  0  0  0  0  0  0  0
    8.3117   -4.3698   27.4436 C   0  0  0  0  0  0  0  0  0  0  0  0
    1.1339   -5.0515   26.3541 C   0  0  0  0  0  0  0  0  0  0  0  0
    4.8080   -8.0362   16.7101 C   0  0  0  0  0  0  0  0  0  0  0  0
   -1.2173   -3.9294   26.9717 O   0  0  0  0  0  0  0  0  0  0  0  0
   -1.0025   -5.0942   27.4586 C   0  0  0  0  0  0  0  0  0  0  0  0
    2.2474   -8.9123   16.6273 C   0  0  0  0  0  0  0  0  0  0  0  0
    4.4957   -9.2636   17.3041 C   0  0  0  0  0  0  0  0  0  0  0  0
   -1.8070   -5.6086   28.1920 O   0  0  0  0  0  0  0  0  0  0  0  0
   10.4296   -5.1799   28.3140 C   0  0  0  0  0  0  0  0  0  0  0  0
    6.6017   -5.9004   26.9187 C   0  0  0  0  0  0  0  0  0  0  0  0
    2.4761   -6.9940   26.4111 N   0  0  0  0  0  0  0  0  0  0  0  0
    9.1353   -5.4053   27.8239 C   0  0  0  0  0  0  0  0  0  0  0  0
    0.9922   -9.3232   16.5995 O   0  0  0  0  0  0  0  0  0  0  0  0
    1.5232   -7.6869   27.1182 C   0  0  0  0  0  0  0  0  0  0  0  0
    8.6878   -6.6715   27.7262 N   0  0  0  0  0  0  0  0  0  0  0  0
    6.9911   -8.2423   27.1808 C   0  0  0  0  0  0  0  0  0  0  0  0
    3.8436   -7.2758   16.0578 C   0  0  0  0  0  0  0  0  0  0  0  0
    3.1882   -9.7190   17.2566 C   0  0  0  0  0  0  0  0  0  0  0  0
    5.3488   -6.1737   26.5092 C   0  0  0  0  0  0  0  0  0  0  0  0
    7.4567   -6.9464   27.2858 C   0  0  0  0  0  0  0  0  0  0  0  0
    0.1921   -5.7592   27.1123 C   0  0  0  0  0  0  0  0  0  0  0  0
    3.5517   -7.7407   25.9711 C   0  0  0  0  0  0  0  0  0  0  0  0
  1  4  4  0
  1 22  4  0
  2 20  4  0
  2 27  4  0
  3 12  4  0
  3 23  4  0
  4 25  4  0
  4 28  1  0
  5  8  4  0
  5 17  4  0
  6  7  4  0
  6 16  4  0
  7 18  4  0
  8 27  4  0
  9 13  4  0
  9 23  4  0
 10 11  1  0
 11 14  2  0
 11 27  1  0
 12 19  1  0
 12 24  4  0
 13 24  4  0
 15 18  1  0
 16 25  4  0
 16 26  4  0
 17 20  4  0
 17 28  1  0
 18 21  4  0
 21 26  4  0
 22 26  4  0
M  END
$$$$

 Created by Python create_sdf_string function

 28 30  0  0  0  0  0  0  0  0999 V2000
    5.7174   -8.4529   26.7190 C   0  0  0  0  0  0  0  0  0  0  0  0
    0.3974   -7.0711   27.5149 C   0  0  0  0  0  0  0  0  0  0  0  0
    2.5338   -7.6891   16.0102 C   0  0  0  0  0  0  0  0  0  0  0  0
    4.8690   -7.4380   26.4151 C   0  0  0  0  0  0  0  0  0  0  0  0
    2.3021   -5.6726   26.0378 C   0  0  0  0  0  0  0  0  0  0  0  0
    7.0880   -4.6163   27.0010 C   0  0  0  0  0  0  0  0  0  0  0  0
    8.3117   -4.3698   27.4436 C   0  0  0  0  0  0  0  0  0  0  0  0
    1.1339   -5.0515   26.3541 C   0  0  0  0  0  0  0  0  0  0  0  0
    4.8080   -8.0362   16.7101 C   0  0  0  0  0  0  0  0  0  0  0  0
   -1.2173   -3.9294   26.9717 O   0  0  0  0  0  0  0  0  0  0  0  0
   -1.0025   -5.0942   27.4586 C   0  0  0  0  0  0  0  0  0  0  0  0
    2.2474   -8.9123   16.6273 C   0  0  0  0  0  0  0  0  0  0  0  0
    4.4957   -9.2636   17.3041 C   0  0  0  0  0  0  0  0  0  0  0  0
   -1.8070   -5.6086   28.1920 O   0  0  0  0  0  0  0  0  0  0  0  0
   10.4296   -5.1799   28.3140 C   0  0  0  0  0  0  0  0  0  0  0  0
    6.6017   -5.9004   26.9187 C   0  0  0  0  0  0  0  0  0  0  0  0
    2.4761   -6.9940   26.4111 N   0  0  0  0  0  0  0  0  0  0  0  0
    9.1353   -5.4053   27.8239 C   0  0  0  0  0  0  0  0  0  0  0  0
    0.9922   -9.3232   16.5995 O   0  0  0  0  0  0  0  0  0  0  0  0
    1.5232   -7.6869   27.1182 C   0  0  0  0  0  0  0  0  0  0  0  0
    8.6878   -6.6715   27.7262 N   0  0  0  0  0  0  0  0  0  0  0  0
    6.9911   -8.2423   27.1808 C   0  0  0  0  0  0  0  0  0  0  0  0
    3.8436   -7.2758   16.0578 C   0  0  0  0  0  0  0  0  0  0  0  0
    3.1882   -9.7190   17.2566 C   0  0  0  0  0  0  0  0  0  0  0  0
    5.3488   -6.1737   26.5092 C   0  0  0  0  0  0  0  0  0  0  0  0
    7.4567   -6.9464   27.2858 C   0  0  0  0  0  0  0  0  0  0  0  0
    0.1921   -5.7592   27.1123 C   0  0  0  0  0  0  0  0  0  0  0  0
    3.5517   -7.7407   25.9711 C   0  0  0  0  0  0  0  0  0  0  0  0
  1  4  4  0
  1 22  4  0
  2 20  4  0
  2 27  4  0
  3 12  4  0
  3 23  4  0
  4 25  4  0
  4 28  1  0
  5  8  4  0
  5 17  4  0
  6  7  4  0
  6 16  4  0
  7 18  4  0
  8 27  4  0
  9 13  4  0
  9 23  4  0
 10 11  1  0
 11 14  2  0
 11 27  1  0
 12 19  1  0
 12 24  4  0
 13 24  4  0
 15 18  1  0
 16 25  4  0
 16 26  4  0
 17 20  4  0
 17 28  1  0
 18 21  4  0
 21 26  4  0
 22 26  4  0
M  END
$$$$

 Created by Python create_sdf_string function

 28 30  0  0  0  0  0  0  0  0999 V2000
    5.7174   -8.4529   26.7190 C   0  0  0  0  0  0  0  0  0  0  0  0
    0.3974   -7.0711   27.5149 C   0  0  0  0  0  0  0  0  0  0  0  0
    2.5338   -7.6891   16.0102 C   0  0  0  0  0  0  0  0  0  0  0  0
    4.8690   -7.4380   26.4151 C   0  0  0  0  0  0  0  0  0  0  0  0
    2.3021   -5.6726   26.0378 C   0  0  0  0  0  0  0  0  0  0  0  0
    7.0880   -4.6163   27.0010 C   0  0  0  0  0  0  0  0  0  0  0  0
    8.3117   -4.3698   27.4436 C   0  0  0  0  0  0  0  0  0  0  0  0
    1.1339   -5.0515   26.3541 C   0  0  0  0  0  0  0  0  0  0  0  0
    4.8080   -8.0362   16.7101 C   0  0  0  0  0  0  0  0  0  0  0  0
   -1.2173   -3.9294   26.9717 O   0  0  0  0  0  0  0  0  0  0  0  0
   -1.0025   -5.0942   27.4586 C   0  0  0  0  0  0  0  0  0  0  0  0
    2.2474   -8.9123   16.6273 C   0  0  0  0  0  0  0  0  0  0  0  0
    4.4957   -9.2636   17.3041 C   0  0  0  0  0  0  0  0  0  0  0  0
   -1.8070   -5.6086   28.1920 O   0  0  0  0  0  0  0  0  0  0  0  0
   10.4296   -5.1799   28.3140 C   0  0  0  0  0  0  0  0  0  0  0  0
    6.6017   -5.9004   26.9187 C   0  0  0  0  0  0  0  0  0  0  0  0
    2.4761   -6.9940   26.4111 N   0  0  0  0  0  0  0  0  0  0  0  0
    9.1353   -5.4053   27.8239 C   0  0  0  0  0  0  0  0  0  0  0  0
    0.9922   -9.3232   16.5995 O   0  0  0  0  0  0  0  0  0  0  0  0
    1.5232   -7.6869   27.1182 C   0  0  0  0  0  0  0  0  0  0  0  0
    8.6878   -6.6715   27.7262 N   0  0  0  0  0  0  0  0  0  0  0  0
    6.9911   -8.2423   27.1808 C   0  0  0  0  0  0  0  0  0  0  0  0
    3.8436   -7.2758   16.0578 C   0  0  0  0  0  0  0  0  0  0  0  0
    3.1882   -9.7190   17.2566 C   0  0  0  0  0  0  0  0  0  0  0  0
    5.3488   -6.1737   26.5092 C   0  0  0  0  0  0  0  0  0  0  0  0
    7.4567   -6.9464   27.2858 C   0  0  0  0  0  0  0  0  0  0  0  0
    0.1921   -5.7592   27.1123 C   0  0  0  0  0  0  0  0  0  0  0  0
    3.5517   -7.7407   25.9711 C   0  0  0  0  0  0  0  0  0  0  0  0
  1  4  4  0
  1 22  4  0
  2 20  4  0
  2 27  4  0
  3 12  4  0
  3 23  4  0
  4 25  4  0
  4 28  1  0
  5  8  4  0
  5 17  4  0
  6  7  4  0
  6 16  4  0
  7 18  4  0
  8 27  4  0
  9 13  4  0
  9 23  4  0
 10 11  1  0
 11 14  2  0
 11 27  1  0
 12 19  1  0
 12 24  4  0
 13 24  4  0
 15 18  1  0
 16 25  4  0
 16 26  4  0
 17 20  4  0
 17 28  1  0
 18 21  4  0
 21 26  4  0
 22 26  4  0
M  END
$$$$

 Created by Python create_sdf_string function

 28 30  0  0  0  0  0  0  0  0999 V2000
    5.7174   -8.4529   26.7190 C   0  0  0  0  0  0  0  0  0  0  0  0
    0.3974   -7.0711   27.5149 C   0  0  0  0  0  0  0  0  0  0  0  0
    2.5338   -7.6891   16.0102 C   0  0  0  0  0  0  0  0  0  0  0  0
    4.8690   -7.4380   26.4151 C   0  0  0  0  0  0  0  0  0  0  0  0
    2.3021   -5.6726   26.0378 C   0  0  0  0  0  0  0  0  0  0  0  0
    7.0880   -4.6163   27.0010 C   0  0  0  0  0  0  0  0  0  0  0  0
    8.3117   -4.3698   27.4436 C   0  0  0  0  0  0  0  0  0  0  0  0
    1.1339   -5.0515   26.3541 C   0  0  0  0  0  0  0  0  0  0  0  0
    4.8080   -8.0362   16.7101 C   0  0  0  0  0  0  0  0  0  0  0  0
   -1.2173   -3.9294   26.9717 O   0  0  0  0  0  0  0  0  0  0  0  0
   -1.0025   -5.0942   27.4586 C   0  0  0  0  0  0  0  0  0  0  0  0
    2.2474   -8.9123   16.6273 C   0  0  0  0  0  0  0  0  0  0  0  0
    4.4957   -9.2636   17.3041 C   0  0  0  0  0  0  0  0  0  0  0  0
   -1.8070   -5.6086   28.1920 O   0  0  0  0  0  0  0  0  0  0  0  0
   10.4296   -5.1799   28.3140 C   0  0  0  0  0  0  0  0  0  0  0  0
    6.6017   -5.9004   26.9187 C   0  0  0  0  0  0  0  0  0  0  0  0
    2.4761   -6.9940   26.4111 N   0  0  0  0  0  0  0  0  0  0  0  0
    9.1353   -5.4053   27.8239 C   0  0  0  0  0  0  0  0  0  0  0  0
    0.9922   -9.3232   16.5995 O   0  0  0  0  0  0  0  0  0  0  0  0
    1.5232   -7.6869   27.1182 C   0  0  0  0  0  0  0  0  0  0  0  0
    8.6878   -6.6715   27.7262 N   0  0  0  0  0  0  0  0  0  0  0  0
    6.9911   -8.2423   27.1808 C   0  0  0  0  0  0  0  0  0  0  0  0
    3.8436   -7.2758   16.0578 C   0  0  0  0  0  0  0  0  0  0  0  0
    3.1882   -9.7190   17.2566 C   0  0  0  0  0  0  0  0  0  0  0  0
    5.3488   -6.1737   26.5092 C   0  0  0  0  0  0  0  0  0  0  0  0
    7.4567   -6.9464   27.2858 C   0  0  0  0  0  0  0  0  0  0  0  0
    0.1921   -5.7592   27.1123 C   0  0  0  0  0  0  0  0  0  0  0  0
    3.5517   -7.7407   25.9711 C   0  0  0  0  0  0  0  0  0  0  0  0
  1  4  4  0
  1 22  4  0
  2 20  4  0
  2 27  4  0
  3 12  4  0
  3 23  4  0
  4 25  4  0
  4 28  1  0
  5  8  4  0
  5 17  4  0
  6  7  4  0
  6 16  4  0
  7 18  4  0
  8 27  4  0
  9 13  4  0
  9 23  4  0
 10 11  1  0
 11 14  2  0
 11 27  1  0
 12 19  1  0
 12 24  4  0
 13 24  4  0
 15 18  1  0
 16 25  4  0
 16 26  4  0
 17 20  4  0
 17 28  1  0
 18 21  4  0
 21 26  4  0
 22 26  4  0
M  END
$$$$

 Created by Python create_sdf_string function

 28 30  0  0  0  0  0  0  0  0999 V2000
    5.7174   -8.4529   26.7190 C   0  0  0  0  0  0  0  0  0  0  0  0
    0.3974   -7.0711   27.5149 C   0  0  0  0  0  0  0  0  0  0  0  0
    2.5338   -7.6891   16.0102 C   0  0  0  0  0  0  0  0  0  0  0  0
    4.8690   -7.4380   26.4151 C   0  0  0  0  0  0  0  0  0  0  0  0
    2.3021   -5.6726   26.0378 C   0  0  0  0  0  0  0  0  0  0  0  0
    7.0880   -4.6163   27.0010 C   0  0  0  0  0  0  0  0  0  0  0  0
    8.3117   -4.3698   27.4436 C   0  0  0  0  0  0  0  0  0  0  0  0
    1.1339   -5.0515   26.3541 C   0  0  0  0  0  0  0  0  0  0  0  0
    4.8080   -8.0362   16.7101 C   0  0  0  0  0  0  0  0  0  0  0  0
   -1.2173   -3.9294   26.9717 O   0  0  0  0  0  0  0  0  0  0  0  0
   -1.0025   -5.0942   27.4586 C   0  0  0  0  0  0  0  0  0  0  0  0
    2.2474   -8.9123   16.6273 C   0  0  0  0  0  0  0  0  0  0  0  0
    4.4957   -9.2636   17.3041 C   0  0  0  0  0  0  0  0  0  0  0  0
   -1.8070   -5.6086   28.1920 O   0  0  0  0  0  0  0  0  0  0  0  0
   10.4296   -5.1799   28.3140 C   0  0  0  0  0  0  0  0  0  0  0  0
    6.6017   -5.9004   26.9187 C   0  0  0  0  0  0  0  0  0  0  0  0
    2.4761   -6.9940   26.4111 N   0  0  0  0  0  0  0  0  0  0  0  0
    9.1353   -5.4053   27.8239 C   0  0  0  0  0  0  0  0  0  0  0  0
    0.9922   -9.3232   16.5995 O   0  0  0  0  0  0  0  0  0  0  0  0
    1.5232   -7.6869   27.1182 C   0  0  0  0  0  0  0  0  0  0  0  0
    8.6878   -6.6715   27.7262 N   0  0  0  0  0  0  0  0  0  0  0  0
    6.9911   -8.2423   27.1808 C   0  0  0  0  0  0  0  0  0  0  0  0
    3.8436   -7.2758   16.0578 C   0  0  0  0  0  0  0  0  0  0  0  0
    3.1882   -9.7190   17.2566 C   0  0  0  0  0  0  0  0  0  0  0  0
    5.3488   -6.1737   26.5092 C   0  0  0  0  0  0  0  0  0  0  0  0
    7.4567   -6.9464   27.2858 C   0  0  0  0  0  0  0  0  0  0  0  0
    0.1921   -5.7592   27.1123 C   0  0  0  0  0  0  0  0  0  0  0  0
    3.5517   -7.7407   25.9711 C   0  0  0  0  0  0  0  0  0  0  0  0
  1  4  4  0
  1 22  4  0
  2 20  4  0
  2 27  4  0
  3 12  4  0
  3 23  4  0
  4 25  4  0
  4 28  1  0
  5  8  4  0
  5 17  4  0
  6  7  4  0
  6 16  4  0
  7 18  4  0
  8 27  4  0
  9 13  4  0
  9 23  4  0
 10 11  1  0
 11 14  2  0
 11 27  1  0
 12 19  1  0
 12 24  4  0
 13 24  4  0
 15 18  1  0
 16 25  4  0
 16 26  4  0
 17 20  4  0
 17 28  1  0
 18 21  4  0
 21 26  4  0
 22 26  4  0
M  END
$$$$

 Created by Python create_sdf_string function

 28 30  0  0  0  0  0  0  0  0999 V2000
    5.7174   -8.4529   26.7190 C   0  0  0  0  0  0  0  0  0  0  0  0
    0.3974   -7.0711   27.5149 C   0  0  0  0  0  0  0  0  0  0  0  0
    2.5338   -7.6891   16.0102 C   0  0  0  0  0  0  0  0  0  0  0  0
    4.8690   -7.4380   26.4151 C   0  0  0  0  0  0  0  0  0  0  0  0
    2.3021   -5.6726   26.0378 C   0  0  0  0  0  0  0  0  0  0  0  0
    7.0880   -4.6163   27.0010 C   0  0  0  0  0  0  0  0  0  0  0  0
    8.3117   -4.3698   27.4436 C   0  0  0  0  0  0  0  0  0  0  0  0
    1.1339   -5.0515   26.3541 C   0  0  0  0  0  0  0  0  0  0  0  0
    4.8080   -8.0362   16.7101 C   0  0  0  0  0  0  0  0  0  0  0  0
   -1.2173   -3.9294   26.9717 O   0  0  0  0  0  0  0  0  0  0  0  0
   -1.0025   -5.0942   27.4586 C   0  0  0  0  0  0  0  0  0  0  0  0
    2.2474   -8.9123   16.6273 C   0  0  0  0  0  0  0  0  0  0  0  0
    4.4957   -9.2636   17.3041 C   0  0  0  0  0  0  0  0  0  0  0  0
   -1.8070   -5.6086   28.1920 O   0  0  0  0  0  0  0  0  0  0  0  0
   10.4296   -5.1799   28.3140 C   0  0  0  0  0  0  0  0  0  0  0  0
    6.6017   -5.9004   26.9187 C   0  0  0  0  0  0  0  0  0  0  0  0
    2.4761   -6.9940   26.4111 N   0  0  0  0  0  0  0  0  0  0  0  0
    9.1353   -5.4053   27.8239 C   0  0  0  0  0  0  0  0  0  0  0  0
    0.9922   -9.3232   16.5995 O   0  0  0  0  0  0  0  0  0  0  0  0
    1.5232   -7.6869   27.1182 C   0  0  0  0  0  0  0  0  0  0  0  0
    8.6878   -6.6715   27.7262 N   0  0  0  0  0  0  0  0  0  0  0  0
    6.9911   -8.2423   27.1808 C   0  0  0  0  0  0  0  0  0  0  0  0
    3.8436   -7.2758   16.0578 C   0  0  0  0  0  0  0  0  0  0  0  0
    3.1882   -9.7190   17.2566 C   0  0  0  0  0  0  0  0  0  0  0  0
    5.3488   -6.1737   26.5092 C   0  0  0  0  0  0  0  0  0  0  0  0
    7.4567   -6.9464   27.2858 C   0  0  0  0  0  0  0  0  0  0  0  0
    0.1921   -5.7592   27.1123 C   0  0  0  0  0  0  0  0  0  0  0  0
    3.5517   -7.7407   25.9711 C   0  0  0  0  0  0  0  0  0  0  0  0
  1  4  4  0
  1 22  4  0
  2 20  4  0
  2 27  4  0
  3 12  4  0
  3 23  4  0
  4 25  4  0
  4 28  1  0
  5  8  4  0
  5 17  4  0
  6  7  4  0
  6 16  4  0
  7 18  4  0
  8 27  4  0
  9 13  4  0
  9 23  4  0
 10 11  1  0
 11 14  2  0
 11 27  1  0
 12 19  1  0
 12 24  4  0
 13 24  4  0
 15 18  1  0
 16 25  4  0
 16 26  4  0
 17 20  4  0
 17 28  1  0
 18 21  4  0
 21 26  4  0
 22 26  4  0
M  END
$$$$

 Created by Python create_sdf_string function

 28 30  0  0  0  0  0  0  0  0999 V2000
    5.7174   -8.4529   26.7190 C   0  0  0  0  0  0  0  0  0  0  0  0
    0.3974   -7.0711   27.5149 C   0  0  0  0  0  0  0  0  0  0  0  0
    2.5338   -7.6891   16.0102 C   0  0  0  0  0  0  0  0  0  0  0  0
    4.8690   -7.4380   26.4151 C   0  0  0  0  0  0  0  0  0  0  0  0
    2.3021   -5.6726   26.0378 C   0  0  0  0  0  0  0  0  0  0  0  0
    7.0880   -4.6163   27.0010 C   0  0  0  0  0  0  0  0  0  0  0  0
    8.3117   -4.3698   27.4436 C   0  0  0  0  0  0  0  0  0  0  0  0
    1.1339   -5.0515   26.3541 C   0  0  0  0  0  0  0  0  0  0  0  0
    4.8080   -8.0362   16.7101 C   0  0  0  0  0  0  0  0  0  0  0  0
   -1.2173   -3.9294   26.9717 O   0  0  0  0  0  0  0  0  0  0  0  0
   -1.0025   -5.0942   27.4586 C   0  0  0  0  0  0  0  0  0  0  0  0
    2.2474   -8.9123   16.6273 C   0  0  0  0  0  0  0  0  0  0  0  0
    4.4957   -9.2636   17.3041 C   0  0  0  0  0  0  0  0  0  0  0  0
   -1.8070   -5.6086   28.1920 O   0  0  0  0  0  0  0  0  0  0  0  0
   10.4296   -5.1799   28.3140 C   0  0  0  0  0  0  0  0  0  0  0  0
    6.6017   -5.9004   26.9187 C   0  0  0  0  0  0  0  0  0  0  0  0
    2.4761   -6.9940   26.4111 N   0  0  0  0  0  0  0  0  0  0  0  0
    9.1353   -5.4053   27.8239 C   0  0  0  0  0  0  0  0  0  0  0  0
    0.9922   -9.3232   16.5995 O   0  0  0  0  0  0  0  0  0  0  0  0
    1.5232   -7.6869   27.1182 C   0  0  0  0  0  0  0  0  0  0  0  0
    8.6878   -6.6715   27.7262 N   0  0  0  0  0  0  0  0  0  0  0  0
    6.9911   -8.2423   27.1808 C   0  0  0  0  0  0  0  0  0  0  0  0
    3.8436   -7.2758   16.0578 C   0  0  0  0  0  0  0  0  0  0  0  0
    3.1882   -9.7190   17.2566 C   0  0  0  0  0  0  0  0  0  0  0  0
    5.3488   -6.1737   26.5092 C   0  0  0  0  0  0  0  0  0  0  0  0
    7.4567   -6.9464   27.2858 C   0  0  0  0  0  0  0  0  0  0  0  0
    0.1921   -5.7592   27.1123 C   0  0  0  0  0  0  0  0  0  0  0  0
    3.5517   -7.7407   25.9711 C   0  0  0  0  0  0  0  0  0  0  0  0
  1  4  4  0
  1 22  4  0
  2 20  4  0
  2 27  4  0
  3 12  4  0
  3 23  4  0
  4 25  4  0
  4 28  1  0
  5  8  4  0
  5 17  4  0
  6  7  4  0
  6 16  4  0
  7 18  4  0
  8 27  4  0
  9 13  4  0
  9 23  4  0
 10 11  1  0
 11 14  2  0
 11 27  1  0
 12 19  1  0
 12 24  4  0
 13 24  4  0
 15 18  1  0
 16 25  4  0
 16 26  4  0
 17 20  4  0
 17 28  1  0
 18 21  4  0
 21 26  4  0
 22 26  4  0
M  END
$$$$

 Created by Python create_sdf_string function

 28 30  0  0  0  0  0  0  0  0999 V2000
    5.7174   -8.4529   26.7190 C   0  0  0  0  0  0  0  0  0  0  0  0
    0.3974   -7.0711   27.5149 C   0  0  0  0  0  0  0  0  0  0  0  0
    2.5338   -7.6891   16.0102 C   0  0  0  0  0  0  0  0  0  0  0  0
    4.8690   -7.4380   26.4151 C   0  0  0  0  0  0  0  0  0  0  0  0
    2.3021   -5.6726   26.0378 C   0  0  0  0  0  0  0  0  0  0  0  0
    7.0880   -4.6163   27.0010 C   0  0  0  0  0  0  0  0  0  0  0  0
    8.3117   -4.3698   27.4436 C   0  0  0  0  0  0  0  0  0  0  0  0
    1.1339   -5.0515   26.3541 C   0  0  0  0  0  0  0  0  0  0  0  0
    4.8080   -8.0362   16.7101 C   0  0  0  0  0  0  0  0  0  0  0  0
   -1.2173   -3.9294   26.9717 O   0  0  0  0  0  0  0  0  0  0  0  0
   -1.0025   -5.0942   27.4586 C   0  0  0  0  0  0  0  0  0  0  0  0
    2.2474   -8.9123   16.6273 C   0  0  0  0  0  0  0  0  0  0  0  0
    4.4957   -9.2636   17.3041 C   0  0  0  0  0  0  0  0  0  0  0  0
   -1.8070   -5.6086   28.1920 O   0  0  0  0  0  0  0  0  0  0  0  0
   10.4296   -5.1799   28.3140 C   0  0  0  0  0  0  0  0  0  0  0  0
    6.6017   -5.9004   26.9187 C   0  0  0  0  0  0  0  0  0  0  0  0
    2.4761   -6.9940   26.4111 N   0  0  0  0  0  0  0  0  0  0  0  0
    9.1353   -5.4053   27.8239 C   0  0  0  0  0  0  0  0  0  0  0  0
    0.9922   -9.3232   16.5995 O   0  0  0  0  0  0  0  0  0  0  0  0
    1.5232   -7.6869   27.1182 C   0  0  0  0  0  0  0  0  0  0  0  0
    8.6878   -6.6715   27.7262 N   0  0  0  0  0  0  0  0  0  0  0  0
    6.9911   -8.2423   27.1808 C   0  0  0  0  0  0  0  0  0  0  0  0
    3.8436   -7.2758   16.0578 C   0  0  0  0  0  0  0  0  0  0  0  0
    3.1882   -9.7190   17.2566 C   0  0  0  0  0  0  0  0  0  0  0  0
    5.3488   -6.1737   26.5092 C   0  0  0  0  0  0  0  0  0  0  0  0
    7.4567   -6.9464   27.2858 C   0  0  0  0  0  0  0  0  0  0  0  0
    0.1921   -5.7592   27.1123 C   0  0  0  0  0  0  0  0  0  0  0  0
    3.5517   -7.7407   25.9711 C   0  0  0  0  0  0  0  0  0  0  0  0
  1  4  4  0
  1 22  4  0
  2 20  4  0
  2 27  4  0
  3 12  4  0
  3 23  4  0
  4 25  4  0
  4 28  1  0
  5  8  4  0
  5 17  4  0
  6  7  4  0
  6 16  4  0
  7 18  4  0
  8 27  4  0
  9 13  4  0
  9 23  4  0
 10 11  1  0
 11 14  2  0
 11 27  1  0
 12 19  1  0
 12 24  4  0
 13 24  4  0
 15 18  1  0
 16 25  4  0
 16 26  4  0
 17 20  4  0
 17 28  1  0
 18 21  4  0
 21 26  4  0
 22 26  4  0
M  END
$$$$

 Created by Python create_sdf_string function

 28 30  0  0  0  0  0  0  0  0999 V2000
    5.7174   -8.4529   26.7190 C   0  0  0  0  0  0  0  0  0  0  0  0
    0.3974   -7.0711   27.5149 C   0  0  0  0  0  0  0  0  0  0  0  0
    2.5338   -7.6891   16.0102 C   0  0  0  0  0  0  0  0  0  0  0  0
    4.8690   -7.4380   26.4151 C   0  0  0  0  0  0  0  0  0  0  0  0
    2.3021   -5.6726   26.0378 C   0  0  0  0  0  0  0  0  0  0  0  0
    7.0880   -4.6163   27.0010 C   0  0  0  0  0  0  0  0  0  0  0  0
    8.3117   -4.3698   27.4436 C   0  0  0  0  0  0  0  0  0  0  0  0
    1.1339   -5.0515   26.3541 C   0  0  0  0  0  0  0  0  0  0  0  0
    4.8080   -8.0362   16.7101 C   0  0  0  0  0  0  0  0  0  0  0  0
   -1.2173   -3.9294   26.9717 O   0  0  0  0  0  0  0  0  0  0  0  0
   -1.0025   -5.0942   27.4586 C   0  0  0  0  0  0  0  0  0  0  0  0
    2.2474   -8.9123   16.6273 C   0  0  0  0  0  0  0  0  0  0  0  0
    4.4957   -9.2636   17.3041 C   0  0  0  0  0  0  0  0  0  0  0  0
   -1.8070   -5.6086   28.1920 O   0  0  0  0  0  0  0  0  0  0  0  0
   10.4296   -5.1799   28.3140 C   0  0  0  0  0  0  0  0  0  0  0  0
    6.6017   -5.9004   26.9187 C   0  0  0  0  0  0  0  0  0  0  0  0
    2.4761   -6.9940   26.4111 N   0  0  0  0  0  0  0  0  0  0  0  0
    9.1353   -5.4053   27.8239 C   0  0  0  0  0  0  0  0  0  0  0  0
    0.9922   -9.3232   16.5995 O   0  0  0  0  0  0  0  0  0  0  0  0
    1.5232   -7.6869   27.1182 C   0  0  0  0  0  0  0  0  0  0  0  0
    8.6878   -6.6715   27.7262 N   0  0  0  0  0  0  0  0  0  0  0  0
    6.9911   -8.2423   27.1808 C   0  0  0  0  0  0  0  0  0  0  0  0
    3.8436   -7.2758   16.0578 C   0  0  0  0  0  0  0  0  0  0  0  0
    3.1882   -9.7190   17.2566 C   0  0  0  0  0  0  0  0  0  0  0  0
    5.3488   -6.1737   26.5092 C   0  0  0  0  0  0  0  0  0  0  0  0
    7.4567   -6.9464   27.2858 C   0  0  0  0  0  0  0  0  0  0  0  0
    0.1921   -5.7592   27.1123 C   0  0  0  0  0  0  0  0  0  0  0  0
    3.5517   -7.7407   25.9711 C   0  0  0  0  0  0  0  0  0  0  0  0
  1  4  4  0
  1 22  4  0
  2 20  4  0
  2 27  4  0
  3 12  4  0
  3 23  4  0
  4 25  4  0
  4 28  1  0
  5  8  4  0
  5 17  4  0
  6  7  4  0
  6 16  4  0
  7 18  4  0
  8 27  4  0
  9 13  4  0
  9 23  4  0
 10 11  1  0
 11 14  2  0
 11 27  1  0
 12 19  1  0
 12 24  4  0
 13 24  4  0
 15 18  1  0
 16 25  4  0
 16 26  4  0
 17 20  4  0
 17 28  1  0
 18 21  4  0
 21 26  4  0
 22 26  4  0
M  END
$$$$

 Created by Python create_sdf_string function

 28 30  0  0  0  0  0  0  0  0999 V2000
    5.7174   -8.4529   26.7190 C   0  0  0  0  0  0  0  0  0  0  0  0
    0.3974   -7.0711   27.5149 C   0  0  0  0  0  0  0  0  0  0  0  0
    2.5338   -7.6891   16.0102 C   0  0  0  0  0  0  0  0  0  0  0  0
    4.8690   -7.4380   26.4151 C   0  0  0  0  0  0  0  0  0  0  0  0
    2.3021   -5.6726   26.0378 C   0  0  0  0  0  0  0  0  0  0  0  0
    7.0880   -4.6163   27.0010 C   0  0  0  0  0  0  0  0  0  0  0  0
    8.3117   -4.3698   27.4436 C   0  0  0  0  0  0  0  0  0  0  0  0
    1.1339   -5.0515   26.3541 C   0  0  0  0  0  0  0  0  0  0  0  0
    4.8080   -8.0362   16.7101 C   0  0  0  0  0  0  0  0  0  0  0  0
   -1.2173   -3.9294   26.9717 O   0  0  0  0  0  0  0  0  0  0  0  0
   -1.0025   -5.0942   27.4586 C   0  0  0  0  0  0  0  0  0  0  0  0
    2.2474   -8.9123   16.6273 C   0  0  0  0  0  0  0  0  0  0  0  0
    4.4957   -9.2636   17.3041 C   0  0  0  0  0  0  0  0  0  0  0  0
   -1.8070   -5.6086   28.1920 O   0  0  0  0  0  0  0  0  0  0  0  0
   10.4296   -5.1799   28.3140 C   0  0  0  0  0  0  0  0  0  0  0  0
    6.6017   -5.9004   26.9187 C   0  0  0  0  0  0  0  0  0  0  0  0
    2.4761   -6.9940   26.4111 N   0  0  0  0  0  0  0  0  0  0  0  0
    9.1353   -5.4053   27.8239 C   0  0  0  0  0  0  0  0  0  0  0  0
    0.9922   -9.3232   16.5995 O   0  0  0  0  0  0  0  0  0  0  0  0
    1.5232   -7.6869   27.1182 C   0  0  0  0  0  0  0  0  0  0  0  0
    8.6878   -6.6715   27.7262 N   0  0  0  0  0  0  0  0  0  0  0  0
    6.9911   -8.2423   27.1808 C   0  0  0  0  0  0  0  0  0  0  0  0
    3.8436   -7.2758   16.0578 C   0  0  0  0  0  0  0  0  0  0  0  0
    3.1882   -9.7190   17.2566 C   0  0  0  0  0  0  0  0  0  0  0  0
    5.3488   -6.1737   26.5092 C   0  0  0  0  0  0  0  0  0  0  0  0
    7.4567   -6.9464   27.2858 C   0  0  0  0  0  0  0  0  0  0  0  0
    0.1921   -5.7592   27.1123 C   0  0  0  0  0  0  0  0  0  0  0  0
    3.5517   -7.7407   25.9711 C   0  0  0  0  0  0  0  0  0  0  0  0
  1  4  4  0
  1 22  4  0
  2 20  4  0
  2 27  4  0
  3 12  4  0
  3 23  4  0
  4 25  4  0
  4 28  1  0
  5  8  4  0
  5 17  4  0
  6  7  4  0
  6 16  4  0
  7 18  4  0
  8 27  4  0
  9 13  4  0
  9 23  4  0
 10 11  1  0
 11 14  2  0
 11 27  1  0
 12 19  1  0
 12 24  4  0
 13 24  4  0
 15 18  1  0
 16 25  4  0
 16 26  4  0
 17 20  4  0
 17 28  1  0
 18 21  4  0
 21 26  4  0
 22 26  4  0
M  END
$$$$

 Created by Python create_sdf_string function

 28 30  0  0  0  0  0  0  0  0999 V2000
    5.7174   -8.4529   26.7190 C   0  0  0  0  0  0  0  0  0  0  0  0
    0.3974   -7.0711   27.5149 C   0  0  0  0  0  0  0  0  0  0  0  0
    2.5338   -7.6891   16.0102 C   0  0  0  0  0  0  0  0  0  0  0  0
    4.8690   -7.4380   26.4151 C   0  0  0  0  0  0  0  0  0  0  0  0
    2.3021   -5.6726   26.0378 C   0  0  0  0  0  0  0  0  0  0  0  0
    7.0880   -4.6163   27.0010 C   0  0  0  0  0  0  0  0  0  0  0  0
    8.3117   -4.3698   27.4436 C   0  0  0  0  0  0  0  0  0  0  0  0
    1.1339   -5.0515   26.3541 C   0  0  0  0  0  0  0  0  0  0  0  0
    4.8080   -8.0362   16.7101 C   0  0  0  0  0  0  0  0  0  0  0  0
   -1.2173   -3.9294   26.9717 O   0  0  0  0  0  0  0  0  0  0  0  0
   -1.0025   -5.0942   27.4586 C   0  0  0  0  0  0  0  0  0  0  0  0
    2.2474   -8.9123   16.6273 C   0  0  0  0  0  0  0  0  0  0  0  0
    4.4957   -9.2636   17.3041 C   0  0  0  0  0  0  0  0  0  0  0  0
   -1.8070   -5.6086   28.1920 O   0  0  0  0  0  0  0  0  0  0  0  0
   10.4296   -5.1799   28.3140 C   0  0  0  0  0  0  0  0  0  0  0  0
    6.6017   -5.9004   26.9187 C   0  0  0  0  0  0  0  0  0  0  0  0
    2.4761   -6.9940   26.4111 N   0  0  0  0  0  0  0  0  0  0  0  0
    9.1353   -5.4053   27.8239 C   0  0  0  0  0  0  0  0  0  0  0  0
    0.9922   -9.3232   16.5995 O   0  0  0  0  0  0  0  0  0  0  0  0
    1.5232   -7.6869   27.1182 C   0  0  0  0  0  0  0  0  0  0  0  0
    8.6878   -6.6715   27.7262 N   0  0  0  0  0  0  0  0  0  0  0  0
    6.9911   -8.2423   27.1808 C   0  0  0  0  0  0  0  0  0  0  0  0
    3.8436   -7.2758   16.0578 C   0  0  0  0  0  0  0  0  0  0  0  0
    3.1882   -9.7190   17.2566 C   0  0  0  0  0  0  0  0  0  0  0  0
    5.3488   -6.1737   26.5092 C   0  0  0  0  0  0  0  0  0  0  0  0
    7.4567   -6.9464   27.2858 C   0  0  0  0  0  0  0  0  0  0  0  0
    0.1921   -5.7592   27.1123 C   0  0  0  0  0  0  0  0  0  0  0  0
    3.5517   -7.7407   25.9711 C   0  0  0  0  0  0  0  0  0  0  0  0
  1  4  4  0
  1 22  4  0
  2 20  4  0
  2 27  4  0
  3 12  4  0
  3 23  4  0
  4 25  4  0
  4 28  1  0
  5  8  4  0
  5 17  4  0
  6  7  4  0
  6 16  4  0
  7 18  4  0
  8 27  4  0
  9 13  4  0
  9 23  4  0
 10 11  1  0
 11 14  2  0
 11 27  1  0
 12 19  1  0
 12 24  4  0
 13 24  4  0
 15 18  1  0
 16 25  4  0
 16 26  4  0
 17 20  4  0
 17 28  1  0
 18 21  4  0
 21 26  4  0
 22 26  4  0
M  END
$$$$

 Created by Python create_sdf_string function

 28 30  0  0  0  0  0  0  0  0999 V2000
    5.7174   -8.4529   26.7190 C   0  0  0  0  0  0  0  0  0  0  0  0
    0.3974   -7.0711   27.5149 C   0  0  0  0  0  0  0  0  0  0  0  0
    2.5338   -7.6891   16.0102 C   0  0  0  0  0  0  0  0  0  0  0  0
    4.8690   -7.4380   26.4151 C   0  0  0  0  0  0  0  0  0  0  0  0
    2.3021   -5.6726   26.0378 C   0  0  0  0  0  0  0  0  0  0  0  0
    7.0880   -4.6163   27.0010 C   0  0  0  0  0  0  0  0  0  0  0  0
    8.3117   -4.3698   27.4436 C   0  0  0  0  0  0  0  0  0  0  0  0
    1.1339   -5.0515   26.3541 C   0  0  0  0  0  0  0  0  0  0  0  0
    4.8080   -8.0362   16.7101 C   0  0  0  0  0  0  0  0  0  0  0  0
   -1.2173   -3.9294   26.9717 O   0  0  0  0  0  0  0  0  0  0  0  0
   -1.0025   -5.0942   27.4586 C   0  0  0  0  0  0  0  0  0  0  0  0
    2.2474   -8.9123   16.6273 C   0  0  0  0  0  0  0  0  0  0  0  0
    4.4957   -9.2636   17.3041 C   0  0  0  0  0  0  0  0  0  0  0  0
   -1.8070   -5.6086   28.1920 O   0  0  0  0  0  0  0  0  0  0  0  0
   10.4296   -5.1799   28.3140 C   0  0  0  0  0  0  0  0  0  0  0  0
    6.6017   -5.9004   26.9187 C   0  0  0  0  0  0  0  0  0  0  0  0
    2.4761   -6.9940   26.4111 N   0  0  0  0  0  0  0  0  0  0  0  0
    9.1353   -5.4053   27.8239 C   0  0  0  0  0  0  0  0  0  0  0  0
    0.9922   -9.3232   16.5995 O   0  0  0  0  0  0  0  0  0  0  0  0
    1.5232   -7.6869   27.1182 C   0  0  0  0  0  0  0  0  0  0  0  0
    8.6878   -6.6715   27.7262 N   0  0  0  0  0  0  0  0  0  0  0  0
    6.9911   -8.2423   27.1808 C   0  0  0  0  0  0  0  0  0  0  0  0
    3.8436   -7.2758   16.0578 C   0  0  0  0  0  0  0  0  0  0  0  0
    3.1882   -9.7190   17.2566 C   0  0  0  0  0  0  0  0  0  0  0  0
    5.3488   -6.1737   26.5092 C   0  0  0  0  0  0  0  0  0  0  0  0
    7.4567   -6.9464   27.2858 C   0  0  0  0  0  0  0  0  0  0  0  0
    0.1921   -5.7592   27.1123 C   0  0  0  0  0  0  0  0  0  0  0  0
    3.5517   -7.7407   25.9711 C   0  0  0  0  0  0  0  0  0  0  0  0
  1  4  4  0
  1 22  4  0
  2 20  4  0
  2 27  4  0
  3 12  4  0
  3 23  4  0
  4 25  4  0
  4 28  1  0
  5  8  4  0
  5 17  4  0
  6  7  4  0
  6 16  4  0
  7 18  4  0
  8 27  4  0
  9 13  4  0
  9 23  4  0
 10 11  1  0
 11 14  2  0
 11 27  1  0
 12 19  1  0
 12 24  4  0
 13 24  4  0
 15 18  1  0
 16 25  4  0
 16 26  4  0
 17 20  4  0
 17 28  1  0
 18 21  4  0
 21 26  4  0
 22 26  4  0
M  END
$$$$

 Created by Python create_sdf_string function

 28 30  0  0  0  0  0  0  0  0999 V2000
    5.7174   -8.4529   26.7190 C   0  0  0  0  0  0  0  0  0  0  0  0
    0.3974   -7.0711   27.5149 C   0  0  0  0  0  0  0  0  0  0  0  0
    2.5338   -7.6891   16.0102 C   0  0  0  0  0  0  0  0  0  0  0  0
    4.8690   -7.4380   26.4151 C   0  0  0  0  0  0  0  0  0  0  0  0
    2.3021   -5.6726   26.0378 C   0  0  0  0  0  0  0  0  0  0  0  0
    7.0880   -4.6163   27.0010 C   0  0  0  0  0  0  0  0  0  0  0  0
    8.3117   -4.3698   27.4436 C   0  0  0  0  0  0  0  0  0  0  0  0
    1.1339   -5.0515   26.3541 C   0  0  0  0  0  0  0  0  0  0  0  0
    4.8080   -8.0362   16.7101 C   0  0  0  0  0  0  0  0  0  0  0  0
   -1.2173   -3.9294   26.9717 O   0  0  0  0  0  0  0  0  0  0  0  0
   -1.0025   -5.0942   27.4586 C   0  0  0  0  0  0  0  0  0  0  0  0
    2.2474   -8.9123   16.6273 C   0  0  0  0  0  0  0  0  0  0  0  0
    4.4957   -9.2636   17.3041 C   0  0  0  0  0  0  0  0  0  0  0  0
   -1.8070   -5.6086   28.1920 O   0  0  0  0  0  0  0  0  0  0  0  0
   10.4296   -5.1799   28.3140 C   0  0  0  0  0  0  0  0  0  0  0  0
    6.6017   -5.9004   26.9187 C   0  0  0  0  0  0  0  0  0  0  0  0
    2.4761   -6.9940   26.4111 N   0  0  0  0  0  0  0  0  0  0  0  0
    9.1353   -5.4053   27.8239 C   0  0  0  0  0  0  0  0  0  0  0  0
    0.9922   -9.3232   16.5995 O   0  0  0  0  0  0  0  0  0  0  0  0
    1.5232   -7.6869   27.1182 C   0  0  0  0  0  0  0  0  0  0  0  0
    8.6878   -6.6715   27.7262 N   0  0  0  0  0  0  0  0  0  0  0  0
    6.9911   -8.2423   27.1808 C   0  0  0  0  0  0  0  0  0  0  0  0
    3.8436   -7.2758   16.0578 C   0  0  0  0  0  0  0  0  0  0  0  0
    3.1882   -9.7190   17.2566 C   0  0  0  0  0  0  0  0  0  0  0  0
    5.3488   -6.1737   26.5092 C   0  0  0  0  0  0  0  0  0  0  0  0
    7.4567   -6.9464   27.2858 C   0  0  0  0  0  0  0  0  0  0  0  0
    0.1921   -5.7592   27.1123 C   0  0  0  0  0  0  0  0  0  0  0  0
    3.5517   -7.7407   25.9711 C   0  0  0  0  0  0  0  0  0  0  0  0
  1  4  4  0
  1 22  4  0
  2 20  4  0
  2 27  4  0
  3 12  4  0
  3 23  4  0
  4 25  4  0
  4 28  1  0
  5  8  4  0
  5 17  4  0
  6  7  4  0
  6 16  4  0
  7 18  4  0
  8 27  4  0
  9 13  4  0
  9 23  4  0
 10 11  1  0
 11 14  2  0
 11 27  1  0
 12 19  1  0
 12 24  4  0
 13 24  4  0
 15 18  1  0
 16 25  4  0
 16 26  4  0
 17 20  4  0
 17 28  1  0
 18 21  4  0
 21 26  4  0
 22 26  4  0
M  END
$$$$

 Created by Python create_sdf_string function

 28 30  0  0  0  0  0  0  0  0999 V2000
    5.7174   -8.4529   26.7190 C   0  0  0  0  0  0  0  0  0  0  0  0
    0.3974   -7.0711   27.5149 C   0  0  0  0  0  0  0  0  0  0  0  0
    2.5338   -7.6891   16.0102 C   0  0  0  0  0  0  0  0  0  0  0  0
    4.8690   -7.4380   26.4151 C   0  0  0  0  0  0  0  0  0  0  0  0
    2.3021   -5.6726   26.0378 C   0  0  0  0  0  0  0  0  0  0  0  0
    7.0880   -4.6163   27.0010 C   0  0  0  0  0  0  0  0  0  0  0  0
    8.3117   -4.3698   27.4436 C   0  0  0  0  0  0  0  0  0  0  0  0
    1.1339   -5.0515   26.3541 C   0  0  0  0  0  0  0  0  0  0  0  0
    4.8080   -8.0362   16.7101 C   0  0  0  0  0  0  0  0  0  0  0  0
   -1.2173   -3.9294   26.9717 O   0  0  0  0  0  0  0  0  0  0  0  0
   -1.0025   -5.0942   27.4586 C   0  0  0  0  0  0  0  0  0  0  0  0
    2.2474   -8.9123   16.6273 C   0  0  0  0  0  0  0  0  0  0  0  0
    4.4957   -9.2636   17.3041 C   0  0  0  0  0  0  0  0  0  0  0  0
   -1.8070   -5.6086   28.1920 O   0  0  0  0  0  0  0  0  0  0  0  0
   10.4296   -5.1799   28.3140 C   0  0  0  0  0  0  0  0  0  0  0  0
    6.6017   -5.9004   26.9187 C   0  0  0  0  0  0  0  0  0  0  0  0
    2.4761   -6.9940   26.4111 N   0  0  0  0  0  0  0  0  0  0  0  0
    9.1353   -5.4053   27.8239 C   0  0  0  0  0  0  0  0  0  0  0  0
    0.9922   -9.3232   16.5995 O   0  0  0  0  0  0  0  0  0  0  0  0
    1.5232   -7.6869   27.1182 C   0  0  0  0  0  0  0  0  0  0  0  0
    8.6878   -6.6715   27.7262 N   0  0  0  0  0  0  0  0  0  0  0  0
    6.9911   -8.2423   27.1808 C   0  0  0  0  0  0  0  0  0  0  0  0
    3.8436   -7.2758   16.0578 C   0  0  0  0  0  0  0  0  0  0  0  0
    3.1882   -9.7190   17.2566 C   0  0  0  0  0  0  0  0  0  0  0  0
    5.3488   -6.1737   26.5092 C   0  0  0  0  0  0  0  0  0  0  0  0
    7.4567   -6.9464   27.2858 C   0  0  0  0  0  0  0  0  0  0  0  0
    0.1921   -5.7592   27.1123 C   0  0  0  0  0  0  0  0  0  0  0  0
    3.5517   -7.7407   25.9711 C   0  0  0  0  0  0  0  0  0  0  0  0
  1  4  4  0
  1 22  4  0
  2 20  4  0
  2 27  4  0
  3 12  4  0
  3 23  4  0
  4 25  4  0
  4 28  1  0
  5  8  4  0
  5 17  4  0
  6  7  4  0
  6 16  4  0
  7 18  4  0
  8 27  4  0
  9 13  4  0
  9 23  4  0
 10 11  1  0
 11 14  2  0
 11 27  1  0
 12 19  1  0
 12 24  4  0
 13 24  4  0
 15 18  1  0
 16 25  4  0
 16 26  4  0
 17 20  4  0
 17 28  1  0
 18 21  4  0
 21 26  4  0
 22 26  4  0
M  END
$$$$

 Created by Python create_sdf_string function

 28 30  0  0  0  0  0  0  0  0999 V2000
    5.7174   -8.4529   26.7190 C   0  0  0  0  0  0  0  0  0  0  0  0
    0.3974   -7.0711   27.5149 C   0  0  0  0  0  0  0  0  0  0  0  0
    2.5338   -7.6891   16.0102 C   0  0  0  0  0  0  0  0  0  0  0  0
    4.8690   -7.4380   26.4151 C   0  0  0  0  0  0  0  0  0  0  0  0
    2.3021   -5.6726   26.0378 C   0  0  0  0  0  0  0  0  0  0  0  0
    7.0880   -4.6163   27.0010 C   0  0  0  0  0  0  0  0  0  0  0  0
    8.3117   -4.3698   27.4436 C   0  0  0  0  0  0  0  0  0  0  0  0
    1.1339   -5.0515   26.3541 C   0  0  0  0  0  0  0  0  0  0  0  0
    4.8080   -8.0362   16.7101 C   0  0  0  0  0  0  0  0  0  0  0  0
   -1.2173   -3.9294   26.9717 O   0  0  0  0  0  0  0  0  0  0  0  0
   -1.0025   -5.0942   27.4586 C   0  0  0  0  0  0  0  0  0  0  0  0
    2.2474   -8.9123   16.6273 C   0  0  0  0  0  0  0  0  0  0  0  0
    4.4957   -9.2636   17.3041 C   0  0  0  0  0  0  0  0  0  0  0  0
   -1.8070   -5.6086   28.1920 O   0  0  0  0  0  0  0  0  0  0  0  0
   10.4296   -5.1799   28.3140 C   0  0  0  0  0  0  0  0  0  0  0  0
    6.6017   -5.9004   26.9187 C   0  0  0  0  0  0  0  0  0  0  0  0
    2.4761   -6.9940   26.4111 N   0  0  0  0  0  0  0  0  0  0  0  0
    9.1353   -5.4053   27.8239 C   0  0  0  0  0  0  0  0  0  0  0  0
    0.9922   -9.3232   16.5995 O   0  0  0  0  0  0  0  0  0  0  0  0
    1.5232   -7.6869   27.1182 C   0  0  0  0  0  0  0  0  0  0  0  0
    8.6878   -6.6715   27.7262 N   0  0  0  0  0  0  0  0  0  0  0  0
    6.9911   -8.2423   27.1808 C   0  0  0  0  0  0  0  0  0  0  0  0
    3.8436   -7.2758   16.0578 C   0  0  0  0  0  0  0  0  0  0  0  0
    3.1882   -9.7190   17.2566 C   0  0  0  0  0  0  0  0  0  0  0  0
    5.3488   -6.1737   26.5092 C   0  0  0  0  0  0  0  0  0  0  0  0
    7.4567   -6.9464   27.2858 C   0  0  0  0  0  0  0  0  0  0  0  0
    0.1921   -5.7592   27.1123 C   0  0  0  0  0  0  0  0  0  0  0  0
    3.5517   -7.7407   25.9711 C   0  0  0  0  0  0  0  0  0  0  0  0
  1  4  4  0
  1 22  4  0
  2 20  4  0
  2 27  4  0
  3 12  4  0
  3 23  4  0
  4 25  4  0
  4 28  1  0
  5  8  4  0
  5 17  4  0
  6  7  4  0
  6 16  4  0
  7 18  4  0
  8 27  4  0
  9 13  4  0
  9 23  4  0
 10 11  1  0
 11 14  2  0
 11 27  1  0
 12 19  1  0
 12 24  4  0
 13 24  4  0
 15 18  1  0
 16 25  4  0
 16 26  4  0
 17 20  4  0
 17 28  1  0
 18 21  4  0
 21 26  4  0
 22 26  4  0
M  END
$$$$

 Created by Python create_sdf_string function

 28 30  0  0  0  0  0  0  0  0999 V2000
    5.7174   -8.4529   26.7190 C   0  0  0  0  0  0  0  0  0  0  0  0
    0.3974   -7.0711   27.5149 C   0  0  0  0  0  0  0  0  0  0  0  0
    2.5338   -7.6891   16.0102 C   0  0  0  0  0  0  0  0  0  0  0  0
    4.8690   -7.4380   26.4151 C   0  0  0  0  0  0  0  0  0  0  0  0
    2.3021   -5.6726   26.0378 C   0  0  0  0  0  0  0  0  0  0  0  0
    7.0880   -4.6163   27.0010 C   0  0  0  0  0  0  0  0  0  0  0  0
    8.3117   -4.3698   27.4436 C   0  0  0  0  0  0  0  0  0  0  0  0
    1.1339   -5.0515   26.3541 C   0  0  0  0  0  0  0  0  0  0  0  0
    4.8080   -8.0362   16.7101 C   0  0  0  0  0  0  0  0  0  0  0  0
   -1.2173   -3.9294   26.9717 O   0  0  0  0  0  0  0  0  0  0  0  0
   -1.0025   -5.0942   27.4586 C   0  0  0  0  0  0  0  0  0  0  0  0
    2.2474   -8.9123   16.6273 C   0  0  0  0  0  0  0  0  0  0  0  0
    4.4957   -9.2636   17.3041 C   0  0  0  0  0  0  0  0  0  0  0  0
   -1.8070   -5.6086   28.1920 O   0  0  0  0  0  0  0  0  0  0  0  0
   10.4296   -5.1799   28.3140 C   0  0  0  0  0  0  0  0  0  0  0  0
    6.6017   -5.9004   26.9187 C   0  0  0  0  0  0  0  0  0  0  0  0
    2.4761   -6.9940   26.4111 N   0  0  0  0  0  0  0  0  0  0  0  0
    9.1353   -5.4053   27.8239 C   0  0  0  0  0  0  0  0  0  0  0  0
    0.9922   -9.3232   16.5995 O   0  0  0  0  0  0  0  0  0  0  0  0
    1.5232   -7.6869   27.1182 C   0  0  0  0  0  0  0  0  0  0  0  0
    8.6878   -6.6715   27.7262 N   0  0  0  0  0  0  0  0  0  0  0  0
    6.9911   -8.2423   27.1808 C   0  0  0  0  0  0  0  0  0  0  0  0
    3.8436   -7.2758   16.0578 C   0  0  0  0  0  0  0  0  0  0  0  0
    3.1882   -9.7190   17.2566 C   0  0  0  0  0  0  0  0  0  0  0  0
    5.3488   -6.1737   26.5092 C   0  0  0  0  0  0  0  0  0  0  0  0
    7.4567   -6.9464   27.2858 C   0  0  0  0  0  0  0  0  0  0  0  0
    0.1921   -5.7592   27.1123 C   0  0  0  0  0  0  0  0  0  0  0  0
    3.5517   -7.7407   25.9711 C   0  0  0  0  0  0  0  0  0  0  0  0
  1  4  4  0
  1 22  4  0
  2 20  4  0
  2 27  4  0
  3 12  4  0
  3 23  4  0
  4 25  4  0
  4 28  1  0
  5  8  4  0
  5 17  4  0
  6  7  4  0
  6 16  4  0
  7 18  4  0
  8 27  4  0
  9 13  4  0
  9 23  4  0
 10 11  1  0
 11 14  2  0
 11 27  1  0
 12 19  1  0
 12 24  4  0
 13 24  4  0
 15 18  1  0
 16 25  4  0
 16 26  4  0
 17 20  4  0
 17 28  1  0
 18 21  4  0
 21 26  4  0
 22 26  4  0
M  END
$$$$

 Created by Python create_sdf_string function

 28 30  0  0  0  0  0  0  0  0999 V2000
    5.7174   -8.4529   26.7190 C   0  0  0  0  0  0  0  0  0  0  0  0
    0.3974   -7.0711   27.5149 C   0  0  0  0  0  0  0  0  0  0  0  0
    2.5338   -7.6891   16.0102 C   0  0  0  0  0  0  0  0  0  0  0  0
    4.8690   -7.4380   26.4151 C   0  0  0  0  0  0  0  0  0  0  0  0
    2.3021   -5.6726   26.0378 C   0  0  0  0  0  0  0  0  0  0  0  0
    7.0880   -4.6163   27.0010 C   0  0  0  0  0  0  0  0  0  0  0  0
    8.3117   -4.3698   27.4436 C   0  0  0  0  0  0  0  0  0  0  0  0
    1.1339   -5.0515   26.3541 C   0  0  0  0  0  0  0  0  0  0  0  0
    4.8080   -8.0362   16.7101 C   0  0  0  0  0  0  0  0  0  0  0  0
   -1.2173   -3.9294   26.9717 O   0  0  0  0  0  0  0  0  0  0  0  0
   -1.0025   -5.0942   27.4586 C   0  0  0  0  0  0  0  0  0  0  0  0
    2.2474   -8.9123   16.6273 C   0  0  0  0  0  0  0  0  0  0  0  0
    4.4957   -9.2636   17.3041 C   0  0  0  0  0  0  0  0  0  0  0  0
   -1.8070   -5.6086   28.1920 O   0  0  0  0  0  0  0  0  0  0  0  0
   10.4296   -5.1799   28.3140 C   0  0  0  0  0  0  0  0  0  0  0  0
    6.6017   -5.9004   26.9187 C   0  0  0  0  0  0  0  0  0  0  0  0
    2.4761   -6.9940   26.4111 N   0  0  0  0  0  0  0  0  0  0  0  0
    9.1353   -5.4053   27.8239 C   0  0  0  0  0  0  0  0  0  0  0  0
    0.9922   -9.3232   16.5995 O   0  0  0  0  0  0  0  0  0  0  0  0
    1.5232   -7.6869   27.1182 C   0  0  0  0  0  0  0  0  0  0  0  0
    8.6878   -6.6715   27.7262 N   0  0  0  0  0  0  0  0  0  0  0  0
    6.9911   -8.2423   27.1808 C   0  0  0  0  0  0  0  0  0  0  0  0
    3.8436   -7.2758   16.0578 C   0  0  0  0  0  0  0  0  0  0  0  0
    3.1882   -9.7190   17.2566 C   0  0  0  0  0  0  0  0  0  0  0  0
    5.3488   -6.1737   26.5092 C   0  0  0  0  0  0  0  0  0  0  0  0
    7.4567   -6.9464   27.2858 C   0  0  0  0  0  0  0  0  0  0  0  0
    0.1921   -5.7592   27.1123 C   0  0  0  0  0  0  0  0  0  0  0  0
    3.5517   -7.7407   25.9711 C   0  0  0  0  0  0  0  0  0  0  0  0
  1  4  4  0
  1 22  4  0
  2 20  4  0
  2 27  4  0
  3 12  4  0
  3 23  4  0
  4 25  4  0
  4 28  1  0
  5  8  4  0
  5 17  4  0
  6  7  4  0
  6 16  4  0
  7 18  4  0
  8 27  4  0
  9 13  4  0
  9 23  4  0
 10 11  1  0
 11 14  2  0
 11 27  1  0
 12 19  1  0
 12 24  4  0
 13 24  4  0
 15 18  1  0
 16 25  4  0
 16 26  4  0
 17 20  4  0
 17 28  1  0
 18 21  4  0
 21 26  4  0
 22 26  4  0
M  END
$$$$

 Created by Python create_sdf_string function

 28 30  0  0  0  0  0  0  0  0999 V2000
    5.7174   -8.4529   26.7190 C   0  0  0  0  0  0  0  0  0  0  0  0
    0.3974   -7.0711   27.5149 C   0  0  0  0  0  0  0  0  0  0  0  0
    2.5338   -7.6891   16.0102 C   0  0  0  0  0  0  0  0  0  0  0  0
    4.8690   -7.4380   26.4151 C   0  0  0  0  0  0  0  0  0  0  0  0
    2.3021   -5.6726   26.0378 C   0  0  0  0  0  0  0  0  0  0  0  0
    7.0880   -4.6163   27.0010 C   0  0  0  0  0  0  0  0  0  0  0  0
    8.3117   -4.3698   27.4436 C   0  0  0  0  0  0  0  0  0  0  0  0
    1.1339   -5.0515   26.3541 C   0  0  0  0  0  0  0  0  0  0  0  0
    4.8080   -8.0362   16.7101 C   0  0  0  0  0  0  0  0  0  0  0  0
   -1.2173   -3.9294   26.9717 O   0  0  0  0  0  0  0  0  0  0  0  0
   -1.0025   -5.0942   27.4586 C   0  0  0  0  0  0  0  0  0  0  0  0
    2.2474   -8.9123   16.6273 C   0  0  0  0  0  0  0  0  0  0  0  0
    4.4957   -9.2636   17.3041 C   0  0  0  0  0  0  0  0  0  0  0  0
   -1.8070   -5.6086   28.1920 O   0  0  0  0  0  0  0  0  0  0  0  0
   10.4296   -5.1799   28.3140 C   0  0  0  0  0  0  0  0  0  0  0  0
    6.6017   -5.9004   26.9187 C   0  0  0  0  0  0  0  0  0  0  0  0
    2.4761   -6.9940   26.4111 N   0  0  0  0  0  0  0  0  0  0  0  0
    9.1353   -5.4053   27.8239 C   0  0  0  0  0  0  0  0  0  0  0  0
    0.9922   -9.3232   16.5995 O   0  0  0  0  0  0  0  0  0  0  0  0
    1.5232   -7.6869   27.1182 C   0  0  0  0  0  0  0  0  0  0  0  0
    8.6878   -6.6715   27.7262 N   0  0  0  0  0  0  0  0  0  0  0  0
    6.9911   -8.2423   27.1808 C   0  0  0  0  0  0  0  0  0  0  0  0
    3.8436   -7.2758   16.0578 C   0  0  0  0  0  0  0  0  0  0  0  0
    3.1882   -9.7190   17.2566 C   0  0  0  0  0  0  0  0  0  0  0  0
    5.3488   -6.1737   26.5092 C   0  0  0  0  0  0  0  0  0  0  0  0
    7.4567   -6.9464   27.2858 C   0  0  0  0  0  0  0  0  0  0  0  0
    0.1921   -5.7592   27.1123 C   0  0  0  0  0  0  0  0  0  0  0  0
    3.5517   -7.7407   25.9711 C   0  0  0  0  0  0  0  0  0  0  0  0
  1  4  4  0
  1 22  4  0
  2 20  4  0
  2 27  4  0
  3 12  4  0
  3 23  4  0
  4 25  4  0
  4 28  1  0
  5  8  4  0
  5 17  4  0
  6  7  4  0
  6 16  4  0
  7 18  4  0
  8 27  4  0
  9 13  4  0
  9 23  4  0
 10 11  1  0
 11 14  2  0
 11 27  1  0
 12 19  1  0
 12 24  4  0
 13 24  4  0
 15 18  1  0
 16 25  4  0
 16 26  4  0
 17 20  4  0
 17 28  1  0
 18 21  4  0
 21 26  4  0
 22 26  4  0
M  END
$$$$

 Created by Python create_sdf_string function

 28 30  0  0  0  0  0  0  0  0999 V2000
    5.7174   -8.4529   26.7190 C   0  0  0  0  0  0  0  0  0  0  0  0
    0.3974   -7.0711   27.5149 C   0  0  0  0  0  0  0  0  0  0  0  0
    2.5338   -7.6891   16.0102 C   0  0  0  0  0  0  0  0  0  0  0  0
    4.8690   -7.4380   26.4151 C   0  0  0  0  0  0  0  0  0  0  0  0
    2.3021   -5.6726   26.0378 C   0  0  0  0  0  0  0  0  0  0  0  0
    7.0880   -4.6163   27.0010 C   0  0  0  0  0  0  0  0  0  0  0  0
    8.3117   -4.3698   27.4436 C   0  0  0  0  0  0  0  0  0  0  0  0
    1.1339   -5.0515   26.3541 C   0  0  0  0  0  0  0  0  0  0  0  0
    4.8080   -8.0362   16.7101 C   0  0  0  0  0  0  0  0  0  0  0  0
   -1.2173   -3.9294   26.9717 O   0  0  0  0  0  0  0  0  0  0  0  0
   -1.0025   -5.0942   27.4586 C   0  0  0  0  0  0  0  0  0  0  0  0
    2.2474   -8.9123   16.6273 C   0  0  0  0  0  0  0  0  0  0  0  0
    4.4957   -9.2636   17.3041 C   0  0  0  0  0  0  0  0  0  0  0  0
   -1.8070   -5.6086   28.1920 O   0  0  0  0  0  0  0  0  0  0  0  0
   10.4296   -5.1799   28.3140 C   0  0  0  0  0  0  0  0  0  0  0  0
    6.6017   -5.9004   26.9187 C   0  0  0  0  0  0  0  0  0  0  0  0
    2.4761   -6.9940   26.4111 N   0  0  0  0  0  0  0  0  0  0  0  0
    9.1353   -5.4053   27.8239 C   0  0  0  0  0  0  0  0  0  0  0  0
    0.9922   -9.3232   16.5995 O   0  0  0  0  0  0  0  0  0  0  0  0
    1.5232   -7.6869   27.1182 C   0  0  0  0  0  0  0  0  0  0  0  0
    8.6878   -6.6715   27.7262 N   0  0  0  0  0  0  0  0  0  0  0  0
    6.9911   -8.2423   27.1808 C   0  0  0  0  0  0  0  0  0  0  0  0
    3.8436   -7.2758   16.0578 C   0  0  0  0  0  0  0  0  0  0  0  0
    3.1882   -9.7190   17.2566 C   0  0  0  0  0  0  0  0  0  0  0  0
    5.3488   -6.1737   26.5092 C   0  0  0  0  0  0  0  0  0  0  0  0
    7.4567   -6.9464   27.2858 C   0  0  0  0  0  0  0  0  0  0  0  0
    0.1921   -5.7592   27.1123 C   0  0  0  0  0  0  0  0  0  0  0  0
    3.5517   -7.7407   25.9711 C   0  0  0  0  0  0  0  0  0  0  0  0
  1  4  4  0
  1 22  4  0
  2 20  4  0
  2 27  4  0
  3 12  4  0
  3 23  4  0
  4 25  4  0
  4 28  1  0
  5  8  4  0
  5 17  4  0
  6  7  4  0
  6 16  4  0
  7 18  4  0
  8 27  4  0
  9 13  4  0
  9 23  4  0
 10 11  1  0
 11 14  2  0
 11 27  1  0
 12 19  1  0
 12 24  4  0
 13 24  4  0
 15 18  1  0
 16 25  4  0
 16 26  4  0
 17 20  4  0
 17 28  1  0
 18 21  4  0
 21 26  4  0
 22 26  4  0
M  END
$$$$

 Created by Python create_sdf_string function

 28 30  0  0  0  0  0  0  0  0999 V2000
    5.7174   -8.4529   26.7190 C   0  0  0  0  0  0  0  0  0  0  0  0
    0.3974   -7.0711   27.5149 C   0  0  0  0  0  0  0  0  0  0  0  0
    2.5338   -7.6891   16.0102 C   0  0  0  0  0  0  0  0  0  0  0  0
    4.8690   -7.4380   26.4151 C   0  0  0  0  0  0  0  0  0  0  0  0
    2.3021   -5.6726   26.0378 C   0  0  0  0  0  0  0  0  0  0  0  0
    7.0880   -4.6163   27.0010 C   0  0  0  0  0  0  0  0  0  0  0  0
    8.3117   -4.3698   27.4436 C   0  0  0  0  0  0  0  0  0  0  0  0
    1.1339   -5.0515   26.3541 C   0  0  0  0  0  0  0  0  0  0  0  0
    4.8080   -8.0362   16.7101 C   0  0  0  0  0  0  0  0  0  0  0  0
   -1.2173   -3.9294   26.9717 O   0  0  0  0  0  0  0  0  0  0  0  0
   -1.0025   -5.0942   27.4586 C   0  0  0  0  0  0  0  0  0  0  0  0
    2.2474   -8.9123   16.6273 C   0  0  0  0  0  0  0  0  0  0  0  0
    4.4957   -9.2636   17.3041 C   0  0  0  0  0  0  0  0  0  0  0  0
   -1.8070   -5.6086   28.1920 O   0  0  0  0  0  0  0  0  0  0  0  0
   10.4296   -5.1799   28.3140 C   0  0  0  0  0  0  0  0  0  0  0  0
    6.6017   -5.9004   26.9187 C   0  0  0  0  0  0  0  0  0  0  0  0
    2.4761   -6.9940   26.4111 N   0  0  0  0  0  0  0  0  0  0  0  0
    9.1353   -5.4053   27.8239 C   0  0  0  0  0  0  0  0  0  0  0  0
    0.9922   -9.3232   16.5995 O   0  0  0  0  0  0  0  0  0  0  0  0
    1.5232   -7.6869   27.1182 C   0  0  0  0  0  0  0  0  0  0  0  0
    8.6878   -6.6715   27.7262 N   0  0  0  0  0  0  0  0  0  0  0  0
    6.9911   -8.2423   27.1808 C   0  0  0  0  0  0  0  0  0  0  0  0
    3.8436   -7.2758   16.0578 C   0  0  0  0  0  0  0  0  0  0  0  0
    3.1882   -9.7190   17.2566 C   0  0  0  0  0  0  0  0  0  0  0  0
    5.3488   -6.1737   26.5092 C   0  0  0  0  0  0  0  0  0  0  0  0
    7.4567   -6.9464   27.2858 C   0  0  0  0  0  0  0  0  0  0  0  0
    0.1921   -5.7592   27.1123 C   0  0  0  0  0  0  0  0  0  0  0  0
    3.5517   -7.7407   25.9711 C   0  0  0  0  0  0  0  0  0  0  0  0
  1  4  4  0
  1 22  4  0
  2 20  4  0
  2 27  4  0
  3 12  4  0
  3 23  4  0
  4 25  4  0
  4 28  1  0
  5  8  4  0
  5 17  4  0
  6  7  4  0
  6 16  4  0
  7 18  4  0
  8 27  4  0
  9 13  4  0
  9 23  4  0
 10 11  1  0
 11 14  2  0
 11 27  1  0
 12 19  1  0
 12 24  4  0
 13 24  4  0
 15 18  1  0
 16 25  4  0
 16 26  4  0
 17 20  4  0
 17 28  1  0
 18 21  4  0
 21 26  4  0
 22 26  4  0
M  END
$$$$

 Created by Python create_sdf_string function

 28 30  0  0  0  0  0  0  0  0999 V2000
    5.7174   -8.4529   26.7190 C   0  0  0  0  0  0  0  0  0  0  0  0
    0.3974   -7.0711   27.5149 C   0  0  0  0  0  0  0  0  0  0  0  0
    2.5338   -7.6891   16.0102 C   0  0  0  0  0  0  0  0  0  0  0  0
    4.8690   -7.4380   26.4151 C   0  0  0  0  0  0  0  0  0  0  0  0
    2.3021   -5.6726   26.0378 C   0  0  0  0  0  0  0  0  0  0  0  0
    7.0880   -4.6163   27.0010 C   0  0  0  0  0  0  0  0  0  0  0  0
    8.3117   -4.3698   27.4436 C   0  0  0  0  0  0  0  0  0  0  0  0
    1.1339   -5.0515   26.3541 C   0  0  0  0  0  0  0  0  0  0  0  0
    4.8080   -8.0362   16.7101 C   0  0  0  0  0  0  0  0  0  0  0  0
   -1.2173   -3.9294   26.9717 O   0  0  0  0  0  0  0  0  0  0  0  0
   -1.0025   -5.0942   27.4586 C   0  0  0  0  0  0  0  0  0  0  0  0
    2.2474   -8.9123   16.6273 C   0  0  0  0  0  0  0  0  0  0  0  0
    4.4957   -9.2636   17.3041 C   0  0  0  0  0  0  0  0  0  0  0  0
   -1.8070   -5.6086   28.1920 O   0  0  0  0  0  0  0  0  0  0  0  0
   10.4296   -5.1799   28.3140 C   0  0  0  0  0  0  0  0  0  0  0  0
    6.6017   -5.9004   26.9187 C   0  0  0  0  0  0  0  0  0  0  0  0
    2.4761   -6.9940   26.4111 N   0  0  0  0  0  0  0  0  0  0  0  0
    9.1353   -5.4053   27.8239 C   0  0  0  0  0  0  0  0  0  0  0  0
    0.9922   -9.3232   16.5995 O   0  0  0  0  0  0  0  0  0  0  0  0
    1.5232   -7.6869   27.1182 C   0  0  0  0  0  0  0  0  0  0  0  0
    8.6878   -6.6715   27.7262 N   0  0  0  0  0  0  0  0  0  0  0  0
    6.9911   -8.2423   27.1808 C   0  0  0  0  0  0  0  0  0  0  0  0
    3.8436   -7.2758   16.0578 C   0  0  0  0  0  0  0  0  0  0  0  0
    3.1882   -9.7190   17.2566 C   0  0  0  0  0  0  0  0  0  0  0  0
    5.3488   -6.1737   26.5092 C   0  0  0  0  0  0  0  0  0  0  0  0
    7.4567   -6.9464   27.2858 C   0  0  0  0  0  0  0  0  0  0  0  0
    0.1921   -5.7592   27.1123 C   0  0  0  0  0  0  0  0  0  0  0  0
    3.5517   -7.7407   25.9711 C   0  0  0  0  0  0  0  0  0  0  0  0
  1  4  4  0
  1 22  4  0
  2 20  4  0
  2 27  4  0
  3 12  4  0
  3 23  4  0
  4 25  4  0
  4 28  1  0
  5  8  4  0
  5 17  4  0
  6  7  4  0
  6 16  4  0
  7 18  4  0
  8 27  4  0
  9 13  4  0
  9 23  4  0
 10 11  1  0
 11 14  2  0
 11 27  1  0
 12 19  1  0
 12 24  4  0
 13 24  4  0
 15 18  1  0
 16 25  4  0
 16 26  4  0
 17 20  4  0
 17 28  1  0
 18 21  4  0
 21 26  4  0
 22 26  4  0
M  END
$$$$

 Created by Python create_sdf_string function

 28 30  0  0  0  0  0  0  0  0999 V2000
    5.7174   -8.4529   26.7190 C   0  0  0  0  0  0  0  0  0  0  0  0
    0.3974   -7.0711   27.5149 C   0  0  0  0  0  0  0  0  0  0  0  0
    2.5338   -7.6891   16.0102 C   0  0  0  0  0  0  0  0  0  0  0  0
    4.8690   -7.4380   26.4151 C   0  0  0  0  0  0  0  0  0  0  0  0
    2.3021   -5.6726   26.0378 C   0  0  0  0  0  0  0  0  0  0  0  0
    7.0880   -4.6163   27.0010 C   0  0  0  0  0  0  0  0  0  0  0  0
    8.3117   -4.3698   27.4436 C   0  0  0  0  0  0  0  0  0  0  0  0
    1.1339   -5.0515   26.3541 C   0  0  0  0  0  0  0  0  0  0  0  0
    4.8080   -8.0362   16.7101 C   0  0  0  0  0  0  0  0  0  0  0  0
   -1.2173   -3.9294   26.9717 O   0  0  0  0  0  0  0  0  0  0  0  0
   -1.0025   -5.0942   27.4586 C   0  0  0  0  0  0  0  0  0  0  0  0
    2.2474   -8.9123   16.6273 C   0  0  0  0  0  0  0  0  0  0  0  0
    4.4957   -9.2636   17.3041 C   0  0  0  0  0  0  0  0  0  0  0  0
   -1.8070   -5.6086   28.1920 O   0  0  0  0  0  0  0  0  0  0  0  0
   10.4296   -5.1799   28.3140 C   0  0  0  0  0  0  0  0  0  0  0  0
    6.6017   -5.9004   26.9187 C   0  0  0  0  0  0  0  0  0  0  0  0
    2.4761   -6.9940   26.4111 N   0  0  0  0  0  0  0  0  0  0  0  0
    9.1353   -5.4053   27.8239 C   0  0  0  0  0  0  0  0  0  0  0  0
    0.9922   -9.3232   16.5995 O   0  0  0  0  0  0  0  0  0  0  0  0
    1.5232   -7.6869   27.1182 C   0  0  0  0  0  0  0  0  0  0  0  0
    8.6878   -6.6715   27.7262 N   0  0  0  0  0  0  0  0  0  0  0  0
    6.9911   -8.2423   27.1808 C   0  0  0  0  0  0  0  0  0  0  0  0
    3.8436   -7.2758   16.0578 C   0  0  0  0  0  0  0  0  0  0  0  0
    3.1882   -9.7190   17.2566 C   0  0  0  0  0  0  0  0  0  0  0  0
    5.3488   -6.1737   26.5092 C   0  0  0  0  0  0  0  0  0  0  0  0
    7.4567   -6.9464   27.2858 C   0  0  0  0  0  0  0  0  0  0  0  0
    0.1921   -5.7592   27.1123 C   0  0  0  0  0  0  0  0  0  0  0  0
    3.5517   -7.7407   25.9711 C   0  0  0  0  0  0  0  0  0  0  0  0
  1  4  4  0
  1 22  4  0
  2 20  4  0
  2 27  4  0
  3 12  4  0
  3 23  4  0
  4 25  4  0
  4 28  1  0
  5  8  4  0
  5 17  4  0
  6  7  4  0
  6 16  4  0
  7 18  4  0
  8 27  4  0
  9 13  4  0
  9 23  4  0
 10 11  1  0
 11 14  2  0
 11 27  1  0
 12 19  1  0
 12 24  4  0
 13 24  4  0
 15 18  1  0
 16 25  4  0
 16 26  4  0
 17 20  4  0
 17 28  1  0
 18 21  4  0
 21 26  4  0
 22 26  4  0
M  END
$$$$

 Created by Python create_sdf_string function

 28 30  0  0  0  0  0  0  0  0999 V2000
    5.7174   -8.4529   26.7190 C   0  0  0  0  0  0  0  0  0  0  0  0
    0.3974   -7.0711   27.5149 C   0  0  0  0  0  0  0  0  0  0  0  0
    2.5338   -7.6891   16.0102 C   0  0  0  0  0  0  0  0  0  0  0  0
    4.8690   -7.4380   26.4151 C   0  0  0  0  0  0  0  0  0  0  0  0
    2.3021   -5.6726   26.0378 C   0  0  0  0  0  0  0  0  0  0  0  0
    7.0880   -4.6163   27.0010 C   0  0  0  0  0  0  0  0  0  0  0  0
    8.3117   -4.3698   27.4436 C   0  0  0  0  0  0  0  0  0  0  0  0
    1.1339   -5.0515   26.3541 C   0  0  0  0  0  0  0  0  0  0  0  0
    4.8080   -8.0362   16.7101 C   0  0  0  0  0  0  0  0  0  0  0  0
   -1.2173   -3.9294   26.9717 O   0  0  0  0  0  0  0  0  0  0  0  0
   -1.0025   -5.0942   27.4586 C   0  0  0  0  0  0  0  0  0  0  0  0
    2.2474   -8.9123   16.6273 C   0  0  0  0  0  0  0  0  0  0  0  0
    4.4957   -9.2636   17.3041 C   0  0  0  0  0  0  0  0  0  0  0  0
   -1.8070   -5.6086   28.1920 O   0  0  0  0  0  0  0  0  0  0  0  0
   10.4296   -5.1799   28.3140 C   0  0  0  0  0  0  0  0  0  0  0  0
    6.6017   -5.9004   26.9187 C   0  0  0  0  0  0  0  0  0  0  0  0
    2.4761   -6.9940   26.4111 N   0  0  0  0  0  0  0  0  0  0  0  0
    9.1353   -5.4053   27.8239 C   0  0  0  0  0  0  0  0  0  0  0  0
    0.9922   -9.3232   16.5995 O   0  0  0  0  0  0  0  0  0  0  0  0
    1.5232   -7.6869   27.1182 C   0  0  0  0  0  0  0  0  0  0  0  0
    8.6878   -6.6715   27.7262 N   0  0  0  0  0  0  0  0  0  0  0  0
    6.9911   -8.2423   27.1808 C   0  0  0  0  0  0  0  0  0  0  0  0
    3.8436   -7.2758   16.0578 C   0  0  0  0  0  0  0  0  0  0  0  0
    3.1882   -9.7190   17.2566 C   0  0  0  0  0  0  0  0  0  0  0  0
    5.3488   -6.1737   26.5092 C   0  0  0  0  0  0  0  0  0  0  0  0
    7.4567   -6.9464   27.2858 C   0  0  0  0  0  0  0  0  0  0  0  0
    0.1921   -5.7592   27.1123 C   0  0  0  0  0  0  0  0  0  0  0  0
    3.5517   -7.7407   25.9711 C   0  0  0  0  0  0  0  0  0  0  0  0
  1  4  4  0
  1 22  4  0
  2 20  4  0
  2 27  4  0
  3 12  4  0
  3 23  4  0
  4 25  4  0
  4 28  1  0
  5  8  4  0
  5 17  4  0
  6  7  4  0
  6 16  4  0
  7 18  4  0
  8 27  4  0
  9 13  4  0
  9 23  4  0
 10 11  1  0
 11 14  2  0
 11 27  1  0
 12 19  1  0
 12 24  4  0
 13 24  4  0
 15 18  1  0
 16 25  4  0
 16 26  4  0
 17 20  4  0
 17 28  1  0
 18 21  4  0
 21 26  4  0
 22 26  4  0
M  END
$$$$

 Created by Python create_sdf_string function

 28 30  0  0  0  0  0  0  0  0999 V2000
    5.7174   -8.4529   26.7190 C   0  0  0  0  0  0  0  0  0  0  0  0
    0.3974   -7.0711   27.5149 C   0  0  0  0  0  0  0  0  0  0  0  0
    2.5338   -7.6891   16.0102 C   0  0  0  0  0  0  0  0  0  0  0  0
    4.8690   -7.4380   26.4151 C   0  0  0  0  0  0  0  0  0  0  0  0
    2.3021   -5.6726   26.0378 C   0  0  0  0  0  0  0  0  0  0  0  0
    7.0880   -4.6163   27.0010 C   0  0  0  0  0  0  0  0  0  0  0  0
    8.3117   -4.3698   27.4436 C   0  0  0  0  0  0  0  0  0  0  0  0
    1.1339   -5.0515   26.3541 C   0  0  0  0  0  0  0  0  0  0  0  0
    4.8080   -8.0362   16.7101 C   0  0  0  0  0  0  0  0  0  0  0  0
   -1.2173   -3.9294   26.9717 O   0  0  0  0  0  0  0  0  0  0  0  0
   -1.0025   -5.0942   27.4586 C   0  0  0  0  0  0  0  0  0  0  0  0
    2.2474   -8.9123   16.6273 C   0  0  0  0  0  0  0  0  0  0  0  0
    4.4957   -9.2636   17.3041 C   0  0  0  0  0  0  0  0  0  0  0  0
   -1.8070   -5.6086   28.1920 O   0  0  0  0  0  0  0  0  0  0  0  0
   10.4296   -5.1799   28.3140 C   0  0  0  0  0  0  0  0  0  0  0  0
    6.6017   -5.9004   26.9187 C   0  0  0  0  0  0  0  0  0  0  0  0
    2.4761   -6.9940   26.4111 N   0  0  0  0  0  0  0  0  0  0  0  0
    9.1353   -5.4053   27.8239 C   0  0  0  0  0  0  0  0  0  0  0  0
    0.9922   -9.3232   16.5995 O   0  0  0  0  0  0  0  0  0  0  0  0
    1.5232   -7.6869   27.1182 C   0  0  0  0  0  0  0  0  0  0  0  0
    8.6878   -6.6715   27.7262 N   0  0  0  0  0  0  0  0  0  0  0  0
    6.9911   -8.2423   27.1808 C   0  0  0  0  0  0  0  0  0  0  0  0
    3.8436   -7.2758   16.0578 C   0  0  0  0  0  0  0  0  0  0  0  0
    3.1882   -9.7190   17.2566 C   0  0  0  0  0  0  0  0  0  0  0  0
    5.3488   -6.1737   26.5092 C   0  0  0  0  0  0  0  0  0  0  0  0
    7.4567   -6.9464   27.2858 C   0  0  0  0  0  0  0  0  0  0  0  0
    0.1921   -5.7592   27.1123 C   0  0  0  0  0  0  0  0  0  0  0  0
    3.5517   -7.7407   25.9711 C   0  0  0  0  0  0  0  0  0  0  0  0
  1  4  4  0
  1 22  4  0
  2 20  4  0
  2 27  4  0
  3 12  4  0
  3 23  4  0
  4 25  4  0
  4 28  1  0
  5  8  4  0
  5 17  4  0
  6  7  4  0
  6 16  4  0
  7 18  4  0
  8 27  4  0
  9 13  4  0
  9 23  4  0
 10 11  1  0
 11 14  2  0
 11 27  1  0
 12 19  1  0
 12 24  4  0
 13 24  4  0
 15 18  1  0
 16 25  4  0
 16 26  4  0
 17 20  4  0
 17 28  1  0
 18 21  4  0
 21 26  4  0
 22 26  4  0
M  END
$$$$

 Created by Python create_sdf_string function

 28 30  0  0  0  0  0  0  0  0999 V2000
    5.7174   -8.4529   26.7190 C   0  0  0  0  0  0  0  0  0  0  0  0
    0.3974   -7.0711   27.5149 C   0  0  0  0  0  0  0  0  0  0  0  0
    2.5338   -7.6891   16.0102 C   0  0  0  0  0  0  0  0  0  0  0  0
    4.8690   -7.4380   26.4151 C   0  0  0  0  0  0  0  0  0  0  0  0
    2.3021   -5.6726   26.0378 C   0  0  0  0  0  0  0  0  0  0  0  0
    7.0880   -4.6163   27.0010 C   0  0  0  0  0  0  0  0  0  0  0  0
    8.3117   -4.3698   27.4436 C   0  0  0  0  0  0  0  0  0  0  0  0
    1.1339   -5.0515   26.3541 C   0  0  0  0  0  0  0  0  0  0  0  0
    4.8080   -8.0362   16.7101 C   0  0  0  0  0  0  0  0  0  0  0  0
   -1.2173   -3.9294   26.9717 O   0  0  0  0  0  0  0  0  0  0  0  0
   -1.0025   -5.0942   27.4586 C   0  0  0  0  0  0  0  0  0  0  0  0
    2.2474   -8.9123   16.6273 C   0  0  0  0  0  0  0  0  0  0  0  0
    4.4957   -9.2636   17.3041 C   0  0  0  0  0  0  0  0  0  0  0  0
   -1.8070   -5.6086   28.1920 O   0  0  0  0  0  0  0  0  0  0  0  0
   10.4296   -5.1799   28.3140 C   0  0  0  0  0  0  0  0  0  0  0  0
    6.6017   -5.9004   26.9187 C   0  0  0  0  0  0  0  0  0  0  0  0
    2.4761   -6.9940   26.4111 N   0  0  0  0  0  0  0  0  0  0  0  0
    9.1353   -5.4053   27.8239 C   0  0  0  0  0  0  0  0  0  0  0  0
    0.9922   -9.3232   16.5995 O   0  0  0  0  0  0  0  0  0  0  0  0
    1.5232   -7.6869   27.1182 C   0  0  0  0  0  0  0  0  0  0  0  0
    8.6878   -6.6715   27.7262 N   0  0  0  0  0  0  0  0  0  0  0  0
    6.9911   -8.2423   27.1808 C   0  0  0  0  0  0  0  0  0  0  0  0
    3.8436   -7.2758   16.0578 C   0  0  0  0  0  0  0  0  0  0  0  0
    3.1882   -9.7190   17.2566 C   0  0  0  0  0  0  0  0  0  0  0  0
    5.3488   -6.1737   26.5092 C   0  0  0  0  0  0  0  0  0  0  0  0
    7.4567   -6.9464   27.2858 C   0  0  0  0  0  0  0  0  0  0  0  0
    0.1921   -5.7592   27.1123 C   0  0  0  0  0  0  0  0  0  0  0  0
    3.5517   -7.7407   25.9711 C   0  0  0  0  0  0  0  0  0  0  0  0
  1  4  4  0
  1 22  4  0
  2 20  4  0
  2 27  4  0
  3 12  4  0
  3 23  4  0
  4 25  4  0
  4 28  1  0
  5  8  4  0
  5 17  4  0
  6  7  4  0
  6 16  4  0
  7 18  4  0
  8 27  4  0
  9 13  4  0
  9 23  4  0
 10 11  1  0
 11 14  2  0
 11 27  1  0
 12 19  1  0
 12 24  4  0
 13 24  4  0
 15 18  1  0
 16 25  4  0
 16 26  4  0
 17 20  4  0
 17 28  1  0
 18 21  4  0
 21 26  4  0
 22 26  4  0
M  END
$$$$

 Created by Python create_sdf_string function

 28 30  0  0  0  0  0  0  0  0999 V2000
    5.7174   -8.4529   26.7190 C   0  0  0  0  0  0  0  0  0  0  0  0
    0.3974   -7.0711   27.5149 C   0  0  0  0  0  0  0  0  0  0  0  0
    2.5338   -7.6891   16.0102 C   0  0  0  0  0  0  0  0  0  0  0  0
    4.8690   -7.4380   26.4151 C   0  0  0  0  0  0  0  0  0  0  0  0
    2.3021   -5.6726   26.0378 C   0  0  0  0  0  0  0  0  0  0  0  0
    7.0880   -4.6163   27.0010 C   0  0  0  0  0  0  0  0  0  0  0  0
    8.3117   -4.3698   27.4436 C   0  0  0  0  0  0  0  0  0  0  0  0
    1.1339   -5.0515   26.3541 C   0  0  0  0  0  0  0  0  0  0  0  0
    4.8080   -8.0362   16.7101 C   0  0  0  0  0  0  0  0  0  0  0  0
   -1.2173   -3.9294   26.9717 O   0  0  0  0  0  0  0  0  0  0  0  0
   -1.0025   -5.0942   27.4586 C   0  0  0  0  0  0  0  0  0  0  0  0
    2.2474   -8.9123   16.6273 C   0  0  0  0  0  0  0  0  0  0  0  0
    4.4957   -9.2636   17.3041 C   0  0  0  0  0  0  0  0  0  0  0  0
   -1.8070   -5.6086   28.1920 O   0  0  0  0  0  0  0  0  0  0  0  0
   10.4296   -5.1799   28.3140 C   0  0  0  0  0  0  0  0  0  0  0  0
    6.6017   -5.9004   26.9187 C   0  0  0  0  0  0  0  0  0  0  0  0
    2.4761   -6.9940   26.4111 N   0  0  0  0  0  0  0  0  0  0  0  0
    9.1353   -5.4053   27.8239 C   0  0  0  0  0  0  0  0  0  0  0  0
    0.9922   -9.3232   16.5995 O   0  0  0  0  0  0  0  0  0  0  0  0
    1.5232   -7.6869   27.1182 C   0  0  0  0  0  0  0  0  0  0  0  0
    8.6878   -6.6715   27.7262 N   0  0  0  0  0  0  0  0  0  0  0  0
    6.9911   -8.2423   27.1808 C   0  0  0  0  0  0  0  0  0  0  0  0
    3.8436   -7.2758   16.0578 C   0  0  0  0  0  0  0  0  0  0  0  0
    3.1882   -9.7190   17.2566 C   0  0  0  0  0  0  0  0  0  0  0  0
    5.3488   -6.1737   26.5092 C   0  0  0  0  0  0  0  0  0  0  0  0
    7.4567   -6.9464   27.2858 C   0  0  0  0  0  0  0  0  0  0  0  0
    0.1921   -5.7592   27.1123 C   0  0  0  0  0  0  0  0  0  0  0  0
    3.5517   -7.7407   25.9711 C   0  0  0  0  0  0  0  0  0  0  0  0
  1  4  4  0
  1 22  4  0
  2 20  4  0
  2 27  4  0
  3 12  4  0
  3 23  4  0
  4 25  4  0
  4 28  1  0
  5  8  4  0
  5 17  4  0
  6  7  4  0
  6 16  4  0
  7 18  4  0
  8 27  4  0
  9 13  4  0
  9 23  4  0
 10 11  1  0
 11 14  2  0
 11 27  1  0
 12 19  1  0
 12 24  4  0
 13 24  4  0
 15 18  1  0
 16 25  4  0
 16 26  4  0
 17 20  4  0
 17 28  1  0
 18 21  4  0
 21 26  4  0
 22 26  4  0
M  END
$$$$

 Created by Python create_sdf_string function

 28 30  0  0  0  0  0  0  0  0999 V2000
    5.7174   -8.4529   26.7190 C   0  0  0  0  0  0  0  0  0  0  0  0
    0.3974   -7.0711   27.5149 C   0  0  0  0  0  0  0  0  0  0  0  0
    2.5338   -7.6891   16.0102 C   0  0  0  0  0  0  0  0  0  0  0  0
    4.8690   -7.4380   26.4151 C   0  0  0  0  0  0  0  0  0  0  0  0
    2.3021   -5.6726   26.0378 C   0  0  0  0  0  0  0  0  0  0  0  0
    7.0880   -4.6163   27.0010 C   0  0  0  0  0  0  0  0  0  0  0  0
    8.3117   -4.3698   27.4436 C   0  0  0  0  0  0  0  0  0  0  0  0
    1.1339   -5.0515   26.3541 C   0  0  0  0  0  0  0  0  0  0  0  0
    4.8080   -8.0362   16.7101 C   0  0  0  0  0  0  0  0  0  0  0  0
   -1.2173   -3.9294   26.9717 O   0  0  0  0  0  0  0  0  0  0  0  0
   -1.0025   -5.0942   27.4586 C   0  0  0  0  0  0  0  0  0  0  0  0
    2.2474   -8.9123   16.6273 C   0  0  0  0  0  0  0  0  0  0  0  0
    4.4957   -9.2636   17.3041 C   0  0  0  0  0  0  0  0  0  0  0  0
   -1.8070   -5.6086   28.1920 O   0  0  0  0  0  0  0  0  0  0  0  0
   10.4296   -5.1799   28.3140 C   0  0  0  0  0  0  0  0  0  0  0  0
    6.6017   -5.9004   26.9187 C   0  0  0  0  0  0  0  0  0  0  0  0
    2.4761   -6.9940   26.4111 N   0  0  0  0  0  0  0  0  0  0  0  0
    9.1353   -5.4053   27.8239 C   0  0  0  0  0  0  0  0  0  0  0  0
    0.9922   -9.3232   16.5995 O   0  0  0  0  0  0  0  0  0  0  0  0
    1.5232   -7.6869   27.1182 C   0  0  0  0  0  0  0  0  0  0  0  0
    8.6878   -6.6715   27.7262 N   0  0  0  0  0  0  0  0  0  0  0  0
    6.9911   -8.2423   27.1808 C   0  0  0  0  0  0  0  0  0  0  0  0
    3.8436   -7.2758   16.0578 C   0  0  0  0  0  0  0  0  0  0  0  0
    3.1882   -9.7190   17.2566 C   0  0  0  0  0  0  0  0  0  0  0  0
    5.3488   -6.1737   26.5092 C   0  0  0  0  0  0  0  0  0  0  0  0
    7.4567   -6.9464   27.2858 C   0  0  0  0  0  0  0  0  0  0  0  0
    0.1921   -5.7592   27.1123 C   0  0  0  0  0  0  0  0  0  0  0  0
    3.5517   -7.7407   25.9711 C   0  0  0  0  0  0  0  0  0  0  0  0
  1  4  4  0
  1 22  4  0
  2 20  4  0
  2 27  4  0
  3 12  4  0
  3 23  4  0
  4 25  4  0
  4 28  1  0
  5  8  4  0
  5 17  4  0
  6  7  4  0
  6 16  4  0
  7 18  4  0
  8 27  4  0
  9 13  4  0
  9 23  4  0
 10 11  1  0
 11 14  2  0
 11 27  1  0
 12 19  1  0
 12 24  4  0
 13 24  4  0
 15 18  1  0
 16 25  4  0
 16 26  4  0
 17 20  4  0
 17 28  1  0
 18 21  4  0
 21 26  4  0
 22 26  4  0
M  END
$$$$

 Created by Python create_sdf_string function

 28 30  0  0  0  0  0  0  0  0999 V2000
    5.7174   -8.4529   26.7190 C   0  0  0  0  0  0  0  0  0  0  0  0
    0.3974   -7.0711   27.5149 C   0  0  0  0  0  0  0  0  0  0  0  0
    2.5338   -7.6891   16.0102 C   0  0  0  0  0  0  0  0  0  0  0  0
    4.8690   -7.4380   26.4151 C   0  0  0  0  0  0  0  0  0  0  0  0
    2.3021   -5.6726   26.0378 C   0  0  0  0  0  0  0  0  0  0  0  0
    7.0880   -4.6163   27.0010 C   0  0  0  0  0  0  0  0  0  0  0  0
    8.3117   -4.3698   27.4436 C   0  0  0  0  0  0  0  0  0  0  0  0
    1.1339   -5.0515   26.3541 C   0  0  0  0  0  0  0  0  0  0  0  0
    4.8080   -8.0362   16.7101 C   0  0  0  0  0  0  0  0  0  0  0  0
   -1.2173   -3.9294   26.9717 O   0  0  0  0  0  0  0  0  0  0  0  0
   -1.0025   -5.0942   27.4586 C   0  0  0  0  0  0  0  0  0  0  0  0
    2.2474   -8.9123   16.6273 C   0  0  0  0  0  0  0  0  0  0  0  0
    4.4957   -9.2636   17.3041 C   0  0  0  0  0  0  0  0  0  0  0  0
   -1.8070   -5.6086   28.1920 O   0  0  0  0  0  0  0  0  0  0  0  0
   10.4296   -5.1799   28.3140 C   0  0  0  0  0  0  0  0  0  0  0  0
    6.6017   -5.9004   26.9187 C   0  0  0  0  0  0  0  0  0  0  0  0
    2.4761   -6.9940   26.4111 N   0  0  0  0  0  0  0  0  0  0  0  0
    9.1353   -5.4053   27.8239 C   0  0  0  0  0  0  0  0  0  0  0  0
    0.9922   -9.3232   16.5995 O   0  0  0  0  0  0  0  0  0  0  0  0
    1.5232   -7.6869   27.1182 C   0  0  0  0  0  0  0  0  0  0  0  0
    8.6878   -6.6715   27.7262 N   0  0  0  0  0  0  0  0  0  0  0  0
    6.9911   -8.2423   27.1808 C   0  0  0  0  0  0  0  0  0  0  0  0
    3.8436   -7.2758   16.0578 C   0  0  0  0  0  0  0  0  0  0  0  0
    3.1882   -9.7190   17.2566 C   0  0  0  0  0  0  0  0  0  0  0  0
    5.3488   -6.1737   26.5092 C   0  0  0  0  0  0  0  0  0  0  0  0
    7.4567   -6.9464   27.2858 C   0  0  0  0  0  0  0  0  0  0  0  0
    0.1921   -5.7592   27.1123 C   0  0  0  0  0  0  0  0  0  0  0  0
    3.5517   -7.7407   25.9711 C   0  0  0  0  0  0  0  0  0  0  0  0
  1  4  4  0
  1 22  4  0
  2 20  4  0
  2 27  4  0
  3 12  4  0
  3 23  4  0
  4 25  4  0
  4 28  1  0
  5  8  4  0
  5 17  4  0
  6  7  4  0
  6 16  4  0
  7 18  4  0
  8 27  4  0
  9 13  4  0
  9 23  4  0
 10 11  1  0
 11 14  2  0
 11 27  1  0
 12 19  1  0
 12 24  4  0
 13 24  4  0
 15 18  1  0
 16 25  4  0
 16 26  4  0
 17 20  4  0
 17 28  1  0
 18 21  4  0
 21 26  4  0
 22 26  4  0
M  END
$$$$

 Created by Python create_sdf_string function

 28 30  0  0  0  0  0  0  0  0999 V2000
    5.7174   -8.4529   26.7190 C   0  0  0  0  0  0  0  0  0  0  0  0
    0.3974   -7.0711   27.5149 C   0  0  0  0  0  0  0  0  0  0  0  0
    2.5338   -7.6891   16.0102 C   0  0  0  0  0  0  0  0  0  0  0  0
    4.8690   -7.4380   26.4151 C   0  0  0  0  0  0  0  0  0  0  0  0
    2.3021   -5.6726   26.0378 C   0  0  0  0  0  0  0  0  0  0  0  0
    7.0880   -4.6163   27.0010 C   0  0  0  0  0  0  0  0  0  0  0  0
    8.3117   -4.3698   27.4436 C   0  0  0  0  0  0  0  0  0  0  0  0
    1.1339   -5.0515   26.3541 C   0  0  0  0  0  0  0  0  0  0  0  0
    4.8080   -8.0362   16.7101 C   0  0  0  0  0  0  0  0  0  0  0  0
   -1.2173   -3.9294   26.9717 O   0  0  0  0  0  0  0  0  0  0  0  0
   -1.0025   -5.0942   27.4586 C   0  0  0  0  0  0  0  0  0  0  0  0
    2.2474   -8.9123   16.6273 C   0  0  0  0  0  0  0  0  0  0  0  0
    4.4957   -9.2636   17.3041 C   0  0  0  0  0  0  0  0  0  0  0  0
   -1.8070   -5.6086   28.1920 O   0  0  0  0  0  0  0  0  0  0  0  0
   10.4296   -5.1799   28.3140 C   0  0  0  0  0  0  0  0  0  0  0  0
    6.6017   -5.9004   26.9187 C   0  0  0  0  0  0  0  0  0  0  0  0
    2.4761   -6.9940   26.4111 N   0  0  0  0  0  0  0  0  0  0  0  0
    9.1353   -5.4053   27.8239 C   0  0  0  0  0  0  0  0  0  0  0  0
    0.9922   -9.3232   16.5995 O   0  0  0  0  0  0  0  0  0  0  0  0
    1.5232   -7.6869   27.1182 C   0  0  0  0  0  0  0  0  0  0  0  0
    8.6878   -6.6715   27.7262 N   0  0  0  0  0  0  0  0  0  0  0  0
    6.9911   -8.2423   27.1808 C   0  0  0  0  0  0  0  0  0  0  0  0
    3.8436   -7.2758   16.0578 C   0  0  0  0  0  0  0  0  0  0  0  0
    3.1882   -9.7190   17.2566 C   0  0  0  0  0  0  0  0  0  0  0  0
    5.3488   -6.1737   26.5092 C   0  0  0  0  0  0  0  0  0  0  0  0
    7.4567   -6.9464   27.2858 C   0  0  0  0  0  0  0  0  0  0  0  0
    0.1921   -5.7592   27.1123 C   0  0  0  0  0  0  0  0  0  0  0  0
    3.5517   -7.7407   25.9711 C   0  0  0  0  0  0  0  0  0  0  0  0
  1  4  4  0
  1 22  4  0
  2 20  4  0
  2 27  4  0
  3 12  4  0
  3 23  4  0
  4 25  4  0
  4 28  1  0
  5  8  4  0
  5 17  4  0
  6  7  4  0
  6 16  4  0
  7 18  4  0
  8 27  4  0
  9 13  4  0
  9 23  4  0
 10 11  1  0
 11 14  2  0
 11 27  1  0
 12 19  1  0
 12 24  4  0
 13 24  4  0
 15 18  1  0
 16 25  4  0
 16 26  4  0
 17 20  4  0
 17 28  1  0
 18 21  4  0
 21 26  4  0
 22 26  4  0
M  END
$$$$

 Created by Python create_sdf_string function

 28 30  0  0  0  0  0  0  0  0999 V2000
    5.7174   -8.4529   26.7190 C   0  0  0  0  0  0  0  0  0  0  0  0
    0.3974   -7.0711   27.5149 C   0  0  0  0  0  0  0  0  0  0  0  0
    2.5338   -7.6891   16.0102 C   0  0  0  0  0  0  0  0  0  0  0  0
    4.8690   -7.4380   26.4151 C   0  0  0  0  0  0  0  0  0  0  0  0
    2.3021   -5.6726   26.0378 C   0  0  0  0  0  0  0  0  0  0  0  0
    7.0880   -4.6163   27.0010 C   0  0  0  0  0  0  0  0  0  0  0  0
    8.3117   -4.3698   27.4436 C   0  0  0  0  0  0  0  0  0  0  0  0
    1.1339   -5.0515   26.3541 C   0  0  0  0  0  0  0  0  0  0  0  0
    4.8080   -8.0362   16.7101 C   0  0  0  0  0  0  0  0  0  0  0  0
   -1.2173   -3.9294   26.9717 O   0  0  0  0  0  0  0  0  0  0  0  0
   -1.0025   -5.0942   27.4586 C   0  0  0  0  0  0  0  0  0  0  0  0
    2.2474   -8.9123   16.6273 C   0  0  0  0  0  0  0  0  0  0  0  0
    4.4957   -9.2636   17.3041 C   0  0  0  0  0  0  0  0  0  0  0  0
   -1.8070   -5.6086   28.1920 O   0  0  0  0  0  0  0  0  0  0  0  0
   10.4296   -5.1799   28.3140 C   0  0  0  0  0  0  0  0  0  0  0  0
    6.6017   -5.9004   26.9187 C   0  0  0  0  0  0  0  0  0  0  0  0
    2.4761   -6.9940   26.4111 N   0  0  0  0  0  0  0  0  0  0  0  0
    9.1353   -5.4053   27.8239 C   0  0  0  0  0  0  0  0  0  0  0  0
    0.9922   -9.3232   16.5995 O   0  0  0  0  0  0  0  0  0  0  0  0
    1.5232   -7.6869   27.1182 C   0  0  0  0  0  0  0  0  0  0  0  0
    8.6878   -6.6715   27.7262 N   0  0  0  0  0  0  0  0  0  0  0  0
    6.9911   -8.2423   27.1808 C   0  0  0  0  0  0  0  0  0  0  0  0
    3.8436   -7.2758   16.0578 C   0  0  0  0  0  0  0  0  0  0  0  0
    3.1882   -9.7190   17.2566 C   0  0  0  0  0  0  0  0  0  0  0  0
    5.3488   -6.1737   26.5092 C   0  0  0  0  0  0  0  0  0  0  0  0
    7.4567   -6.9464   27.2858 C   0  0  0  0  0  0  0  0  0  0  0  0
    0.1921   -5.7592   27.1123 C   0  0  0  0  0  0  0  0  0  0  0  0
    3.5517   -7.7407   25.9711 C   0  0  0  0  0  0  0  0  0  0  0  0
  1  4  4  0
  1 22  4  0
  2 20  4  0
  2 27  4  0
  3 12  4  0
  3 23  4  0
  4 25  4  0
  4 28  1  0
  5  8  4  0
  5 17  4  0
  6  7  4  0
  6 16  4  0
  7 18  4  0
  8 27  4  0
  9 13  4  0
  9 23  4  0
 10 11  1  0
 11 14  2  0
 11 27  1  0
 12 19  1  0
 12 24  4  0
 13 24  4  0
 15 18  1  0
 16 25  4  0
 16 26  4  0
 17 20  4  0
 17 28  1  0
 18 21  4  0
 21 26  4  0
 22 26  4  0
M  END
$$$$

 Created by Python create_sdf_string function

 28 30  0  0  0  0  0  0  0  0999 V2000
    5.7174   -8.4529   26.7190 C   0  0  0  0  0  0  0  0  0  0  0  0
    0.3974   -7.0711   27.5149 C   0  0  0  0  0  0  0  0  0  0  0  0
    2.5338   -7.6891   16.0102 C   0  0  0  0  0  0  0  0  0  0  0  0
    4.8690   -7.4380   26.4151 C   0  0  0  0  0  0  0  0  0  0  0  0
    2.3021   -5.6726   26.0378 C   0  0  0  0  0  0  0  0  0  0  0  0
    7.0880   -4.6163   27.0010 C   0  0  0  0  0  0  0  0  0  0  0  0
    8.3117   -4.3698   27.4436 C   0  0  0  0  0  0  0  0  0  0  0  0
    1.1339   -5.0515   26.3541 C   0  0  0  0  0  0  0  0  0  0  0  0
    4.8080   -8.0362   16.7101 C   0  0  0  0  0  0  0  0  0  0  0  0
   -1.2173   -3.9294   26.9717 O   0  0  0  0  0  0  0  0  0  0  0  0
   -1.0025   -5.0942   27.4586 C   0  0  0  0  0  0  0  0  0  0  0  0
    2.2474   -8.9123   16.6273 C   0  0  0  0  0  0  0  0  0  0  0  0
    4.4957   -9.2636   17.3041 C   0  0  0  0  0  0  0  0  0  0  0  0
   -1.8070   -5.6086   28.1920 O   0  0  0  0  0  0  0  0  0  0  0  0
   10.4296   -5.1799   28.3140 C   0  0  0  0  0  0  0  0  0  0  0  0
    6.6017   -5.9004   26.9187 C   0  0  0  0  0  0  0  0  0  0  0  0
    2.4761   -6.9940   26.4111 N   0  0  0  0  0  0  0  0  0  0  0  0
    9.1353   -5.4053   27.8239 C   0  0  0  0  0  0  0  0  0  0  0  0
    0.9922   -9.3232   16.5995 O   0  0  0  0  0  0  0  0  0  0  0  0
    1.5232   -7.6869   27.1182 C   0  0  0  0  0  0  0  0  0  0  0  0
    8.6878   -6.6715   27.7262 N   0  0  0  0  0  0  0  0  0  0  0  0
    6.9911   -8.2423   27.1808 C   0  0  0  0  0  0  0  0  0  0  0  0
    3.8436   -7.2758   16.0578 C   0  0  0  0  0  0  0  0  0  0  0  0
    3.1882   -9.7190   17.2566 C   0  0  0  0  0  0  0  0  0  0  0  0
    5.3488   -6.1737   26.5092 C   0  0  0  0  0  0  0  0  0  0  0  0
    7.4567   -6.9464   27.2858 C   0  0  0  0  0  0  0  0  0  0  0  0
    0.1921   -5.7592   27.1123 C   0  0  0  0  0  0  0  0  0  0  0  0
    3.5517   -7.7407   25.9711 C   0  0  0  0  0  0  0  0  0  0  0  0
  1  4  4  0
  1 22  4  0
  2 20  4  0
  2 27  4  0
  3 12  4  0
  3 23  4  0
  4 25  4  0
  4 28  1  0
  5  8  4  0
  5 17  4  0
  6  7  4  0
  6 16  4  0
  7 18  4  0
  8 27  4  0
  9 13  4  0
  9 23  4  0
 10 11  1  0
 11 14  2  0
 11 27  1  0
 12 19  1  0
 12 24  4  0
 13 24  4  0
 15 18  1  0
 16 25  4  0
 16 26  4  0
 17 20  4  0
 17 28  1  0
 18 21  4  0
 21 26  4  0
 22 26  4  0
M  END
$$$$

 Created by Python create_sdf_string function

 28 30  0  0  0  0  0  0  0  0999 V2000
    5.7174   -8.4529   26.7190 C   0  0  0  0  0  0  0  0  0  0  0  0
    0.3974   -7.0711   27.5149 C   0  0  0  0  0  0  0  0  0  0  0  0
    2.5338   -7.6891   16.0102 C   0  0  0  0  0  0  0  0  0  0  0  0
    4.8690   -7.4380   26.4151 C   0  0  0  0  0  0  0  0  0  0  0  0
    2.3021   -5.6726   26.0378 C   0  0  0  0  0  0  0  0  0  0  0  0
    7.0880   -4.6163   27.0010 C   0  0  0  0  0  0  0  0  0  0  0  0
    8.3117   -4.3698   27.4436 C   0  0  0  0  0  0  0  0  0  0  0  0
    1.1339   -5.0515   26.3541 C   0  0  0  0  0  0  0  0  0  0  0  0
    4.8080   -8.0362   16.7101 C   0  0  0  0  0  0  0  0  0  0  0  0
   -1.2173   -3.9294   26.9717 O   0  0  0  0  0  0  0  0  0  0  0  0
   -1.0025   -5.0942   27.4586 C   0  0  0  0  0  0  0  0  0  0  0  0
    2.2474   -8.9123   16.6273 C   0  0  0  0  0  0  0  0  0  0  0  0
    4.4957   -9.2636   17.3041 C   0  0  0  0  0  0  0  0  0  0  0  0
   -1.8070   -5.6086   28.1920 O   0  0  0  0  0  0  0  0  0  0  0  0
   10.4296   -5.1799   28.3140 C   0  0  0  0  0  0  0  0  0  0  0  0
    6.6017   -5.9004   26.9187 C   0  0  0  0  0  0  0  0  0  0  0  0
    2.4761   -6.9940   26.4111 N   0  0  0  0  0  0  0  0  0  0  0  0
    9.1353   -5.4053   27.8239 C   0  0  0  0  0  0  0  0  0  0  0  0
    0.9922   -9.3232   16.5995 O   0  0  0  0  0  0  0  0  0  0  0  0
    1.5232   -7.6869   27.1182 C   0  0  0  0  0  0  0  0  0  0  0  0
    8.6878   -6.6715   27.7262 N   0  0  0  0  0  0  0  0  0  0  0  0
    6.9911   -8.2423   27.1808 C   0  0  0  0  0  0  0  0  0  0  0  0
    3.8436   -7.2758   16.0578 C   0  0  0  0  0  0  0  0  0  0  0  0
    3.1882   -9.7190   17.2566 C   0  0  0  0  0  0  0  0  0  0  0  0
    5.3488   -6.1737   26.5092 C   0  0  0  0  0  0  0  0  0  0  0  0
    7.4567   -6.9464   27.2858 C   0  0  0  0  0  0  0  0  0  0  0  0
    0.1921   -5.7592   27.1123 C   0  0  0  0  0  0  0  0  0  0  0  0
    3.5517   -7.7407   25.9711 C   0  0  0  0  0  0  0  0  0  0  0  0
  1  4  4  0
  1 22  4  0
  2 20  4  0
  2 27  4  0
  3 12  4  0
  3 23  4  0
  4 25  4  0
  4 28  1  0
  5  8  4  0
  5 17  4  0
  6  7  4  0
  6 16  4  0
  7 18  4  0
  8 27  4  0
  9 13  4  0
  9 23  4  0
 10 11  1  0
 11 14  2  0
 11 27  1  0
 12 19  1  0
 12 24  4  0
 13 24  4  0
 15 18  1  0
 16 25  4  0
 16 26  4  0
 17 20  4  0
 17 28  1  0
 18 21  4  0
 21 26  4  0
 22 26  4  0
M  END
$$$$

 Created by Python create_sdf_string function

 28 30  0  0  0  0  0  0  0  0999 V2000
    5.7174   -8.4529   26.7190 C   0  0  0  0  0  0  0  0  0  0  0  0
    0.3974   -7.0711   27.5149 C   0  0  0  0  0  0  0  0  0  0  0  0
    2.5338   -7.6891   16.0102 C   0  0  0  0  0  0  0  0  0  0  0  0
    4.8690   -7.4380   26.4151 C   0  0  0  0  0  0  0  0  0  0  0  0
    2.3021   -5.6726   26.0378 C   0  0  0  0  0  0  0  0  0  0  0  0
    7.0880   -4.6163   27.0010 C   0  0  0  0  0  0  0  0  0  0  0  0
    8.3117   -4.3698   27.4436 C   0  0  0  0  0  0  0  0  0  0  0  0
    1.1339   -5.0515   26.3541 C   0  0  0  0  0  0  0  0  0  0  0  0
    4.8080   -8.0362   16.7101 C   0  0  0  0  0  0  0  0  0  0  0  0
   -1.2173   -3.9294   26.9717 O   0  0  0  0  0  0  0  0  0  0  0  0
   -1.0025   -5.0942   27.4586 C   0  0  0  0  0  0  0  0  0  0  0  0
    2.2474   -8.9123   16.6273 C   0  0  0  0  0  0  0  0  0  0  0  0
    4.4957   -9.2636   17.3041 C   0  0  0  0  0  0  0  0  0  0  0  0
   -1.8070   -5.6086   28.1920 O   0  0  0  0  0  0  0  0  0  0  0  0
   10.4296   -5.1799   28.3140 C   0  0  0  0  0  0  0  0  0  0  0  0
    6.6017   -5.9004   26.9187 C   0  0  0  0  0  0  0  0  0  0  0  0
    2.4761   -6.9940   26.4111 N   0  0  0  0  0  0  0  0  0  0  0  0
    9.1353   -5.4053   27.8239 C   0  0  0  0  0  0  0  0  0  0  0  0
    0.9922   -9.3232   16.5995 O   0  0  0  0  0  0  0  0  0  0  0  0
    1.5232   -7.6869   27.1182 C   0  0  0  0  0  0  0  0  0  0  0  0
    8.6878   -6.6715   27.7262 N   0  0  0  0  0  0  0  0  0  0  0  0
    6.9911   -8.2423   27.1808 C   0  0  0  0  0  0  0  0  0  0  0  0
    3.8436   -7.2758   16.0578 C   0  0  0  0  0  0  0  0  0  0  0  0
    3.1882   -9.7190   17.2566 C   0  0  0  0  0  0  0  0  0  0  0  0
    5.3488   -6.1737   26.5092 C   0  0  0  0  0  0  0  0  0  0  0  0
    7.4567   -6.9464   27.2858 C   0  0  0  0  0  0  0  0  0  0  0  0
    0.1921   -5.7592   27.1123 C   0  0  0  0  0  0  0  0  0  0  0  0
    3.5517   -7.7407   25.9711 C   0  0  0  0  0  0  0  0  0  0  0  0
  1  4  4  0
  1 22  4  0
  2 20  4  0
  2 27  4  0
  3 12  4  0
  3 23  4  0
  4 25  4  0
  4 28  1  0
  5  8  4  0
  5 17  4  0
  6  7  4  0
  6 16  4  0
  7 18  4  0
  8 27  4  0
  9 13  4  0
  9 23  4  0
 10 11  1  0
 11 14  2  0
 11 27  1  0
 12 19  1  0
 12 24  4  0
 13 24  4  0
 15 18  1  0
 16 25  4  0
 16 26  4  0
 17 20  4  0
 17 28  1  0
 18 21  4  0
 21 26  4  0
 22 26  4  0
M  END
$$$$

 Created by Python create_sdf_string function

 28 30  0  0  0  0  0  0  0  0999 V2000
    5.7174   -8.4529   26.7190 C   0  0  0  0  0  0  0  0  0  0  0  0
    0.3974   -7.0711   27.5149 C   0  0  0  0  0  0  0  0  0  0  0  0
    2.5338   -7.6891   16.0102 C   0  0  0  0  0  0  0  0  0  0  0  0
    4.8690   -7.4380   26.4151 C   0  0  0  0  0  0  0  0  0  0  0  0
    2.3021   -5.6726   26.0378 C   0  0  0  0  0  0  0  0  0  0  0  0
    7.0880   -4.6163   27.0010 C   0  0  0  0  0  0  0  0  0  0  0  0
    8.3117   -4.3698   27.4436 C   0  0  0  0  0  0  0  0  0  0  0  0
    1.1339   -5.0515   26.3541 C   0  0  0  0  0  0  0  0  0  0  0  0
    4.8080   -8.0362   16.7101 C   0  0  0  0  0  0  0  0  0  0  0  0
   -1.2173   -3.9294   26.9717 O   0  0  0  0  0  0  0  0  0  0  0  0
   -1.0025   -5.0942   27.4586 C   0  0  0  0  0  0  0  0  0  0  0  0
    2.2474   -8.9123   16.6273 C   0  0  0  0  0  0  0  0  0  0  0  0
    4.4957   -9.2636   17.3041 C   0  0  0  0  0  0  0  0  0  0  0  0
   -1.8070   -5.6086   28.1920 O   0  0  0  0  0  0  0  0  0  0  0  0
   10.4296   -5.1799   28.3140 C   0  0  0  0  0  0  0  0  0  0  0  0
    6.6017   -5.9004   26.9187 C   0  0  0  0  0  0  0  0  0  0  0  0
    2.4761   -6.9940   26.4111 N   0  0  0  0  0  0  0  0  0  0  0  0
    9.1353   -5.4053   27.8239 C   0  0  0  0  0  0  0  0  0  0  0  0
    0.9922   -9.3232   16.5995 O   0  0  0  0  0  0  0  0  0  0  0  0
    1.5232   -7.6869   27.1182 C   0  0  0  0  0  0  0  0  0  0  0  0
    8.6878   -6.6715   27.7262 N   0  0  0  0  0  0  0  0  0  0  0  0
    6.9911   -8.2423   27.1808 C   0  0  0  0  0  0  0  0  0  0  0  0
    3.8436   -7.2758   16.0578 C   0  0  0  0  0  0  0  0  0  0  0  0
    3.1882   -9.7190   17.2566 C   0  0  0  0  0  0  0  0  0  0  0  0
    5.3488   -6.1737   26.5092 C   0  0  0  0  0  0  0  0  0  0  0  0
    7.4567   -6.9464   27.2858 C   0  0  0  0  0  0  0  0  0  0  0  0
    0.1921   -5.7592   27.1123 C   0  0  0  0  0  0  0  0  0  0  0  0
    3.5517   -7.7407   25.9711 C   0  0  0  0  0  0  0  0  0  0  0  0
  1  4  4  0
  1 22  4  0
  2 20  4  0
  2 27  4  0
  3 12  4  0
  3 23  4  0
  4 25  4  0
  4 28  1  0
  5  8  4  0
  5 17  4  0
  6  7  4  0
  6 16  4  0
  7 18  4  0
  8 27  4  0
  9 13  4  0
  9 23  4  0
 10 11  1  0
 11 14  2  0
 11 27  1  0
 12 19  1  0
 12 24  4  0
 13 24  4  0
 15 18  1  0
 16 25  4  0
 16 26  4  0
 17 20  4  0
 17 28  1  0
 18 21  4  0
 21 26  4  0
 22 26  4  0
M  END
$$$$

 Created by Python create_sdf_string function

 28 30  0  0  0  0  0  0  0  0999 V2000
    5.7174   -8.4529   26.7190 C   0  0  0  0  0  0  0  0  0  0  0  0
    0.3974   -7.0711   27.5149 C   0  0  0  0  0  0  0  0  0  0  0  0
    2.5338   -7.6891   16.0102 C   0  0  0  0  0  0  0  0  0  0  0  0
    4.8690   -7.4380   26.4151 C   0  0  0  0  0  0  0  0  0  0  0  0
    2.3021   -5.6726   26.0378 C   0  0  0  0  0  0  0  0  0  0  0  0
    7.0880   -4.6163   27.0010 C   0  0  0  0  0  0  0  0  0  0  0  0
    8.3117   -4.3698   27.4436 C   0  0  0  0  0  0  0  0  0  0  0  0
    1.1339   -5.0515   26.3541 C   0  0  0  0  0  0  0  0  0  0  0  0
    4.8080   -8.0362   16.7101 C   0  0  0  0  0  0  0  0  0  0  0  0
   -1.2173   -3.9294   26.9717 O   0  0  0  0  0  0  0  0  0  0  0  0
   -1.0025   -5.0942   27.4586 C   0  0  0  0  0  0  0  0  0  0  0  0
    2.2474   -8.9123   16.6273 C   0  0  0  0  0  0  0  0  0  0  0  0
    4.4957   -9.2636   17.3041 C   0  0  0  0  0  0  0  0  0  0  0  0
   -1.8070   -5.6086   28.1920 O   0  0  0  0  0  0  0  0  0  0  0  0
   10.4296   -5.1799   28.3140 C   0  0  0  0  0  0  0  0  0  0  0  0
    6.6017   -5.9004   26.9187 C   0  0  0  0  0  0  0  0  0  0  0  0
    2.4761   -6.9940   26.4111 N   0  0  0  0  0  0  0  0  0  0  0  0
    9.1353   -5.4053   27.8239 C   0  0  0  0  0  0  0  0  0  0  0  0
    0.9922   -9.3232   16.5995 O   0  0  0  0  0  0  0  0  0  0  0  0
    1.5232   -7.6869   27.1182 C   0  0  0  0  0  0  0  0  0  0  0  0
    8.6878   -6.6715   27.7262 N   0  0  0  0  0  0  0  0  0  0  0  0
    6.9911   -8.2423   27.1808 C   0  0  0  0  0  0  0  0  0  0  0  0
    3.8436   -7.2758   16.0578 C   0  0  0  0  0  0  0  0  0  0  0  0
    3.1882   -9.7190   17.2566 C   0  0  0  0  0  0  0  0  0  0  0  0
    5.3488   -6.1737   26.5092 C   0  0  0  0  0  0  0  0  0  0  0  0
    7.4567   -6.9464   27.2858 C   0  0  0  0  0  0  0  0  0  0  0  0
    0.1921   -5.7592   27.1123 C   0  0  0  0  0  0  0  0  0  0  0  0
    3.5517   -7.7407   25.9711 C   0  0  0  0  0  0  0  0  0  0  0  0
  1  4  4  0
  1 22  4  0
  2 20  4  0
  2 27  4  0
  3 12  4  0
  3 23  4  0
  4 25  4  0
  4 28  1  0
  5  8  4  0
  5 17  4  0
  6  7  4  0
  6 16  4  0
  7 18  4  0
  8 27  4  0
  9 13  4  0
  9 23  4  0
 10 11  1  0
 11 14  2  0
 11 27  1  0
 12 19  1  0
 12 24  4  0
 13 24  4  0
 15 18  1  0
 16 25  4  0
 16 26  4  0
 17 20  4  0
 17 28  1  0
 18 21  4  0
 21 26  4  0
 22 26  4  0
M  END
$$$$

 Created by Python create_sdf_string function

 28 30  0  0  0  0  0  0  0  0999 V2000
    5.7174   -8.4529   26.7190 C   0  0  0  0  0  0  0  0  0  0  0  0
    0.3974   -7.0711   27.5149 C   0  0  0  0  0  0  0  0  0  0  0  0
    2.5338   -7.6891   16.0102 C   0  0  0  0  0  0  0  0  0  0  0  0
    4.8690   -7.4380   26.4151 C   0  0  0  0  0  0  0  0  0  0  0  0
    2.3021   -5.6726   26.0378 C   0  0  0  0  0  0  0  0  0  0  0  0
    7.0880   -4.6163   27.0010 C   0  0  0  0  0  0  0  0  0  0  0  0
    8.3117   -4.3698   27.4436 C   0  0  0  0  0  0  0  0  0  0  0  0
    1.1339   -5.0515   26.3541 C   0  0  0  0  0  0  0  0  0  0  0  0
    4.8080   -8.0362   16.7101 C   0  0  0  0  0  0  0  0  0  0  0  0
   -1.2173   -3.9294   26.9717 O   0  0  0  0  0  0  0  0  0  0  0  0
   -1.0025   -5.0942   27.4586 C   0  0  0  0  0  0  0  0  0  0  0  0
    2.2474   -8.9123   16.6273 C   0  0  0  0  0  0  0  0  0  0  0  0
    4.4957   -9.2636   17.3041 C   0  0  0  0  0  0  0  0  0  0  0  0
   -1.8070   -5.6086   28.1920 O   0  0  0  0  0  0  0  0  0  0  0  0
   10.4296   -5.1799   28.3140 C   0  0  0  0  0  0  0  0  0  0  0  0
    6.6017   -5.9004   26.9187 C   0  0  0  0  0  0  0  0  0  0  0  0
    2.4761   -6.9940   26.4111 N   0  0  0  0  0  0  0  0  0  0  0  0
    9.1353   -5.4053   27.8239 C   0  0  0  0  0  0  0  0  0  0  0  0
    0.9922   -9.3232   16.5995 O   0  0  0  0  0  0  0  0  0  0  0  0
    1.5232   -7.6869   27.1182 C   0  0  0  0  0  0  0  0  0  0  0  0
    8.6878   -6.6715   27.7262 N   0  0  0  0  0  0  0  0  0  0  0  0
    6.9911   -8.2423   27.1808 C   0  0  0  0  0  0  0  0  0  0  0  0
    3.8436   -7.2758   16.0578 C   0  0  0  0  0  0  0  0  0  0  0  0
    3.1882   -9.7190   17.2566 C   0  0  0  0  0  0  0  0  0  0  0  0
    5.3488   -6.1737   26.5092 C   0  0  0  0  0  0  0  0  0  0  0  0
    7.4567   -6.9464   27.2858 C   0  0  0  0  0  0  0  0  0  0  0  0
    0.1921   -5.7592   27.1123 C   0  0  0  0  0  0  0  0  0  0  0  0
    3.5517   -7.7407   25.9711 C   0  0  0  0  0  0  0  0  0  0  0  0
  1  4  4  0
  1 22  4  0
  2 20  4  0
  2 27  4  0
  3 12  4  0
  3 23  4  0
  4 25  4  0
  4 28  1  0
  5  8  4  0
  5 17  4  0
  6  7  4  0
  6 16  4  0
  7 18  4  0
  8 27  4  0
  9 13  4  0
  9 23  4  0
 10 11  1  0
 11 14  2  0
 11 27  1  0
 12 19  1  0
 12 24  4  0
 13 24  4  0
 15 18  1  0
 16 25  4  0
 16 26  4  0
 17 20  4  0
 17 28  1  0
 18 21  4  0
 21 26  4  0
 22 26  4  0
M  END
$$$$

 Created by Python create_sdf_string function

 28 30  0  0  0  0  0  0  0  0999 V2000
    5.7174   -8.4529   26.7190 C   0  0  0  0  0  0  0  0  0  0  0  0
    0.3974   -7.0711   27.5149 C   0  0  0  0  0  0  0  0  0  0  0  0
    2.5338   -7.6891   16.0102 C   0  0  0  0  0  0  0  0  0  0  0  0
    4.8690   -7.4380   26.4151 C   0  0  0  0  0  0  0  0  0  0  0  0
    2.3021   -5.6726   26.0378 C   0  0  0  0  0  0  0  0  0  0  0  0
    7.0880   -4.6163   27.0010 C   0  0  0  0  0  0  0  0  0  0  0  0
    8.3117   -4.3698   27.4436 C   0  0  0  0  0  0  0  0  0  0  0  0
    1.1339   -5.0515   26.3541 C   0  0  0  0  0  0  0  0  0  0  0  0
    4.8080   -8.0362   16.7101 C   0  0  0  0  0  0  0  0  0  0  0  0
   -1.2173   -3.9294   26.9717 O   0  0  0  0  0  0  0  0  0  0  0  0
   -1.0025   -5.0942   27.4586 C   0  0  0  0  0  0  0  0  0  0  0  0
    2.2474   -8.9123   16.6273 C   0  0  0  0  0  0  0  0  0  0  0  0
    4.4957   -9.2636   17.3041 C   0  0  0  0  0  0  0  0  0  0  0  0
   -1.8070   -5.6086   28.1920 O   0  0  0  0  0  0  0  0  0  0  0  0
   10.4296   -5.1799   28.3140 C   0  0  0  0  0  0  0  0  0  0  0  0
    6.6017   -5.9004   26.9187 C   0  0  0  0  0  0  0  0  0  0  0  0
    2.4761   -6.9940   26.4111 N   0  0  0  0  0  0  0  0  0  0  0  0
    9.1353   -5.4053   27.8239 C   0  0  0  0  0  0  0  0  0  0  0  0
    0.9922   -9.3232   16.5995 O   0  0  0  0  0  0  0  0  0  0  0  0
    1.5232   -7.6869   27.1182 C   0  0  0  0  0  0  0  0  0  0  0  0
    8.6878   -6.6715   27.7262 N   0  0  0  0  0  0  0  0  0  0  0  0
    6.9911   -8.2423   27.1808 C   0  0  0  0  0  0  0  0  0  0  0  0
    3.8436   -7.2758   16.0578 C   0  0  0  0  0  0  0  0  0  0  0  0
    3.1882   -9.7190   17.2566 C   0  0  0  0  0  0  0  0  0  0  0  0
    5.3488   -6.1737   26.5092 C   0  0  0  0  0  0  0  0  0  0  0  0
    7.4567   -6.9464   27.2858 C   0  0  0  0  0  0  0  0  0  0  0  0
    0.1921   -5.7592   27.1123 C   0  0  0  0  0  0  0  0  0  0  0  0
    3.5517   -7.7407   25.9711 C   0  0  0  0  0  0  0  0  0  0  0  0
  1  4  4  0
  1 22  4  0
  2 20  4  0
  2 27  4  0
  3 12  4  0
  3 23  4  0
  4 25  4  0
  4 28  1  0
  5  8  4  0
  5 17  4  0
  6  7  4  0
  6 16  4  0
  7 18  4  0
  8 27  4  0
  9 13  4  0
  9 23  4  0
 10 11  1  0
 11 14  2  0
 11 27  1  0
 12 19  1  0
 12 24  4  0
 13 24  4  0
 15 18  1  0
 16 25  4  0
 16 26  4  0
 17 20  4  0
 17 28  1  0
 18 21  4  0
 21 26  4  0
 22 26  4  0
M  END
$$$$

 Created by Python create_sdf_string function

 28 30  0  0  0  0  0  0  0  0999 V2000
    5.7174   -8.4529   26.7190 C   0  0  0  0  0  0  0  0  0  0  0  0
    0.3974   -7.0711   27.5149 C   0  0  0  0  0  0  0  0  0  0  0  0
    2.5338   -7.6891   16.0102 C   0  0  0  0  0  0  0  0  0  0  0  0
    4.8690   -7.4380   26.4151 C   0  0  0  0  0  0  0  0  0  0  0  0
    2.3021   -5.6726   26.0378 C   0  0  0  0  0  0  0  0  0  0  0  0
    7.0880   -4.6163   27.0010 C   0  0  0  0  0  0  0  0  0  0  0  0
    8.3117   -4.3698   27.4436 C   0  0  0  0  0  0  0  0  0  0  0  0
    1.1339   -5.0515   26.3541 C   0  0  0  0  0  0  0  0  0  0  0  0
    4.8080   -8.0362   16.7101 C   0  0  0  0  0  0  0  0  0  0  0  0
   -1.2173   -3.9294   26.9717 O   0  0  0  0  0  0  0  0  0  0  0  0
   -1.0025   -5.0942   27.4586 C   0  0  0  0  0  0  0  0  0  0  0  0
    2.2474   -8.9123   16.6273 C   0  0  0  0  0  0  0  0  0  0  0  0
    4.4957   -9.2636   17.3041 C   0  0  0  0  0  0  0  0  0  0  0  0
   -1.8070   -5.6086   28.1920 O   0  0  0  0  0  0  0  0  0  0  0  0
   10.4296   -5.1799   28.3140 C   0  0  0  0  0  0  0  0  0  0  0  0
    6.6017   -5.9004   26.9187 C   0  0  0  0  0  0  0  0  0  0  0  0
    2.4761   -6.9940   26.4111 N   0  0  0  0  0  0  0  0  0  0  0  0
    9.1353   -5.4053   27.8239 C   0  0  0  0  0  0  0  0  0  0  0  0
    0.9922   -9.3232   16.5995 O   0  0  0  0  0  0  0  0  0  0  0  0
    1.5232   -7.6869   27.1182 C   0  0  0  0  0  0  0  0  0  0  0  0
    8.6878   -6.6715   27.7262 N   0  0  0  0  0  0  0  0  0  0  0  0
    6.9911   -8.2423   27.1808 C   0  0  0  0  0  0  0  0  0  0  0  0
    3.8436   -7.2758   16.0578 C   0  0  0  0  0  0  0  0  0  0  0  0
    3.1882   -9.7190   17.2566 C   0  0  0  0  0  0  0  0  0  0  0  0
    5.3488   -6.1737   26.5092 C   0  0  0  0  0  0  0  0  0  0  0  0
    7.4567   -6.9464   27.2858 C   0  0  0  0  0  0  0  0  0  0  0  0
    0.1921   -5.7592   27.1123 C   0  0  0  0  0  0  0  0  0  0  0  0
    3.5517   -7.7407   25.9711 C   0  0  0  0  0  0  0  0  0  0  0  0
  1  4  4  0
  1 22  4  0
  2 20  4  0
  2 27  4  0
  3 12  4  0
  3 23  4  0
  4 25  4  0
  4 28  1  0
  5  8  4  0
  5 17  4  0
  6  7  4  0
  6 16  4  0
  7 18  4  0
  8 27  4  0
  9 13  4  0
  9 23  4  0
 10 11  1  0
 11 14  2  0
 11 27  1  0
 12 19  1  0
 12 24  4  0
 13 24  4  0
 15 18  1  0
 16 25  4  0
 16 26  4  0
 17 20  4  0
 17 28  1  0
 18 21  4  0
 21 26  4  0
 22 26  4  0
M  END
$$$$

 Created by Python create_sdf_string function

 28 30  0  0  0  0  0  0  0  0999 V2000
    5.7174   -8.4529   26.7190 C   0  0  0  0  0  0  0  0  0  0  0  0
    0.3974   -7.0711   27.5149 C   0  0  0  0  0  0  0  0  0  0  0  0
    2.5338   -7.6891   16.0102 C   0  0  0  0  0  0  0  0  0  0  0  0
    4.8690   -7.4380   26.4151 C   0  0  0  0  0  0  0  0  0  0  0  0
    2.3021   -5.6726   26.0378 C   0  0  0  0  0  0  0  0  0  0  0  0
    7.0880   -4.6163   27.0010 C   0  0  0  0  0  0  0  0  0  0  0  0
    8.3117   -4.3698   27.4436 C   0  0  0  0  0  0  0  0  0  0  0  0
    1.1339   -5.0515   26.3541 C   0  0  0  0  0  0  0  0  0  0  0  0
    4.8080   -8.0362   16.7101 C   0  0  0  0  0  0  0  0  0  0  0  0
   -1.2173   -3.9294   26.9717 O   0  0  0  0  0  0  0  0  0  0  0  0
   -1.0025   -5.0942   27.4586 C   0  0  0  0  0  0  0  0  0  0  0  0
    2.2474   -8.9123   16.6273 C   0  0  0  0  0  0  0  0  0  0  0  0
    4.4957   -9.2636   17.3041 C   0  0  0  0  0  0  0  0  0  0  0  0
   -1.8070   -5.6086   28.1920 O   0  0  0  0  0  0  0  0  0  0  0  0
   10.4296   -5.1799   28.3140 C   0  0  0  0  0  0  0  0  0  0  0  0
    6.6017   -5.9004   26.9187 C   0  0  0  0  0  0  0  0  0  0  0  0
    2.4761   -6.9940   26.4111 N   0  0  0  0  0  0  0  0  0  0  0  0
    9.1353   -5.4053   27.8239 C   0  0  0  0  0  0  0  0  0  0  0  0
    0.9922   -9.3232   16.5995 O   0  0  0  0  0  0  0  0  0  0  0  0
    1.5232   -7.6869   27.1182 C   0  0  0  0  0  0  0  0  0  0  0  0
    8.6878   -6.6715   27.7262 N   0  0  0  0  0  0  0  0  0  0  0  0
    6.9911   -8.2423   27.1808 C   0  0  0  0  0  0  0  0  0  0  0  0
    3.8436   -7.2758   16.0578 C   0  0  0  0  0  0  0  0  0  0  0  0
    3.1882   -9.7190   17.2566 C   0  0  0  0  0  0  0  0  0  0  0  0
    5.3488   -6.1737   26.5092 C   0  0  0  0  0  0  0  0  0  0  0  0
    7.4567   -6.9464   27.2858 C   0  0  0  0  0  0  0  0  0  0  0  0
    0.1921   -5.7592   27.1123 C   0  0  0  0  0  0  0  0  0  0  0  0
    3.5517   -7.7407   25.9711 C   0  0  0  0  0  0  0  0  0  0  0  0
  1  4  4  0
  1 22  4  0
  2 20  4  0
  2 27  4  0
  3 12  4  0
  3 23  4  0
  4 25  4  0
  4 28  1  0
  5  8  4  0
  5 17  4  0
  6  7  4  0
  6 16  4  0
  7 18  4  0
  8 27  4  0
  9 13  4  0
  9 23  4  0
 10 11  1  0
 11 14  2  0
 11 27  1  0
 12 19  1  0
 12 24  4  0
 13 24  4  0
 15 18  1  0
 16 25  4  0
 16 26  4  0
 17 20  4  0
 17 28  1  0
 18 21  4  0
 21 26  4  0
 22 26  4  0
M  END
$$$$

 Created by Python create_sdf_string function

 28 30  0  0  0  0  0  0  0  0999 V2000
    5.7174   -8.4529   26.7190 C   0  0  0  0  0  0  0  0  0  0  0  0
    0.3974   -7.0711   27.5149 C   0  0  0  0  0  0  0  0  0  0  0  0
    2.5338   -7.6891   16.0102 C   0  0  0  0  0  0  0  0  0  0  0  0
    4.8690   -7.4380   26.4151 C   0  0  0  0  0  0  0  0  0  0  0  0
    2.3021   -5.6726   26.0378 C   0  0  0  0  0  0  0  0  0  0  0  0
    7.0880   -4.6163   27.0010 C   0  0  0  0  0  0  0  0  0  0  0  0
    8.3117   -4.3698   27.4436 C   0  0  0  0  0  0  0  0  0  0  0  0
    1.1339   -5.0515   26.3541 C   0  0  0  0  0  0  0  0  0  0  0  0
    4.8080   -8.0362   16.7101 C   0  0  0  0  0  0  0  0  0  0  0  0
   -1.2173   -3.9294   26.9717 O   0  0  0  0  0  0  0  0  0  0  0  0
   -1.0025   -5.0942   27.4586 C   0  0  0  0  0  0  0  0  0  0  0  0
    2.2474   -8.9123   16.6273 C   0  0  0  0  0  0  0  0  0  0  0  0
    4.4957   -9.2636   17.3041 C   0  0  0  0  0  0  0  0  0  0  0  0
   -1.8070   -5.6086   28.1920 O   0  0  0  0  0  0  0  0  0  0  0  0
   10.4296   -5.1799   28.3140 C   0  0  0  0  0  0  0  0  0  0  0  0
    6.6017   -5.9004   26.9187 C   0  0  0  0  0  0  0  0  0  0  0  0
    2.4761   -6.9940   26.4111 N   0  0  0  0  0  0  0  0  0  0  0  0
    9.1353   -5.4053   27.8239 C   0  0  0  0  0  0  0  0  0  0  0  0
    0.9922   -9.3232   16.5995 O   0  0  0  0  0  0  0  0  0  0  0  0
    1.5232   -7.6869   27.1182 C   0  0  0  0  0  0  0  0  0  0  0  0
    8.6878   -6.6715   27.7262 N   0  0  0  0  0  0  0  0  0  0  0  0
    6.9911   -8.2423   27.1808 C   0  0  0  0  0  0  0  0  0  0  0  0
    3.8436   -7.2758   16.0578 C   0  0  0  0  0  0  0  0  0  0  0  0
    3.1882   -9.7190   17.2566 C   0  0  0  0  0  0  0  0  0  0  0  0
    5.3488   -6.1737   26.5092 C   0  0  0  0  0  0  0  0  0  0  0  0
    7.4567   -6.9464   27.2858 C   0  0  0  0  0  0  0  0  0  0  0  0
    0.1921   -5.7592   27.1123 C   0  0  0  0  0  0  0  0  0  0  0  0
    3.5517   -7.7407   25.9711 C   0  0  0  0  0  0  0  0  0  0  0  0
  1  4  4  0
  1 22  4  0
  2 20  4  0
  2 27  4  0
  3 12  4  0
  3 23  4  0
  4 25  4  0
  4 28  1  0
  5  8  4  0
  5 17  4  0
  6  7  4  0
  6 16  4  0
  7 18  4  0
  8 27  4  0
  9 13  4  0
  9 23  4  0
 10 11  1  0
 11 14  2  0
 11 27  1  0
 12 19  1  0
 12 24  4  0
 13 24  4  0
 15 18  1  0
 16 25  4  0
 16 26  4  0
 17 20  4  0
 17 28  1  0
 18 21  4  0
 21 26  4  0
 22 26  4  0
M  END
$$$$

 Created by Python create_sdf_string function

 28 30  0  0  0  0  0  0  0  0999 V2000
    5.7174   -8.4529   26.7190 C   0  0  0  0  0  0  0  0  0  0  0  0
    0.3974   -7.0711   27.5149 C   0  0  0  0  0  0  0  0  0  0  0  0
    2.5338   -7.6891   16.0102 C   0  0  0  0  0  0  0  0  0  0  0  0
    4.8690   -7.4380   26.4151 C   0  0  0  0  0  0  0  0  0  0  0  0
    2.3021   -5.6726   26.0378 C   0  0  0  0  0  0  0  0  0  0  0  0
    7.0880   -4.6163   27.0010 C   0  0  0  0  0  0  0  0  0  0  0  0
    8.3117   -4.3698   27.4436 C   0  0  0  0  0  0  0  0  0  0  0  0
    1.1339   -5.0515   26.3541 C   0  0  0  0  0  0  0  0  0  0  0  0
    4.8080   -8.0362   16.7101 C   0  0  0  0  0  0  0  0  0  0  0  0
   -1.2173   -3.9294   26.9717 O   0  0  0  0  0  0  0  0  0  0  0  0
   -1.0025   -5.0942   27.4586 C   0  0  0  0  0  0  0  0  0  0  0  0
    2.2474   -8.9123   16.6273 C   0  0  0  0  0  0  0  0  0  0  0  0
    4.4957   -9.2636   17.3041 C   0  0  0  0  0  0  0  0  0  0  0  0
   -1.8070   -5.6086   28.1920 O   0  0  0  0  0  0  0  0  0  0  0  0
   10.4296   -5.1799   28.3140 C   0  0  0  0  0  0  0  0  0  0  0  0
    6.6017   -5.9004   26.9187 C   0  0  0  0  0  0  0  0  0  0  0  0
    2.4761   -6.9940   26.4111 N   0  0  0  0  0  0  0  0  0  0  0  0
    9.1353   -5.4053   27.8239 C   0  0  0  0  0  0  0  0  0  0  0  0
    0.9922   -9.3232   16.5995 O   0  0  0  0  0  0  0  0  0  0  0  0
    1.5232   -7.6869   27.1182 C   0  0  0  0  0  0  0  0  0  0  0  0
    8.6878   -6.6715   27.7262 N   0  0  0  0  0  0  0  0  0  0  0  0
    6.9911   -8.2423   27.1808 C   0  0  0  0  0  0  0  0  0  0  0  0
    3.8436   -7.2758   16.0578 C   0  0  0  0  0  0  0  0  0  0  0  0
    3.1882   -9.7190   17.2566 C   0  0  0  0  0  0  0  0  0  0  0  0
    5.3488   -6.1737   26.5092 C   0  0  0  0  0  0  0  0  0  0  0  0
    7.4567   -6.9464   27.2858 C   0  0  0  0  0  0  0  0  0  0  0  0
    0.1921   -5.7592   27.1123 C   0  0  0  0  0  0  0  0  0  0  0  0
    3.5517   -7.7407   25.9711 C   0  0  0  0  0  0  0  0  0  0  0  0
  1  4  4  0
  1 22  4  0
  2 20  4  0
  2 27  4  0
  3 12  4  0
  3 23  4  0
  4 25  4  0
  4 28  1  0
  5  8  4  0
  5 17  4  0
  6  7  4  0
  6 16  4  0
  7 18  4  0
  8 27  4  0
  9 13  4  0
  9 23  4  0
 10 11  1  0
 11 14  2  0
 11 27  1  0
 12 19  1  0
 12 24  4  0
 13 24  4  0
 15 18  1  0
 16 25  4  0
 16 26  4  0
 17 20  4  0
 17 28  1  0
 18 21  4  0
 21 26  4  0
 22 26  4  0
M  END
$$$$

 Created by Python create_sdf_string function

 28 30  0  0  0  0  0  0  0  0999 V2000
    5.7174   -8.4529   26.7190 C   0  0  0  0  0  0  0  0  0  0  0  0
    0.3974   -7.0711   27.5149 C   0  0  0  0  0  0  0  0  0  0  0  0
    2.5338   -7.6891   16.0102 C   0  0  0  0  0  0  0  0  0  0  0  0
    4.8690   -7.4380   26.4151 C   0  0  0  0  0  0  0  0  0  0  0  0
    2.3021   -5.6726   26.0378 C   0  0  0  0  0  0  0  0  0  0  0  0
    7.0880   -4.6163   27.0010 C   0  0  0  0  0  0  0  0  0  0  0  0
    8.3117   -4.3698   27.4436 C   0  0  0  0  0  0  0  0  0  0  0  0
    1.1339   -5.0515   26.3541 C   0  0  0  0  0  0  0  0  0  0  0  0
    4.8080   -8.0362   16.7101 C   0  0  0  0  0  0  0  0  0  0  0  0
   -1.2173   -3.9294   26.9717 O   0  0  0  0  0  0  0  0  0  0  0  0
   -1.0025   -5.0942   27.4586 C   0  0  0  0  0  0  0  0  0  0  0  0
    2.2474   -8.9123   16.6273 C   0  0  0  0  0  0  0  0  0  0  0  0
    4.4957   -9.2636   17.3041 C   0  0  0  0  0  0  0  0  0  0  0  0
   -1.8070   -5.6086   28.1920 O   0  0  0  0  0  0  0  0  0  0  0  0
   10.4296   -5.1799   28.3140 C   0  0  0  0  0  0  0  0  0  0  0  0
    6.6017   -5.9004   26.9187 C   0  0  0  0  0  0  0  0  0  0  0  0
    2.4761   -6.9940   26.4111 N   0  0  0  0  0  0  0  0  0  0  0  0
    9.1353   -5.4053   27.8239 C   0  0  0  0  0  0  0  0  0  0  0  0
    0.9922   -9.3232   16.5995 O   0  0  0  0  0  0  0  0  0  0  0  0
    1.5232   -7.6869   27.1182 C   0  0  0  0  0  0  0  0  0  0  0  0
    8.6878   -6.6715   27.7262 N   0  0  0  0  0  0  0  0  0  0  0  0
    6.9911   -8.2423   27.1808 C   0  0  0  0  0  0  0  0  0  0  0  0
    3.8436   -7.2758   16.0578 C   0  0  0  0  0  0  0  0  0  0  0  0
    3.1882   -9.7190   17.2566 C   0  0  0  0  0  0  0  0  0  0  0  0
    5.3488   -6.1737   26.5092 C   0  0  0  0  0  0  0  0  0  0  0  0
    7.4567   -6.9464   27.2858 C   0  0  0  0  0  0  0  0  0  0  0  0
    0.1921   -5.7592   27.1123 C   0  0  0  0  0  0  0  0  0  0  0  0
    3.5517   -7.7407   25.9711 C   0  0  0  0  0  0  0  0  0  0  0  0
  1  4  4  0
  1 22  4  0
  2 20  4  0
  2 27  4  0
  3 12  4  0
  3 23  4  0
  4 25  4  0
  4 28  1  0
  5  8  4  0
  5 17  4  0
  6  7  4  0
  6 16  4  0
  7 18  4  0
  8 27  4  0
  9 13  4  0
  9 23  4  0
 10 11  1  0
 11 14  2  0
 11 27  1  0
 12 19  1  0
 12 24  4  0
 13 24  4  0
 15 18  1  0
 16 25  4  0
 16 26  4  0
 17 20  4  0
 17 28  1  0
 18 21  4  0
 21 26  4  0
 22 26  4  0
M  END
$$$$

 Created by Python create_sdf_string function

 28 30  0  0  0  0  0  0  0  0999 V2000
    5.7174   -8.4529   26.7190 C   0  0  0  0  0  0  0  0  0  0  0  0
    0.3974   -7.0711   27.5149 C   0  0  0  0  0  0  0  0  0  0  0  0
    2.5338   -7.6891   16.0102 C   0  0  0  0  0  0  0  0  0  0  0  0
    4.8690   -7.4380   26.4151 C   0  0  0  0  0  0  0  0  0  0  0  0
    2.3021   -5.6726   26.0378 C   0  0  0  0  0  0  0  0  0  0  0  0
    7.0880   -4.6163   27.0010 C   0  0  0  0  0  0  0  0  0  0  0  0
    8.3117   -4.3698   27.4436 C   0  0  0  0  0  0  0  0  0  0  0  0
    1.1339   -5.0515   26.3541 C   0  0  0  0  0  0  0  0  0  0  0  0
    4.8080   -8.0362   16.7101 C   0  0  0  0  0  0  0  0  0  0  0  0
   -1.2173   -3.9294   26.9717 O   0  0  0  0  0  0  0  0  0  0  0  0
   -1.0025   -5.0942   27.4586 C   0  0  0  0  0  0  0  0  0  0  0  0
    2.2474   -8.9123   16.6273 C   0  0  0  0  0  0  0  0  0  0  0  0
    4.4957   -9.2636   17.3041 C   0  0  0  0  0  0  0  0  0  0  0  0
   -1.8070   -5.6086   28.1920 O   0  0  0  0  0  0  0  0  0  0  0  0
   10.4296   -5.1799   28.3140 C   0  0  0  0  0  0  0  0  0  0  0  0
    6.6017   -5.9004   26.9187 C   0  0  0  0  0  0  0  0  0  0  0  0
    2.4761   -6.9940   26.4111 N   0  0  0  0  0  0  0  0  0  0  0  0
    9.1353   -5.4053   27.8239 C   0  0  0  0  0  0  0  0  0  0  0  0
    0.9922   -9.3232   16.5995 O   0  0  0  0  0  0  0  0  0  0  0  0
    1.5232   -7.6869   27.1182 C   0  0  0  0  0  0  0  0  0  0  0  0
    8.6878   -6.6715   27.7262 N   0  0  0  0  0  0  0  0  0  0  0  0
    6.9911   -8.2423   27.1808 C   0  0  0  0  0  0  0  0  0  0  0  0
    3.8436   -7.2758   16.0578 C   0  0  0  0  0  0  0  0  0  0  0  0
    3.1882   -9.7190   17.2566 C   0  0  0  0  0  0  0  0  0  0  0  0
    5.3488   -6.1737   26.5092 C   0  0  0  0  0  0  0  0  0  0  0  0
    7.4567   -6.9464   27.2858 C   0  0  0  0  0  0  0  0  0  0  0  0
    0.1921   -5.7592   27.1123 C   0  0  0  0  0  0  0  0  0  0  0  0
    3.5517   -7.7407   25.9711 C   0  0  0  0  0  0  0  0  0  0  0  0
  1  4  4  0
  1 22  4  0
  2 20  4  0
  2 27  4  0
  3 12  4  0
  3 23  4  0
  4 25  4  0
  4 28  1  0
  5  8  4  0
  5 17  4  0
  6  7  4  0
  6 16  4  0
  7 18  4  0
  8 27  4  0
  9 13  4  0
  9 23  4  0
 10 11  1  0
 11 14  2  0
 11 27  1  0
 12 19  1  0
 12 24  4  0
 13 24  4  0
 15 18  1  0
 16 25  4  0
 16 26  4  0
 17 20  4  0
 17 28  1  0
 18 21  4  0
 21 26  4  0
 22 26  4  0
M  END
$$$$

 Created by Python create_sdf_string function

 28 30  0  0  0  0  0  0  0  0999 V2000
    5.7174   -8.4529   26.7190 C   0  0  0  0  0  0  0  0  0  0  0  0
    0.3974   -7.0711   27.5149 C   0  0  0  0  0  0  0  0  0  0  0  0
    2.5338   -7.6891   16.0102 C   0  0  0  0  0  0  0  0  0  0  0  0
    4.8690   -7.4380   26.4151 C   0  0  0  0  0  0  0  0  0  0  0  0
    2.3021   -5.6726   26.0378 C   0  0  0  0  0  0  0  0  0  0  0  0
    7.0880   -4.6163   27.0010 C   0  0  0  0  0  0  0  0  0  0  0  0
    8.3117   -4.3698   27.4436 C   0  0  0  0  0  0  0  0  0  0  0  0
    1.1339   -5.0515   26.3541 C   0  0  0  0  0  0  0  0  0  0  0  0
    4.8080   -8.0362   16.7101 C   0  0  0  0  0  0  0  0  0  0  0  0
   -1.2173   -3.9294   26.9717 O   0  0  0  0  0  0  0  0  0  0  0  0
   -1.0025   -5.0942   27.4586 C   0  0  0  0  0  0  0  0  0  0  0  0
    2.2474   -8.9123   16.6273 C   0  0  0  0  0  0  0  0  0  0  0  0
    4.4957   -9.2636   17.3041 C   0  0  0  0  0  0  0  0  0  0  0  0
   -1.8070   -5.6086   28.1920 O   0  0  0  0  0  0  0  0  0  0  0  0
   10.4296   -5.1799   28.3140 C   0  0  0  0  0  0  0  0  0  0  0  0
    6.6017   -5.9004   26.9187 C   0  0  0  0  0  0  0  0  0  0  0  0
    2.4761   -6.9940   26.4111 N   0  0  0  0  0  0  0  0  0  0  0  0
    9.1353   -5.4053   27.8239 C   0  0  0  0  0  0  0  0  0  0  0  0
    0.9922   -9.3232   16.5995 O   0  0  0  0  0  0  0  0  0  0  0  0
    1.5232   -7.6869   27.1182 C   0  0  0  0  0  0  0  0  0  0  0  0
    8.6878   -6.6715   27.7262 N   0  0  0  0  0  0  0  0  0  0  0  0
    6.9911   -8.2423   27.1808 C   0  0  0  0  0  0  0  0  0  0  0  0
    3.8436   -7.2758   16.0578 C   0  0  0  0  0  0  0  0  0  0  0  0
    3.1882   -9.7190   17.2566 C   0  0  0  0  0  0  0  0  0  0  0  0
    5.3488   -6.1737   26.5092 C   0  0  0  0  0  0  0  0  0  0  0  0
    7.4567   -6.9464   27.2858 C   0  0  0  0  0  0  0  0  0  0  0  0
    0.1921   -5.7592   27.1123 C   0  0  0  0  0  0  0  0  0  0  0  0
    3.5517   -7.7407   25.9711 C   0  0  0  0  0  0  0  0  0  0  0  0
  1  4  4  0
  1 22  4  0
  2 20  4  0
  2 27  4  0
  3 12  4  0
  3 23  4  0
  4 25  4  0
  4 28  1  0
  5  8  4  0
  5 17  4  0
  6  7  4  0
  6 16  4  0
  7 18  4  0
  8 27  4  0
  9 13  4  0
  9 23  4  0
 10 11  1  0
 11 14  2  0
 11 27  1  0
 12 19  1  0
 12 24  4  0
 13 24  4  0
 15 18  1  0
 16 25  4  0
 16 26  4  0
 17 20  4  0
 17 28  1  0
 18 21  4  0
 21 26  4  0
 22 26  4  0
M  END
$$$$

 Created by Python create_sdf_string function

 28 30  0  0  0  0  0  0  0  0999 V2000
    5.7174   -8.4529   26.7190 C   0  0  0  0  0  0  0  0  0  0  0  0
    0.3974   -7.0711   27.5149 C   0  0  0  0  0  0  0  0  0  0  0  0
    2.5338   -7.6891   16.0102 C   0  0  0  0  0  0  0  0  0  0  0  0
    4.8690   -7.4380   26.4151 C   0  0  0  0  0  0  0  0  0  0  0  0
    2.3021   -5.6726   26.0378 C   0  0  0  0  0  0  0  0  0  0  0  0
    7.0880   -4.6163   27.0010 C   0  0  0  0  0  0  0  0  0  0  0  0
    8.3117   -4.3698   27.4436 C   0  0  0  0  0  0  0  0  0  0  0  0
    1.1339   -5.0515   26.3541 C   0  0  0  0  0  0  0  0  0  0  0  0
    4.8080   -8.0362   16.7101 C   0  0  0  0  0  0  0  0  0  0  0  0
   -1.2173   -3.9294   26.9717 O   0  0  0  0  0  0  0  0  0  0  0  0
   -1.0025   -5.0942   27.4586 C   0  0  0  0  0  0  0  0  0  0  0  0
    2.2474   -8.9123   16.6273 C   0  0  0  0  0  0  0  0  0  0  0  0
    4.4957   -9.2636   17.3041 C   0  0  0  0  0  0  0  0  0  0  0  0
   -1.8070   -5.6086   28.1920 O   0  0  0  0  0  0  0  0  0  0  0  0
   10.4296   -5.1799   28.3140 C   0  0  0  0  0  0  0  0  0  0  0  0
    6.6017   -5.9004   26.9187 C   0  0  0  0  0  0  0  0  0  0  0  0
    2.4761   -6.9940   26.4111 N   0  0  0  0  0  0  0  0  0  0  0  0
    9.1353   -5.4053   27.8239 C   0  0  0  0  0  0  0  0  0  0  0  0
    0.9922   -9.3232   16.5995 O   0  0  0  0  0  0  0  0  0  0  0  0
    1.5232   -7.6869   27.1182 C   0  0  0  0  0  0  0  0  0  0  0  0
    8.6878   -6.6715   27.7262 N   0  0  0  0  0  0  0  0  0  0  0  0
    6.9911   -8.2423   27.1808 C   0  0  0  0  0  0  0  0  0  0  0  0
    3.8436   -7.2758   16.0578 C   0  0  0  0  0  0  0  0  0  0  0  0
    3.1882   -9.7190   17.2566 C   0  0  0  0  0  0  0  0  0  0  0  0
    5.3488   -6.1737   26.5092 C   0  0  0  0  0  0  0  0  0  0  0  0
    7.4567   -6.9464   27.2858 C   0  0  0  0  0  0  0  0  0  0  0  0
    0.1921   -5.7592   27.1123 C   0  0  0  0  0  0  0  0  0  0  0  0
    3.5517   -7.7407   25.9711 C   0  0  0  0  0  0  0  0  0  0  0  0
  1  4  4  0
  1 22  4  0
  2 20  4  0
  2 27  4  0
  3 12  4  0
  3 23  4  0
  4 25  4  0
  4 28  1  0
  5  8  4  0
  5 17  4  0
  6  7  4  0
  6 16  4  0
  7 18  4  0
  8 27  4  0
  9 13  4  0
  9 23  4  0
 10 11  1  0
 11 14  2  0
 11 27  1  0
 12 19  1  0
 12 24  4  0
 13 24  4  0
 15 18  1  0
 16 25  4  0
 16 26  4  0
 17 20  4  0
 17 28  1  0
 18 21  4  0
 21 26  4  0
 22 26  4  0
M  END
$$$$

 Created by Python create_sdf_string function

 28 30  0  0  0  0  0  0  0  0999 V2000
    5.7174   -8.4529   26.7190 C   0  0  0  0  0  0  0  0  0  0  0  0
    0.3974   -7.0711   27.5149 C   0  0  0  0  0  0  0  0  0  0  0  0
    2.5338   -7.6891   16.0102 C   0  0  0  0  0  0  0  0  0  0  0  0
    4.8690   -7.4380   26.4151 C   0  0  0  0  0  0  0  0  0  0  0  0
    2.3021   -5.6726   26.0378 C   0  0  0  0  0  0  0  0  0  0  0  0
    7.0880   -4.6163   27.0010 C   0  0  0  0  0  0  0  0  0  0  0  0
    8.3117   -4.3698   27.4436 C   0  0  0  0  0  0  0  0  0  0  0  0
    1.1339   -5.0515   26.3541 C   0  0  0  0  0  0  0  0  0  0  0  0
    4.8080   -8.0362   16.7101 C   0  0  0  0  0  0  0  0  0  0  0  0
   -1.2173   -3.9294   26.9717 O   0  0  0  0  0  0  0  0  0  0  0  0
   -1.0025   -5.0942   27.4586 C   0  0  0  0  0  0  0  0  0  0  0  0
    2.2474   -8.9123   16.6273 C   0  0  0  0  0  0  0  0  0  0  0  0
    4.4957   -9.2636   17.3041 C   0  0  0  0  0  0  0  0  0  0  0  0
   -1.8070   -5.6086   28.1920 O   0  0  0  0  0  0  0  0  0  0  0  0
   10.4296   -5.1799   28.3140 C   0  0  0  0  0  0  0  0  0  0  0  0
    6.6017   -5.9004   26.9187 C   0  0  0  0  0  0  0  0  0  0  0  0
    2.4761   -6.9940   26.4111 N   0  0  0  0  0  0  0  0  0  0  0  0
    9.1353   -5.4053   27.8239 C   0  0  0  0  0  0  0  0  0  0  0  0
    0.9922   -9.3232   16.5995 O   0  0  0  0  0  0  0  0  0  0  0  0
    1.5232   -7.6869   27.1182 C   0  0  0  0  0  0  0  0  0  0  0  0
    8.6878   -6.6715   27.7262 N   0  0  0  0  0  0  0  0  0  0  0  0
    6.9911   -8.2423   27.1808 C   0  0  0  0  0  0  0  0  0  0  0  0
    3.8436   -7.2758   16.0578 C   0  0  0  0  0  0  0  0  0  0  0  0
    3.1882   -9.7190   17.2566 C   0  0  0  0  0  0  0  0  0  0  0  0
    5.3488   -6.1737   26.5092 C   0  0  0  0  0  0  0  0  0  0  0  0
    7.4567   -6.9464   27.2858 C   0  0  0  0  0  0  0  0  0  0  0  0
    0.1921   -5.7592   27.1123 C   0  0  0  0  0  0  0  0  0  0  0  0
    3.5517   -7.7407   25.9711 C   0  0  0  0  0  0  0  0  0  0  0  0
  1  4  4  0
  1 22  4  0
  2 20  4  0
  2 27  4  0
  3 12  4  0
  3 23  4  0
  4 25  4  0
  4 28  1  0
  5  8  4  0
  5 17  4  0
  6  7  4  0
  6 16  4  0
  7 18  4  0
  8 27  4  0
  9 13  4  0
  9 23  4  0
 10 11  1  0
 11 14  2  0
 11 27  1  0
 12 19  1  0
 12 24  4  0
 13 24  4  0
 15 18  1  0
 16 25  4  0
 16 26  4  0
 17 20  4  0
 17 28  1  0
 18 21  4  0
 21 26  4  0
 22 26  4  0
M  END
$$$$

 Created by Python create_sdf_string function

 28 30  0  0  0  0  0  0  0  0999 V2000
    5.7174   -8.4529   26.7190 C   0  0  0  0  0  0  0  0  0  0  0  0
    0.3974   -7.0711   27.5149 C   0  0  0  0  0  0  0  0  0  0  0  0
    2.5338   -7.6891   16.0102 C   0  0  0  0  0  0  0  0  0  0  0  0
    4.8690   -7.4380   26.4151 C   0  0  0  0  0  0  0  0  0  0  0  0
    2.3021   -5.6726   26.0378 C   0  0  0  0  0  0  0  0  0  0  0  0
    7.0880   -4.6163   27.0010 C   0  0  0  0  0  0  0  0  0  0  0  0
    8.3117   -4.3698   27.4436 C   0  0  0  0  0  0  0  0  0  0  0  0
    1.1339   -5.0515   26.3541 C   0  0  0  0  0  0  0  0  0  0  0  0
    4.8080   -8.0362   16.7101 C   0  0  0  0  0  0  0  0  0  0  0  0
   -1.2173   -3.9294   26.9717 O   0  0  0  0  0  0  0  0  0  0  0  0
   -1.0025   -5.0942   27.4586 C   0  0  0  0  0  0  0  0  0  0  0  0
    2.2474   -8.9123   16.6273 C   0  0  0  0  0  0  0  0  0  0  0  0
    4.4957   -9.2636   17.3041 C   0  0  0  0  0  0  0  0  0  0  0  0
   -1.8070   -5.6086   28.1920 O   0  0  0  0  0  0  0  0  0  0  0  0
   10.4296   -5.1799   28.3140 C   0  0  0  0  0  0  0  0  0  0  0  0
    6.6017   -5.9004   26.9187 C   0  0  0  0  0  0  0  0  0  0  0  0
    2.4761   -6.9940   26.4111 N   0  0  0  0  0  0  0  0  0  0  0  0
    9.1353   -5.4053   27.8239 C   0  0  0  0  0  0  0  0  0  0  0  0
    0.9922   -9.3232   16.5995 O   0  0  0  0  0  0  0  0  0  0  0  0
    1.5232   -7.6869   27.1182 C   0  0  0  0  0  0  0  0  0  0  0  0
    8.6878   -6.6715   27.7262 N   0  0  0  0  0  0  0  0  0  0  0  0
    6.9911   -8.2423   27.1808 C   0  0  0  0  0  0  0  0  0  0  0  0
    3.8436   -7.2758   16.0578 C   0  0  0  0  0  0  0  0  0  0  0  0
    3.1882   -9.7190   17.2566 C   0  0  0  0  0  0  0  0  0  0  0  0
    5.3488   -6.1737   26.5092 C   0  0  0  0  0  0  0  0  0  0  0  0
    7.4567   -6.9464   27.2858 C   0  0  0  0  0  0  0  0  0  0  0  0
    0.1921   -5.7592   27.1123 C   0  0  0  0  0  0  0  0  0  0  0  0
    3.5517   -7.7407   25.9711 C   0  0  0  0  0  0  0  0  0  0  0  0
  1  4  4  0
  1 22  4  0
  2 20  4  0
  2 27  4  0
  3 12  4  0
  3 23  4  0
  4 25  4  0
  4 28  1  0
  5  8  4  0
  5 17  4  0
  6  7  4  0
  6 16  4  0
  7 18  4  0
  8 27  4  0
  9 13  4  0
  9 23  4  0
 10 11  1  0
 11 14  2  0
 11 27  1  0
 12 19  1  0
 12 24  4  0
 13 24  4  0
 15 18  1  0
 16 25  4  0
 16 26  4  0
 17 20  4  0
 17 28  1  0
 18 21  4  0
 21 26  4  0
 22 26  4  0
M  END
$$$$

 Created by Python create_sdf_string function

 28 30  0  0  0  0  0  0  0  0999 V2000
    5.7174   -8.4529   26.7190 C   0  0  0  0  0  0  0  0  0  0  0  0
    0.3974   -7.0711   27.5149 C   0  0  0  0  0  0  0  0  0  0  0  0
    2.5338   -7.6891   16.0102 C   0  0  0  0  0  0  0  0  0  0  0  0
    4.8690   -7.4380   26.4151 C   0  0  0  0  0  0  0  0  0  0  0  0
    2.3021   -5.6726   26.0378 C   0  0  0  0  0  0  0  0  0  0  0  0
    7.0880   -4.6163   27.0010 C   0  0  0  0  0  0  0  0  0  0  0  0
    8.3117   -4.3698   27.4436 C   0  0  0  0  0  0  0  0  0  0  0  0
    1.1339   -5.0515   26.3541 C   0  0  0  0  0  0  0  0  0  0  0  0
    4.8080   -8.0362   16.7101 C   0  0  0  0  0  0  0  0  0  0  0  0
   -1.2173   -3.9294   26.9717 O   0  0  0  0  0  0  0  0  0  0  0  0
   -1.0025   -5.0942   27.4586 C   0  0  0  0  0  0  0  0  0  0  0  0
    2.2474   -8.9123   16.6273 C   0  0  0  0  0  0  0  0  0  0  0  0
    4.4957   -9.2636   17.3041 C   0  0  0  0  0  0  0  0  0  0  0  0
   -1.8070   -5.6086   28.1920 O   0  0  0  0  0  0  0  0  0  0  0  0
   10.4296   -5.1799   28.3140 C   0  0  0  0  0  0  0  0  0  0  0  0
    6.6017   -5.9004   26.9187 C   0  0  0  0  0  0  0  0  0  0  0  0
    2.4761   -6.9940   26.4111 N   0  0  0  0  0  0  0  0  0  0  0  0
    9.1353   -5.4053   27.8239 C   0  0  0  0  0  0  0  0  0  0  0  0
    0.9922   -9.3232   16.5995 O   0  0  0  0  0  0  0  0  0  0  0  0
    1.5232   -7.6869   27.1182 C   0  0  0  0  0  0  0  0  0  0  0  0
    8.6878   -6.6715   27.7262 N   0  0  0  0  0  0  0  0  0  0  0  0
    6.9911   -8.2423   27.1808 C   0  0  0  0  0  0  0  0  0  0  0  0
    3.8436   -7.2758   16.0578 C   0  0  0  0  0  0  0  0  0  0  0  0
    3.1882   -9.7190   17.2566 C   0  0  0  0  0  0  0  0  0  0  0  0
    5.3488   -6.1737   26.5092 C   0  0  0  0  0  0  0  0  0  0  0  0
    7.4567   -6.9464   27.2858 C   0  0  0  0  0  0  0  0  0  0  0  0
    0.1921   -5.7592   27.1123 C   0  0  0  0  0  0  0  0  0  0  0  0
    3.5517   -7.7407   25.9711 C   0  0  0  0  0  0  0  0  0  0  0  0
  1  4  4  0
  1 22  4  0
  2 20  4  0
  2 27  4  0
  3 12  4  0
  3 23  4  0
  4 25  4  0
  4 28  1  0
  5  8  4  0
  5 17  4  0
  6  7  4  0
  6 16  4  0
  7 18  4  0
  8 27  4  0
  9 13  4  0
  9 23  4  0
 10 11  1  0
 11 14  2  0
 11 27  1  0
 12 19  1  0
 12 24  4  0
 13 24  4  0
 15 18  1  0
 16 25  4  0
 16 26  4  0
 17 20  4  0
 17 28  1  0
 18 21  4  0
 21 26  4  0
 22 26  4  0
M  END
$$$$

 Created by Python create_sdf_string function

 28 30  0  0  0  0  0  0  0  0999 V2000
    5.7174   -8.4529   26.7190 C   0  0  0  0  0  0  0  0  0  0  0  0
    0.3974   -7.0711   27.5149 C   0  0  0  0  0  0  0  0  0  0  0  0
    2.5338   -7.6891   16.0102 C   0  0  0  0  0  0  0  0  0  0  0  0
    4.8690   -7.4380   26.4151 C   0  0  0  0  0  0  0  0  0  0  0  0
    2.3021   -5.6726   26.0378 C   0  0  0  0  0  0  0  0  0  0  0  0
    7.0880   -4.6163   27.0010 C   0  0  0  0  0  0  0  0  0  0  0  0
    8.3117   -4.3698   27.4436 C   0  0  0  0  0  0  0  0  0  0  0  0
    1.1339   -5.0515   26.3541 C   0  0  0  0  0  0  0  0  0  0  0  0
    4.8080   -8.0362   16.7101 C   0  0  0  0  0  0  0  0  0  0  0  0
   -1.2173   -3.9294   26.9717 O   0  0  0  0  0  0  0  0  0  0  0  0
   -1.0025   -5.0942   27.4586 C   0  0  0  0  0  0  0  0  0  0  0  0
    2.2474   -8.9123   16.6273 C   0  0  0  0  0  0  0  0  0  0  0  0
    4.4957   -9.2636   17.3041 C   0  0  0  0  0  0  0  0  0  0  0  0
   -1.8070   -5.6086   28.1920 O   0  0  0  0  0  0  0  0  0  0  0  0
   10.4296   -5.1799   28.3140 C   0  0  0  0  0  0  0  0  0  0  0  0
    6.6017   -5.9004   26.9187 C   0  0  0  0  0  0  0  0  0  0  0  0
    2.4761   -6.9940   26.4111 N   0  0  0  0  0  0  0  0  0  0  0  0
    9.1353   -5.4053   27.8239 C   0  0  0  0  0  0  0  0  0  0  0  0
    0.9922   -9.3232   16.5995 O   0  0  0  0  0  0  0  0  0  0  0  0
    1.5232   -7.6869   27.1182 C   0  0  0  0  0  0  0  0  0  0  0  0
    8.6878   -6.6715   27.7262 N   0  0  0  0  0  0  0  0  0  0  0  0
    6.9911   -8.2423   27.1808 C   0  0  0  0  0  0  0  0  0  0  0  0
    3.8436   -7.2758   16.0578 C   0  0  0  0  0  0  0  0  0  0  0  0
    3.1882   -9.7190   17.2566 C   0  0  0  0  0  0  0  0  0  0  0  0
    5.3488   -6.1737   26.5092 C   0  0  0  0  0  0  0  0  0  0  0  0
    7.4567   -6.9464   27.2858 C   0  0  0  0  0  0  0  0  0  0  0  0
    0.1921   -5.7592   27.1123 C   0  0  0  0  0  0  0  0  0  0  0  0
    3.5517   -7.7407   25.9711 C   0  0  0  0  0  0  0  0  0  0  0  0
  1  4  4  0
  1 22  4  0
  2 20  4  0
  2 27  4  0
  3 12  4  0
  3 23  4  0
  4 25  4  0
  4 28  1  0
  5  8  4  0
  5 17  4  0
  6  7  4  0
  6 16  4  0
  7 18  4  0
  8 27  4  0
  9 13  4  0
  9 23  4  0
 10 11  1  0
 11 14  2  0
 11 27  1  0
 12 19  1  0
 12 24  4  0
 13 24  4  0
 15 18  1  0
 16 25  4  0
 16 26  4  0
 17 20  4  0
 17 28  1  0
 18 21  4  0
 21 26  4  0
 22 26  4  0
M  END
$$$$

 Created by Python create_sdf_string function

 28 30  0  0  0  0  0  0  0  0999 V2000
    5.7174   -8.4529   26.7190 C   0  0  0  0  0  0  0  0  0  0  0  0
    0.3974   -7.0711   27.5149 C   0  0  0  0  0  0  0  0  0  0  0  0
    2.5338   -7.6891   16.0102 C   0  0  0  0  0  0  0  0  0  0  0  0
    4.8690   -7.4380   26.4151 C   0  0  0  0  0  0  0  0  0  0  0  0
    2.3021   -5.6726   26.0378 C   0  0  0  0  0  0  0  0  0  0  0  0
    7.0880   -4.6163   27.0010 C   0  0  0  0  0  0  0  0  0  0  0  0
    8.3117   -4.3698   27.4436 C   0  0  0  0  0  0  0  0  0  0  0  0
    1.1339   -5.0515   26.3541 C   0  0  0  0  0  0  0  0  0  0  0  0
    4.8080   -8.0362   16.7101 C   0  0  0  0  0  0  0  0  0  0  0  0
   -1.2173   -3.9294   26.9717 O   0  0  0  0  0  0  0  0  0  0  0  0
   -1.0025   -5.0942   27.4586 C   0  0  0  0  0  0  0  0  0  0  0  0
    2.2474   -8.9123   16.6273 C   0  0  0  0  0  0  0  0  0  0  0  0
    4.4957   -9.2636   17.3041 C   0  0  0  0  0  0  0  0  0  0  0  0
   -1.8070   -5.6086   28.1920 O   0  0  0  0  0  0  0  0  0  0  0  0
   10.4296   -5.1799   28.3140 C   0  0  0  0  0  0  0  0  0  0  0  0
    6.6017   -5.9004   26.9187 C   0  0  0  0  0  0  0  0  0  0  0  0
    2.4761   -6.9940   26.4111 N   0  0  0  0  0  0  0  0  0  0  0  0
    9.1353   -5.4053   27.8239 C   0  0  0  0  0  0  0  0  0  0  0  0
    0.9922   -9.3232   16.5995 O   0  0  0  0  0  0  0  0  0  0  0  0
    1.5232   -7.6869   27.1182 C   0  0  0  0  0  0  0  0  0  0  0  0
    8.6878   -6.6715   27.7262 N   0  0  0  0  0  0  0  0  0  0  0  0
    6.9911   -8.2423   27.1808 C   0  0  0  0  0  0  0  0  0  0  0  0
    3.8436   -7.2758   16.0578 C   0  0  0  0  0  0  0  0  0  0  0  0
    3.1882   -9.7190   17.2566 C   0  0  0  0  0  0  0  0  0  0  0  0
    5.3488   -6.1737   26.5092 C   0  0  0  0  0  0  0  0  0  0  0  0
    7.4567   -6.9464   27.2858 C   0  0  0  0  0  0  0  0  0  0  0  0
    0.1921   -5.7592   27.1123 C   0  0  0  0  0  0  0  0  0  0  0  0
    3.5517   -7.7407   25.9711 C   0  0  0  0  0  0  0  0  0  0  0  0
  1  4  4  0
  1 22  4  0
  2 20  4  0
  2 27  4  0
  3 12  4  0
  3 23  4  0
  4 25  4  0
  4 28  1  0
  5  8  4  0
  5 17  4  0
  6  7  4  0
  6 16  4  0
  7 18  4  0
  8 27  4  0
  9 13  4  0
  9 23  4  0
 10 11  1  0
 11 14  2  0
 11 27  1  0
 12 19  1  0
 12 24  4  0
 13 24  4  0
 15 18  1  0
 16 25  4  0
 16 26  4  0
 17 20  4  0
 17 28  1  0
 18 21  4  0
 21 26  4  0
 22 26  4  0
M  END
$$$$

 Created by Python create_sdf_string function

 28 30  0  0  0  0  0  0  0  0999 V2000
    5.7174   -8.4529   26.7190 C   0  0  0  0  0  0  0  0  0  0  0  0
    0.3974   -7.0711   27.5149 C   0  0  0  0  0  0  0  0  0  0  0  0
    2.5338   -7.6891   16.0102 C   0  0  0  0  0  0  0  0  0  0  0  0
    4.8690   -7.4380   26.4151 C   0  0  0  0  0  0  0  0  0  0  0  0
    2.3021   -5.6726   26.0378 C   0  0  0  0  0  0  0  0  0  0  0  0
    7.0880   -4.6163   27.0010 C   0  0  0  0  0  0  0  0  0  0  0  0
    8.3117   -4.3698   27.4436 C   0  0  0  0  0  0  0  0  0  0  0  0
    1.1339   -5.0515   26.3541 C   0  0  0  0  0  0  0  0  0  0  0  0
    4.8080   -8.0362   16.7101 C   0  0  0  0  0  0  0  0  0  0  0  0
   -1.2173   -3.9294   26.9717 O   0  0  0  0  0  0  0  0  0  0  0  0
   -1.0025   -5.0942   27.4586 C   0  0  0  0  0  0  0  0  0  0  0  0
    2.2474   -8.9123   16.6273 C   0  0  0  0  0  0  0  0  0  0  0  0
    4.4957   -9.2636   17.3041 C   0  0  0  0  0  0  0  0  0  0  0  0
   -1.8070   -5.6086   28.1920 O   0  0  0  0  0  0  0  0  0  0  0  0
   10.4296   -5.1799   28.3140 C   0  0  0  0  0  0  0  0  0  0  0  0
    6.6017   -5.9004   26.9187 C   0  0  0  0  0  0  0  0  0  0  0  0
    2.4761   -6.9940   26.4111 N   0  0  0  0  0  0  0  0  0  0  0  0
    9.1353   -5.4053   27.8239 C   0  0  0  0  0  0  0  0  0  0  0  0
    0.9922   -9.3232   16.5995 O   0  0  0  0  0  0  0  0  0  0  0  0
    1.5232   -7.6869   27.1182 C   0  0  0  0  0  0  0  0  0  0  0  0
    8.6878   -6.6715   27.7262 N   0  0  0  0  0  0  0  0  0  0  0  0
    6.9911   -8.2423   27.1808 C   0  0  0  0  0  0  0  0  0  0  0  0
    3.8436   -7.2758   16.0578 C   0  0  0  0  0  0  0  0  0  0  0  0
    3.1882   -9.7190   17.2566 C   0  0  0  0  0  0  0  0  0  0  0  0
    5.3488   -6.1737   26.5092 C   0  0  0  0  0  0  0  0  0  0  0  0
    7.4567   -6.9464   27.2858 C   0  0  0  0  0  0  0  0  0  0  0  0
    0.1921   -5.7592   27.1123 C   0  0  0  0  0  0  0  0  0  0  0  0
    3.5517   -7.7407   25.9711 C   0  0  0  0  0  0  0  0  0  0  0  0
  1  4  4  0
  1 22  4  0
  2 20  4  0
  2 27  4  0
  3 12  4  0
  3 23  4  0
  4 25  4  0
  4 28  1  0
  5  8  4  0
  5 17  4  0
  6  7  4  0
  6 16  4  0
  7 18  4  0
  8 27  4  0
  9 13  4  0
  9 23  4  0
 10 11  1  0
 11 14  2  0
 11 27  1  0
 12 19  1  0
 12 24  4  0
 13 24  4  0
 15 18  1  0
 16 25  4  0
 16 26  4  0
 17 20  4  0
 17 28  1  0
 18 21  4  0
 21 26  4  0
 22 26  4  0
M  END
$$$$

 Created by Python create_sdf_string function

 28 30  0  0  0  0  0  0  0  0999 V2000
    5.7174   -8.4529   26.7190 C   0  0  0  0  0  0  0  0  0  0  0  0
    0.3974   -7.0711   27.5149 C   0  0  0  0  0  0  0  0  0  0  0  0
    2.5338   -7.6891   16.0102 C   0  0  0  0  0  0  0  0  0  0  0  0
    4.8690   -7.4380   26.4151 C   0  0  0  0  0  0  0  0  0  0  0  0
    2.3021   -5.6726   26.0378 C   0  0  0  0  0  0  0  0  0  0  0  0
    7.0880   -4.6163   27.0010 C   0  0  0  0  0  0  0  0  0  0  0  0
    8.3117   -4.3698   27.4436 C   0  0  0  0  0  0  0  0  0  0  0  0
    1.1339   -5.0515   26.3541 C   0  0  0  0  0  0  0  0  0  0  0  0
    4.8080   -8.0362   16.7101 C   0  0  0  0  0  0  0  0  0  0  0  0
   -1.2173   -3.9294   26.9717 O   0  0  0  0  0  0  0  0  0  0  0  0
   -1.0025   -5.0942   27.4586 C   0  0  0  0  0  0  0  0  0  0  0  0
    2.2474   -8.9123   16.6273 C   0  0  0  0  0  0  0  0  0  0  0  0
    4.4957   -9.2636   17.3041 C   0  0  0  0  0  0  0  0  0  0  0  0
   -1.8070   -5.6086   28.1920 O   0  0  0  0  0  0  0  0  0  0  0  0
   10.4296   -5.1799   28.3140 C   0  0  0  0  0  0  0  0  0  0  0  0
    6.6017   -5.9004   26.9187 C   0  0  0  0  0  0  0  0  0  0  0  0
    2.4761   -6.9940   26.4111 N   0  0  0  0  0  0  0  0  0  0  0  0
    9.1353   -5.4053   27.8239 C   0  0  0  0  0  0  0  0  0  0  0  0
    0.9922   -9.3232   16.5995 O   0  0  0  0  0  0  0  0  0  0  0  0
    1.5232   -7.6869   27.1182 C   0  0  0  0  0  0  0  0  0  0  0  0
    8.6878   -6.6715   27.7262 N   0  0  0  0  0  0  0  0  0  0  0  0
    6.9911   -8.2423   27.1808 C   0  0  0  0  0  0  0  0  0  0  0  0
    3.8436   -7.2758   16.0578 C   0  0  0  0  0  0  0  0  0  0  0  0
    3.1882   -9.7190   17.2566 C   0  0  0  0  0  0  0  0  0  0  0  0
    5.3488   -6.1737   26.5092 C   0  0  0  0  0  0  0  0  0  0  0  0
    7.4567   -6.9464   27.2858 C   0  0  0  0  0  0  0  0  0  0  0  0
    0.1921   -5.7592   27.1123 C   0  0  0  0  0  0  0  0  0  0  0  0
    3.5517   -7.7407   25.9711 C   0  0  0  0  0  0  0  0  0  0  0  0
  1  4  4  0
  1 22  4  0
  2 20  4  0
  2 27  4  0
  3 12  4  0
  3 23  4  0
  4 25  4  0
  4 28  1  0
  5  8  4  0
  5 17  4  0
  6  7  4  0
  6 16  4  0
  7 18  4  0
  8 27  4  0
  9 13  4  0
  9 23  4  0
 10 11  1  0
 11 14  2  0
 11 27  1  0
 12 19  1  0
 12 24  4  0
 13 24  4  0
 15 18  1  0
 16 25  4  0
 16 26  4  0
 17 20  4  0
 17 28  1  0
 18 21  4  0
 21 26  4  0
 22 26  4  0
M  END
$$$$

 Created by Python create_sdf_string function

 28 30  0  0  0  0  0  0  0  0999 V2000
    5.7174   -8.4529   26.7190 C   0  0  0  0  0  0  0  0  0  0  0  0
    0.3974   -7.0711   27.5149 C   0  0  0  0  0  0  0  0  0  0  0  0
    2.5338   -7.6891   16.0102 C   0  0  0  0  0  0  0  0  0  0  0  0
    4.8690   -7.4380   26.4151 C   0  0  0  0  0  0  0  0  0  0  0  0
    2.3021   -5.6726   26.0378 C   0  0  0  0  0  0  0  0  0  0  0  0
    7.0880   -4.6163   27.0010 C   0  0  0  0  0  0  0  0  0  0  0  0
    8.3117   -4.3698   27.4436 C   0  0  0  0  0  0  0  0  0  0  0  0
    1.1339   -5.0515   26.3541 C   0  0  0  0  0  0  0  0  0  0  0  0
    4.8080   -8.0362   16.7101 C   0  0  0  0  0  0  0  0  0  0  0  0
   -1.2173   -3.9294   26.9717 O   0  0  0  0  0  0  0  0  0  0  0  0
   -1.0025   -5.0942   27.4586 C   0  0  0  0  0  0  0  0  0  0  0  0
    2.2474   -8.9123   16.6273 C   0  0  0  0  0  0  0  0  0  0  0  0
    4.4957   -9.2636   17.3041 C   0  0  0  0  0  0  0  0  0  0  0  0
   -1.8070   -5.6086   28.1920 O   0  0  0  0  0  0  0  0  0  0  0  0
   10.4296   -5.1799   28.3140 C   0  0  0  0  0  0  0  0  0  0  0  0
    6.6017   -5.9004   26.9187 C   0  0  0  0  0  0  0  0  0  0  0  0
    2.4761   -6.9940   26.4111 N   0  0  0  0  0  0  0  0  0  0  0  0
    9.1353   -5.4053   27.8239 C   0  0  0  0  0  0  0  0  0  0  0  0
    0.9922   -9.3232   16.5995 O   0  0  0  0  0  0  0  0  0  0  0  0
    1.5232   -7.6869   27.1182 C   0  0  0  0  0  0  0  0  0  0  0  0
    8.6878   -6.6715   27.7262 N   0  0  0  0  0  0  0  0  0  0  0  0
    6.9911   -8.2423   27.1808 C   0  0  0  0  0  0  0  0  0  0  0  0
    3.8436   -7.2758   16.0578 C   0  0  0  0  0  0  0  0  0  0  0  0
    3.1882   -9.7190   17.2566 C   0  0  0  0  0  0  0  0  0  0  0  0
    5.3488   -6.1737   26.5092 C   0  0  0  0  0  0  0  0  0  0  0  0
    7.4567   -6.9464   27.2858 C   0  0  0  0  0  0  0  0  0  0  0  0
    0.1921   -5.7592   27.1123 C   0  0  0  0  0  0  0  0  0  0  0  0
    3.5517   -7.7407   25.9711 C   0  0  0  0  0  0  0  0  0  0  0  0
  1  4  4  0
  1 22  4  0
  2 20  4  0
  2 27  4  0
  3 12  4  0
  3 23  4  0
  4 25  4  0
  4 28  1  0
  5  8  4  0
  5 17  4  0
  6  7  4  0
  6 16  4  0
  7 18  4  0
  8 27  4  0
  9 13  4  0
  9 23  4  0
 10 11  1  0
 11 14  2  0
 11 27  1  0
 12 19  1  0
 12 24  4  0
 13 24  4  0
 15 18  1  0
 16 25  4  0
 16 26  4  0
 17 20  4  0
 17 28  1  0
 18 21  4  0
 21 26  4  0
 22 26  4  0
M  END
$$$$

 Created by Python create_sdf_string function

 28 30  0  0  0  0  0  0  0  0999 V2000
    5.7174   -8.4529   26.7190 C   0  0  0  0  0  0  0  0  0  0  0  0
    0.3974   -7.0711   27.5149 C   0  0  0  0  0  0  0  0  0  0  0  0
    2.5338   -7.6891   16.0102 C   0  0  0  0  0  0  0  0  0  0  0  0
    4.8690   -7.4380   26.4151 C   0  0  0  0  0  0  0  0  0  0  0  0
    2.3021   -5.6726   26.0378 C   0  0  0  0  0  0  0  0  0  0  0  0
    7.0880   -4.6163   27.0010 C   0  0  0  0  0  0  0  0  0  0  0  0
    8.3117   -4.3698   27.4436 C   0  0  0  0  0  0  0  0  0  0  0  0
    1.1339   -5.0515   26.3541 C   0  0  0  0  0  0  0  0  0  0  0  0
    4.8080   -8.0362   16.7101 C   0  0  0  0  0  0  0  0  0  0  0  0
   -1.2173   -3.9294   26.9717 O   0  0  0  0  0  0  0  0  0  0  0  0
   -1.0025   -5.0942   27.4586 C   0  0  0  0  0  0  0  0  0  0  0  0
    2.2474   -8.9123   16.6273 C   0  0  0  0  0  0  0  0  0  0  0  0
    4.4957   -9.2636   17.3041 C   0  0  0  0  0  0  0  0  0  0  0  0
   -1.8070   -5.6086   28.1920 O   0  0  0  0  0  0  0  0  0  0  0  0
   10.4296   -5.1799   28.3140 C   0  0  0  0  0  0  0  0  0  0  0  0
    6.6017   -5.9004   26.9187 C   0  0  0  0  0  0  0  0  0  0  0  0
    2.4761   -6.9940   26.4111 N   0  0  0  0  0  0  0  0  0  0  0  0
    9.1353   -5.4053   27.8239 C   0  0  0  0  0  0  0  0  0  0  0  0
    0.9922   -9.3232   16.5995 O   0  0  0  0  0  0  0  0  0  0  0  0
    1.5232   -7.6869   27.1182 C   0  0  0  0  0  0  0  0  0  0  0  0
    8.6878   -6.6715   27.7262 N   0  0  0  0  0  0  0  0  0  0  0  0
    6.9911   -8.2423   27.1808 C   0  0  0  0  0  0  0  0  0  0  0  0
    3.8436   -7.2758   16.0578 C   0  0  0  0  0  0  0  0  0  0  0  0
    3.1882   -9.7190   17.2566 C   0  0  0  0  0  0  0  0  0  0  0  0
    5.3488   -6.1737   26.5092 C   0  0  0  0  0  0  0  0  0  0  0  0
    7.4567   -6.9464   27.2858 C   0  0  0  0  0  0  0  0  0  0  0  0
    0.1921   -5.7592   27.1123 C   0  0  0  0  0  0  0  0  0  0  0  0
    3.5517   -7.7407   25.9711 C   0  0  0  0  0  0  0  0  0  0  0  0
  1  4  4  0
  1 22  4  0
  2 20  4  0
  2 27  4  0
  3 12  4  0
  3 23  4  0
  4 25  4  0
  4 28  1  0
  5  8  4  0
  5 17  4  0
  6  7  4  0
  6 16  4  0
  7 18  4  0
  8 27  4  0
  9 13  4  0
  9 23  4  0
 10 11  1  0
 11 14  2  0
 11 27  1  0
 12 19  1  0
 12 24  4  0
 13 24  4  0
 15 18  1  0
 16 25  4  0
 16 26  4  0
 17 20  4  0
 17 28  1  0
 18 21  4  0
 21 26  4  0
 22 26  4  0
M  END
$$$$

 Created by Python create_sdf_string function

 28 30  0  0  0  0  0  0  0  0999 V2000
    5.7174   -8.4529   26.7190 C   0  0  0  0  0  0  0  0  0  0  0  0
    0.3974   -7.0711   27.5149 C   0  0  0  0  0  0  0  0  0  0  0  0
    2.5338   -7.6891   16.0102 C   0  0  0  0  0  0  0  0  0  0  0  0
    4.8690   -7.4380   26.4151 C   0  0  0  0  0  0  0  0  0  0  0  0
    2.3021   -5.6726   26.0378 C   0  0  0  0  0  0  0  0  0  0  0  0
    7.0880   -4.6163   27.0010 C   0  0  0  0  0  0  0  0  0  0  0  0
    8.3117   -4.3698   27.4436 C   0  0  0  0  0  0  0  0  0  0  0  0
    1.1339   -5.0515   26.3541 C   0  0  0  0  0  0  0  0  0  0  0  0
    4.8080   -8.0362   16.7101 C   0  0  0  0  0  0  0  0  0  0  0  0
   -1.2173   -3.9294   26.9717 O   0  0  0  0  0  0  0  0  0  0  0  0
   -1.0025   -5.0942   27.4586 C   0  0  0  0  0  0  0  0  0  0  0  0
    2.2474   -8.9123   16.6273 C   0  0  0  0  0  0  0  0  0  0  0  0
    4.4957   -9.2636   17.3041 C   0  0  0  0  0  0  0  0  0  0  0  0
   -1.8070   -5.6086   28.1920 O   0  0  0  0  0  0  0  0  0  0  0  0
   10.4296   -5.1799   28.3140 C   0  0  0  0  0  0  0  0  0  0  0  0
    6.6017   -5.9004   26.9187 C   0  0  0  0  0  0  0  0  0  0  0  0
    2.4761   -6.9940   26.4111 N   0  0  0  0  0  0  0  0  0  0  0  0
    9.1353   -5.4053   27.8239 C   0  0  0  0  0  0  0  0  0  0  0  0
    0.9922   -9.3232   16.5995 O   0  0  0  0  0  0  0  0  0  0  0  0
    1.5232   -7.6869   27.1182 C   0  0  0  0  0  0  0  0  0  0  0  0
    8.6878   -6.6715   27.7262 N   0  0  0  0  0  0  0  0  0  0  0  0
    6.9911   -8.2423   27.1808 C   0  0  0  0  0  0  0  0  0  0  0  0
    3.8436   -7.2758   16.0578 C   0  0  0  0  0  0  0  0  0  0  0  0
    3.1882   -9.7190   17.2566 C   0  0  0  0  0  0  0  0  0  0  0  0
    5.3488   -6.1737   26.5092 C   0  0  0  0  0  0  0  0  0  0  0  0
    7.4567   -6.9464   27.2858 C   0  0  0  0  0  0  0  0  0  0  0  0
    0.1921   -5.7592   27.1123 C   0  0  0  0  0  0  0  0  0  0  0  0
    3.5517   -7.7407   25.9711 C   0  0  0  0  0  0  0  0  0  0  0  0
  1  4  4  0
  1 22  4  0
  2 20  4  0
  2 27  4  0
  3 12  4  0
  3 23  4  0
  4 25  4  0
  4 28  1  0
  5  8  4  0
  5 17  4  0
  6  7  4  0
  6 16  4  0
  7 18  4  0
  8 27  4  0
  9 13  4  0
  9 23  4  0
 10 11  1  0
 11 14  2  0
 11 27  1  0
 12 19  1  0
 12 24  4  0
 13 24  4  0
 15 18  1  0
 16 25  4  0
 16 26  4  0
 17 20  4  0
 17 28  1  0
 18 21  4  0
 21 26  4  0
 22 26  4  0
M  END
$$$$

 Created by Python create_sdf_string function

 28 30  0  0  0  0  0  0  0  0999 V2000
    5.7174   -8.4529   26.7190 C   0  0  0  0  0  0  0  0  0  0  0  0
    0.3974   -7.0711   27.5149 C   0  0  0  0  0  0  0  0  0  0  0  0
    2.5338   -7.6891   16.0102 C   0  0  0  0  0  0  0  0  0  0  0  0
    4.8690   -7.4380   26.4151 C   0  0  0  0  0  0  0  0  0  0  0  0
    2.3021   -5.6726   26.0378 C   0  0  0  0  0  0  0  0  0  0  0  0
    7.0880   -4.6163   27.0010 C   0  0  0  0  0  0  0  0  0  0  0  0
    8.3117   -4.3698   27.4436 C   0  0  0  0  0  0  0  0  0  0  0  0
    1.1339   -5.0515   26.3541 C   0  0  0  0  0  0  0  0  0  0  0  0
    4.8080   -8.0362   16.7101 C   0  0  0  0  0  0  0  0  0  0  0  0
   -1.2173   -3.9294   26.9717 O   0  0  0  0  0  0  0  0  0  0  0  0
   -1.0025   -5.0942   27.4586 C   0  0  0  0  0  0  0  0  0  0  0  0
    2.2474   -8.9123   16.6273 C   0  0  0  0  0  0  0  0  0  0  0  0
    4.4957   -9.2636   17.3041 C   0  0  0  0  0  0  0  0  0  0  0  0
   -1.8070   -5.6086   28.1920 O   0  0  0  0  0  0  0  0  0  0  0  0
   10.4296   -5.1799   28.3140 C   0  0  0  0  0  0  0  0  0  0  0  0
    6.6017   -5.9004   26.9187 C   0  0  0  0  0  0  0  0  0  0  0  0
    2.4761   -6.9940   26.4111 N   0  0  0  0  0  0  0  0  0  0  0  0
    9.1353   -5.4053   27.8239 C   0  0  0  0  0  0  0  0  0  0  0  0
    0.9922   -9.3232   16.5995 O   0  0  0  0  0  0  0  0  0  0  0  0
    1.5232   -7.6869   27.1182 C   0  0  0  0  0  0  0  0  0  0  0  0
    8.6878   -6.6715   27.7262 N   0  0  0  0  0  0  0  0  0  0  0  0
    6.9911   -8.2423   27.1808 C   0  0  0  0  0  0  0  0  0  0  0  0
    3.8436   -7.2758   16.0578 C   0  0  0  0  0  0  0  0  0  0  0  0
    3.1882   -9.7190   17.2566 C   0  0  0  0  0  0  0  0  0  0  0  0
    5.3488   -6.1737   26.5092 C   0  0  0  0  0  0  0  0  0  0  0  0
    7.4567   -6.9464   27.2858 C   0  0  0  0  0  0  0  0  0  0  0  0
    0.1921   -5.7592   27.1123 C   0  0  0  0  0  0  0  0  0  0  0  0
    3.5517   -7.7407   25.9711 C   0  0  0  0  0  0  0  0  0  0  0  0
  1  4  4  0
  1 22  4  0
  2 20  4  0
  2 27  4  0
  3 12  4  0
  3 23  4  0
  4 25  4  0
  4 28  1  0
  5  8  4  0
  5 17  4  0
  6  7  4  0
  6 16  4  0
  7 18  4  0
  8 27  4  0
  9 13  4  0
  9 23  4  0
 10 11  1  0
 11 14  2  0
 11 27  1  0
 12 19  1  0
 12 24  4  0
 13 24  4  0
 15 18  1  0
 16 25  4  0
 16 26  4  0
 17 20  4  0
 17 28  1  0
 18 21  4  0
 21 26  4  0
 22 26  4  0
M  END
$$$$

 Created by Python create_sdf_string function

 28 30  0  0  0  0  0  0  0  0999 V2000
    5.7174   -8.4529   26.7190 C   0  0  0  0  0  0  0  0  0  0  0  0
    0.3974   -7.0711   27.5149 C   0  0  0  0  0  0  0  0  0  0  0  0
    2.5338   -7.6891   16.0102 C   0  0  0  0  0  0  0  0  0  0  0  0
    4.8690   -7.4380   26.4151 C   0  0  0  0  0  0  0  0  0  0  0  0
    2.3021   -5.6726   26.0378 C   0  0  0  0  0  0  0  0  0  0  0  0
    7.0880   -4.6163   27.0010 C   0  0  0  0  0  0  0  0  0  0  0  0
    8.3117   -4.3698   27.4436 C   0  0  0  0  0  0  0  0  0  0  0  0
    1.1339   -5.0515   26.3541 C   0  0  0  0  0  0  0  0  0  0  0  0
    4.8080   -8.0362   16.7101 C   0  0  0  0  0  0  0  0  0  0  0  0
   -1.2173   -3.9294   26.9717 O   0  0  0  0  0  0  0  0  0  0  0  0
   -1.0025   -5.0942   27.4586 C   0  0  0  0  0  0  0  0  0  0  0  0
    2.2474   -8.9123   16.6273 C   0  0  0  0  0  0  0  0  0  0  0  0
    4.4957   -9.2636   17.3041 C   0  0  0  0  0  0  0  0  0  0  0  0
   -1.8070   -5.6086   28.1920 O   0  0  0  0  0  0  0  0  0  0  0  0
   10.4296   -5.1799   28.3140 C   0  0  0  0  0  0  0  0  0  0  0  0
    6.6017   -5.9004   26.9187 C   0  0  0  0  0  0  0  0  0  0  0  0
    2.4761   -6.9940   26.4111 N   0  0  0  0  0  0  0  0  0  0  0  0
    9.1353   -5.4053   27.8239 C   0  0  0  0  0  0  0  0  0  0  0  0
    0.9922   -9.3232   16.5995 O   0  0  0  0  0  0  0  0  0  0  0  0
    1.5232   -7.6869   27.1182 C   0  0  0  0  0  0  0  0  0  0  0  0
    8.6878   -6.6715   27.7262 N   0  0  0  0  0  0  0  0  0  0  0  0
    6.9911   -8.2423   27.1808 C   0  0  0  0  0  0  0  0  0  0  0  0
    3.8436   -7.2758   16.0578 C   0  0  0  0  0  0  0  0  0  0  0  0
    3.1882   -9.7190   17.2566 C   0  0  0  0  0  0  0  0  0  0  0  0
    5.3488   -6.1737   26.5092 C   0  0  0  0  0  0  0  0  0  0  0  0
    7.4567   -6.9464   27.2858 C   0  0  0  0  0  0  0  0  0  0  0  0
    0.1921   -5.7592   27.1123 C   0  0  0  0  0  0  0  0  0  0  0  0
    3.5517   -7.7407   25.9711 C   0  0  0  0  0  0  0  0  0  0  0  0
  1  4  4  0
  1 22  4  0
  2 20  4  0
  2 27  4  0
  3 12  4  0
  3 23  4  0
  4 25  4  0
  4 28  1  0
  5  8  4  0
  5 17  4  0
  6  7  4  0
  6 16  4  0
  7 18  4  0
  8 27  4  0
  9 13  4  0
  9 23  4  0
 10 11  1  0
 11 14  2  0
 11 27  1  0
 12 19  1  0
 12 24  4  0
 13 24  4  0
 15 18  1  0
 16 25  4  0
 16 26  4  0
 17 20  4  0
 17 28  1  0
 18 21  4  0
 21 26  4  0
 22 26  4  0
M  END
$$$$

 Created by Python create_sdf_string function

 28 30  0  0  0  0  0  0  0  0999 V2000
    5.7174   -8.4529   26.7190 C   0  0  0  0  0  0  0  0  0  0  0  0
    0.3974   -7.0711   27.5149 C   0  0  0  0  0  0  0  0  0  0  0  0
    2.5338   -7.6891   16.0102 C   0  0  0  0  0  0  0  0  0  0  0  0
    4.8690   -7.4380   26.4151 C   0  0  0  0  0  0  0  0  0  0  0  0
    2.3021   -5.6726   26.0378 C   0  0  0  0  0  0  0  0  0  0  0  0
    7.0880   -4.6163   27.0010 C   0  0  0  0  0  0  0  0  0  0  0  0
    8.3117   -4.3698   27.4436 C   0  0  0  0  0  0  0  0  0  0  0  0
    1.1339   -5.0515   26.3541 C   0  0  0  0  0  0  0  0  0  0  0  0
    4.8080   -8.0362   16.7101 C   0  0  0  0  0  0  0  0  0  0  0  0
   -1.2173   -3.9294   26.9717 O   0  0  0  0  0  0  0  0  0  0  0  0
   -1.0025   -5.0942   27.4586 C   0  0  0  0  0  0  0  0  0  0  0  0
    2.2474   -8.9123   16.6273 C   0  0  0  0  0  0  0  0  0  0  0  0
    4.4957   -9.2636   17.3041 C   0  0  0  0  0  0  0  0  0  0  0  0
   -1.8070   -5.6086   28.1920 O   0  0  0  0  0  0  0  0  0  0  0  0
   10.4296   -5.1799   28.3140 C   0  0  0  0  0  0  0  0  0  0  0  0
    6.6017   -5.9004   26.9187 C   0  0  0  0  0  0  0  0  0  0  0  0
    2.4761   -6.9940   26.4111 N   0  0  0  0  0  0  0  0  0  0  0  0
    9.1353   -5.4053   27.8239 C   0  0  0  0  0  0  0  0  0  0  0  0
    0.9922   -9.3232   16.5995 O   0  0  0  0  0  0  0  0  0  0  0  0
    1.5232   -7.6869   27.1182 C   0  0  0  0  0  0  0  0  0  0  0  0
    8.6878   -6.6715   27.7262 N   0  0  0  0  0  0  0  0  0  0  0  0
    6.9911   -8.2423   27.1808 C   0  0  0  0  0  0  0  0  0  0  0  0
    3.8436   -7.2758   16.0578 C   0  0  0  0  0  0  0  0  0  0  0  0
    3.1882   -9.7190   17.2566 C   0  0  0  0  0  0  0  0  0  0  0  0
    5.3488   -6.1737   26.5092 C   0  0  0  0  0  0  0  0  0  0  0  0
    7.4567   -6.9464   27.2858 C   0  0  0  0  0  0  0  0  0  0  0  0
    0.1921   -5.7592   27.1123 C   0  0  0  0  0  0  0  0  0  0  0  0
    3.5517   -7.7407   25.9711 C   0  0  0  0  0  0  0  0  0  0  0  0
  1  4  4  0
  1 22  4  0
  2 20  4  0
  2 27  4  0
  3 12  4  0
  3 23  4  0
  4 25  4  0
  4 28  1  0
  5  8  4  0
  5 17  4  0
  6  7  4  0
  6 16  4  0
  7 18  4  0
  8 27  4  0
  9 13  4  0
  9 23  4  0
 10 11  1  0
 11 14  2  0
 11 27  1  0
 12 19  1  0
 12 24  4  0
 13 24  4  0
 15 18  1  0
 16 25  4  0
 16 26  4  0
 17 20  4  0
 17 28  1  0
 18 21  4  0
 21 26  4  0
 22 26  4  0
M  END
$$$$

 Created by Python create_sdf_string function

 28 30  0  0  0  0  0  0  0  0999 V2000
    5.7174   -8.4529   26.7190 C   0  0  0  0  0  0  0  0  0  0  0  0
    0.3974   -7.0711   27.5149 C   0  0  0  0  0  0  0  0  0  0  0  0
    2.5338   -7.6891   16.0102 C   0  0  0  0  0  0  0  0  0  0  0  0
    4.8690   -7.4380   26.4151 C   0  0  0  0  0  0  0  0  0  0  0  0
    2.3021   -5.6726   26.0378 C   0  0  0  0  0  0  0  0  0  0  0  0
    7.0880   -4.6163   27.0010 C   0  0  0  0  0  0  0  0  0  0  0  0
    8.3117   -4.3698   27.4436 C   0  0  0  0  0  0  0  0  0  0  0  0
    1.1339   -5.0515   26.3541 C   0  0  0  0  0  0  0  0  0  0  0  0
    4.8080   -8.0362   16.7101 C   0  0  0  0  0  0  0  0  0  0  0  0
   -1.2173   -3.9294   26.9717 O   0  0  0  0  0  0  0  0  0  0  0  0
   -1.0025   -5.0942   27.4586 C   0  0  0  0  0  0  0  0  0  0  0  0
    2.2474   -8.9123   16.6273 C   0  0  0  0  0  0  0  0  0  0  0  0
    4.4957   -9.2636   17.3041 C   0  0  0  0  0  0  0  0  0  0  0  0
   -1.8070   -5.6086   28.1920 O   0  0  0  0  0  0  0  0  0  0  0  0
   10.4296   -5.1799   28.3140 C   0  0  0  0  0  0  0  0  0  0  0  0
    6.6017   -5.9004   26.9187 C   0  0  0  0  0  0  0  0  0  0  0  0
    2.4761   -6.9940   26.4111 N   0  0  0  0  0  0  0  0  0  0  0  0
    9.1353   -5.4053   27.8239 C   0  0  0  0  0  0  0  0  0  0  0  0
    0.9922   -9.3232   16.5995 O   0  0  0  0  0  0  0  0  0  0  0  0
    1.5232   -7.6869   27.1182 C   0  0  0  0  0  0  0  0  0  0  0  0
    8.6878   -6.6715   27.7262 N   0  0  0  0  0  0  0  0  0  0  0  0
    6.9911   -8.2423   27.1808 C   0  0  0  0  0  0  0  0  0  0  0  0
    3.8436   -7.2758   16.0578 C   0  0  0  0  0  0  0  0  0  0  0  0
    3.1882   -9.7190   17.2566 C   0  0  0  0  0  0  0  0  0  0  0  0
    5.3488   -6.1737   26.5092 C   0  0  0  0  0  0  0  0  0  0  0  0
    7.4567   -6.9464   27.2858 C   0  0  0  0  0  0  0  0  0  0  0  0
    0.1921   -5.7592   27.1123 C   0  0  0  0  0  0  0  0  0  0  0  0
    3.5517   -7.7407   25.9711 C   0  0  0  0  0  0  0  0  0  0  0  0
  1  4  4  0
  1 22  4  0
  2 20  4  0
  2 27  4  0
  3 12  4  0
  3 23  4  0
  4 25  4  0
  4 28  1  0
  5  8  4  0
  5 17  4  0
  6  7  4  0
  6 16  4  0
  7 18  4  0
  8 27  4  0
  9 13  4  0
  9 23  4  0
 10 11  1  0
 11 14  2  0
 11 27  1  0
 12 19  1  0
 12 24  4  0
 13 24  4  0
 15 18  1  0
 16 25  4  0
 16 26  4  0
 17 20  4  0
 17 28  1  0
 18 21  4  0
 21 26  4  0
 22 26  4  0
M  END
$$$$

 Created by Python create_sdf_string function

 28 30  0  0  0  0  0  0  0  0999 V2000
    5.7174   -8.4529   26.7190 C   0  0  0  0  0  0  0  0  0  0  0  0
    0.3974   -7.0711   27.5149 C   0  0  0  0  0  0  0  0  0  0  0  0
    2.5338   -7.6891   16.0102 C   0  0  0  0  0  0  0  0  0  0  0  0
    4.8690   -7.4380   26.4151 C   0  0  0  0  0  0  0  0  0  0  0  0
    2.3021   -5.6726   26.0378 C   0  0  0  0  0  0  0  0  0  0  0  0
    7.0880   -4.6163   27.0010 C   0  0  0  0  0  0  0  0  0  0  0  0
    8.3117   -4.3698   27.4436 C   0  0  0  0  0  0  0  0  0  0  0  0
    1.1339   -5.0515   26.3541 C   0  0  0  0  0  0  0  0  0  0  0  0
    4.8080   -8.0362   16.7101 C   0  0  0  0  0  0  0  0  0  0  0  0
   -1.2173   -3.9294   26.9717 O   0  0  0  0  0  0  0  0  0  0  0  0
   -1.0025   -5.0942   27.4586 C   0  0  0  0  0  0  0  0  0  0  0  0
    2.2474   -8.9123   16.6273 C   0  0  0  0  0  0  0  0  0  0  0  0
    4.4957   -9.2636   17.3041 C   0  0  0  0  0  0  0  0  0  0  0  0
   -1.8070   -5.6086   28.1920 O   0  0  0  0  0  0  0  0  0  0  0  0
   10.4296   -5.1799   28.3140 C   0  0  0  0  0  0  0  0  0  0  0  0
    6.6017   -5.9004   26.9187 C   0  0  0  0  0  0  0  0  0  0  0  0
    2.4761   -6.9940   26.4111 N   0  0  0  0  0  0  0  0  0  0  0  0
    9.1353   -5.4053   27.8239 C   0  0  0  0  0  0  0  0  0  0  0  0
    0.9922   -9.3232   16.5995 O   0  0  0  0  0  0  0  0  0  0  0  0
    1.5232   -7.6869   27.1182 C   0  0  0  0  0  0  0  0  0  0  0  0
    8.6878   -6.6715   27.7262 N   0  0  0  0  0  0  0  0  0  0  0  0
    6.9911   -8.2423   27.1808 C   0  0  0  0  0  0  0  0  0  0  0  0
    3.8436   -7.2758   16.0578 C   0  0  0  0  0  0  0  0  0  0  0  0
    3.1882   -9.7190   17.2566 C   0  0  0  0  0  0  0  0  0  0  0  0
    5.3488   -6.1737   26.5092 C   0  0  0  0  0  0  0  0  0  0  0  0
    7.4567   -6.9464   27.2858 C   0  0  0  0  0  0  0  0  0  0  0  0
    0.1921   -5.7592   27.1123 C   0  0  0  0  0  0  0  0  0  0  0  0
    3.5517   -7.7407   25.9711 C   0  0  0  0  0  0  0  0  0  0  0  0
  1  4  4  0
  1 22  4  0
  2 20  4  0
  2 27  4  0
  3 12  4  0
  3 23  4  0
  4 25  4  0
  4 28  1  0
  5  8  4  0
  5 17  4  0
  6  7  4  0
  6 16  4  0
  7 18  4  0
  8 27  4  0
  9 13  4  0
  9 23  4  0
 10 11  1  0
 11 14  2  0
 11 27  1  0
 12 19  1  0
 12 24  4  0
 13 24  4  0
 15 18  1  0
 16 25  4  0
 16 26  4  0
 17 20  4  0
 17 28  1  0
 18 21  4  0
 21 26  4  0
 22 26  4  0
M  END
$$$$

 Created by Python create_sdf_string function

 28 30  0  0  0  0  0  0  0  0999 V2000
    5.7174   -8.4529   26.7190 C   0  0  0  0  0  0  0  0  0  0  0  0
    0.3974   -7.0711   27.5149 C   0  0  0  0  0  0  0  0  0  0  0  0
    2.5338   -7.6891   16.0102 C   0  0  0  0  0  0  0  0  0  0  0  0
    4.8690   -7.4380   26.4151 C   0  0  0  0  0  0  0  0  0  0  0  0
    2.3021   -5.6726   26.0378 C   0  0  0  0  0  0  0  0  0  0  0  0
    7.0880   -4.6163   27.0010 C   0  0  0  0  0  0  0  0  0  0  0  0
    8.3117   -4.3698   27.4436 C   0  0  0  0  0  0  0  0  0  0  0  0
    1.1339   -5.0515   26.3541 C   0  0  0  0  0  0  0  0  0  0  0  0
    4.8080   -8.0362   16.7101 C   0  0  0  0  0  0  0  0  0  0  0  0
   -1.2173   -3.9294   26.9717 O   0  0  0  0  0  0  0  0  0  0  0  0
   -1.0025   -5.0942   27.4586 C   0  0  0  0  0  0  0  0  0  0  0  0
    2.2474   -8.9123   16.6273 C   0  0  0  0  0  0  0  0  0  0  0  0
    4.4957   -9.2636   17.3041 C   0  0  0  0  0  0  0  0  0  0  0  0
   -1.8070   -5.6086   28.1920 O   0  0  0  0  0  0  0  0  0  0  0  0
   10.4296   -5.1799   28.3140 C   0  0  0  0  0  0  0  0  0  0  0  0
    6.6017   -5.9004   26.9187 C   0  0  0  0  0  0  0  0  0  0  0  0
    2.4761   -6.9940   26.4111 N   0  0  0  0  0  0  0  0  0  0  0  0
    9.1353   -5.4053   27.8239 C   0  0  0  0  0  0  0  0  0  0  0  0
    0.9922   -9.3232   16.5995 O   0  0  0  0  0  0  0  0  0  0  0  0
    1.5232   -7.6869   27.1182 C   0  0  0  0  0  0  0  0  0  0  0  0
    8.6878   -6.6715   27.7262 N   0  0  0  0  0  0  0  0  0  0  0  0
    6.9911   -8.2423   27.1808 C   0  0  0  0  0  0  0  0  0  0  0  0
    3.8436   -7.2758   16.0578 C   0  0  0  0  0  0  0  0  0  0  0  0
    3.1882   -9.7190   17.2566 C   0  0  0  0  0  0  0  0  0  0  0  0
    5.3488   -6.1737   26.5092 C   0  0  0  0  0  0  0  0  0  0  0  0
    7.4567   -6.9464   27.2858 C   0  0  0  0  0  0  0  0  0  0  0  0
    0.1921   -5.7592   27.1123 C   0  0  0  0  0  0  0  0  0  0  0  0
    3.5517   -7.7407   25.9711 C   0  0  0  0  0  0  0  0  0  0  0  0
  1  4  4  0
  1 22  4  0
  2 20  4  0
  2 27  4  0
  3 12  4  0
  3 23  4  0
  4 25  4  0
  4 28  1  0
  5  8  4  0
  5 17  4  0
  6  7  4  0
  6 16  4  0
  7 18  4  0
  8 27  4  0
  9 13  4  0
  9 23  4  0
 10 11  1  0
 11 14  2  0
 11 27  1  0
 12 19  1  0
 12 24  4  0
 13 24  4  0
 15 18  1  0
 16 25  4  0
 16 26  4  0
 17 20  4  0
 17 28  1  0
 18 21  4  0
 21 26  4  0
 22 26  4  0
M  END
$$$$

 Created by Python create_sdf_string function

 28 30  0  0  0  0  0  0  0  0999 V2000
    5.7174   -8.4529   26.7190 C   0  0  0  0  0  0  0  0  0  0  0  0
    0.3974   -7.0711   27.5149 C   0  0  0  0  0  0  0  0  0  0  0  0
    2.5338   -7.6891   16.0102 C   0  0  0  0  0  0  0  0  0  0  0  0
    4.8690   -7.4380   26.4151 C   0  0  0  0  0  0  0  0  0  0  0  0
    2.3021   -5.6726   26.0378 C   0  0  0  0  0  0  0  0  0  0  0  0
    7.0880   -4.6163   27.0010 C   0  0  0  0  0  0  0  0  0  0  0  0
    8.3117   -4.3698   27.4436 C   0  0  0  0  0  0  0  0  0  0  0  0
    1.1339   -5.0515   26.3541 C   0  0  0  0  0  0  0  0  0  0  0  0
    4.8080   -8.0362   16.7101 C   0  0  0  0  0  0  0  0  0  0  0  0
   -1.2173   -3.9294   26.9717 O   0  0  0  0  0  0  0  0  0  0  0  0
   -1.0025   -5.0942   27.4586 C   0  0  0  0  0  0  0  0  0  0  0  0
    2.2474   -8.9123   16.6273 C   0  0  0  0  0  0  0  0  0  0  0  0
    4.4957   -9.2636   17.3041 C   0  0  0  0  0  0  0  0  0  0  0  0
   -1.8070   -5.6086   28.1920 O   0  0  0  0  0  0  0  0  0  0  0  0
   10.4296   -5.1799   28.3140 C   0  0  0  0  0  0  0  0  0  0  0  0
    6.6017   -5.9004   26.9187 C   0  0  0  0  0  0  0  0  0  0  0  0
    2.4761   -6.9940   26.4111 N   0  0  0  0  0  0  0  0  0  0  0  0
    9.1353   -5.4053   27.8239 C   0  0  0  0  0  0  0  0  0  0  0  0
    0.9922   -9.3232   16.5995 O   0  0  0  0  0  0  0  0  0  0  0  0
    1.5232   -7.6869   27.1182 C   0  0  0  0  0  0  0  0  0  0  0  0
    8.6878   -6.6715   27.7262 N   0  0  0  0  0  0  0  0  0  0  0  0
    6.9911   -8.2423   27.1808 C   0  0  0  0  0  0  0  0  0  0  0  0
    3.8436   -7.2758   16.0578 C   0  0  0  0  0  0  0  0  0  0  0  0
    3.1882   -9.7190   17.2566 C   0  0  0  0  0  0  0  0  0  0  0  0
    5.3488   -6.1737   26.5092 C   0  0  0  0  0  0  0  0  0  0  0  0
    7.4567   -6.9464   27.2858 C   0  0  0  0  0  0  0  0  0  0  0  0
    0.1921   -5.7592   27.1123 C   0  0  0  0  0  0  0  0  0  0  0  0
    3.5517   -7.7407   25.9711 C   0  0  0  0  0  0  0  0  0  0  0  0
  1  4  4  0
  1 22  4  0
  2 20  4  0
  2 27  4  0
  3 12  4  0
  3 23  4  0
  4 25  4  0
  4 28  1  0
  5  8  4  0
  5 17  4  0
  6  7  4  0
  6 16  4  0
  7 18  4  0
  8 27  4  0
  9 13  4  0
  9 23  4  0
 10 11  1  0
 11 14  2  0
 11 27  1  0
 12 19  1  0
 12 24  4  0
 13 24  4  0
 15 18  1  0
 16 25  4  0
 16 26  4  0
 17 20  4  0
 17 28  1  0
 18 21  4  0
 21 26  4  0
 22 26  4  0
M  END
$$$$

 Created by Python create_sdf_string function

 28 30  0  0  0  0  0  0  0  0999 V2000
    5.7174   -8.4529   26.7190 C   0  0  0  0  0  0  0  0  0  0  0  0
    0.3974   -7.0711   27.5149 C   0  0  0  0  0  0  0  0  0  0  0  0
    2.5338   -7.6891   16.0102 C   0  0  0  0  0  0  0  0  0  0  0  0
    4.8690   -7.4380   26.4151 C   0  0  0  0  0  0  0  0  0  0  0  0
    2.3021   -5.6726   26.0378 C   0  0  0  0  0  0  0  0  0  0  0  0
    7.0880   -4.6163   27.0010 C   0  0  0  0  0  0  0  0  0  0  0  0
    8.3117   -4.3698   27.4436 C   0  0  0  0  0  0  0  0  0  0  0  0
    1.1339   -5.0515   26.3541 C   0  0  0  0  0  0  0  0  0  0  0  0
    4.8080   -8.0362   16.7101 C   0  0  0  0  0  0  0  0  0  0  0  0
   -1.2173   -3.9294   26.9717 O   0  0  0  0  0  0  0  0  0  0  0  0
   -1.0025   -5.0942   27.4586 C   0  0  0  0  0  0  0  0  0  0  0  0
    2.2474   -8.9123   16.6273 C   0  0  0  0  0  0  0  0  0  0  0  0
    4.4957   -9.2636   17.3041 C   0  0  0  0  0  0  0  0  0  0  0  0
   -1.8070   -5.6086   28.1920 O   0  0  0  0  0  0  0  0  0  0  0  0
   10.4296   -5.1799   28.3140 C   0  0  0  0  0  0  0  0  0  0  0  0
    6.6017   -5.9004   26.9187 C   0  0  0  0  0  0  0  0  0  0  0  0
    2.4761   -6.9940   26.4111 N   0  0  0  0  0  0  0  0  0  0  0  0
    9.1353   -5.4053   27.8239 C   0  0  0  0  0  0  0  0  0  0  0  0
    0.9922   -9.3232   16.5995 O   0  0  0  0  0  0  0  0  0  0  0  0
    1.5232   -7.6869   27.1182 C   0  0  0  0  0  0  0  0  0  0  0  0
    8.6878   -6.6715   27.7262 N   0  0  0  0  0  0  0  0  0  0  0  0
    6.9911   -8.2423   27.1808 C   0  0  0  0  0  0  0  0  0  0  0  0
    3.8436   -7.2758   16.0578 C   0  0  0  0  0  0  0  0  0  0  0  0
    3.1882   -9.7190   17.2566 C   0  0  0  0  0  0  0  0  0  0  0  0
    5.3488   -6.1737   26.5092 C   0  0  0  0  0  0  0  0  0  0  0  0
    7.4567   -6.9464   27.2858 C   0  0  0  0  0  0  0  0  0  0  0  0
    0.1921   -5.7592   27.1123 C   0  0  0  0  0  0  0  0  0  0  0  0
    3.5517   -7.7407   25.9711 C   0  0  0  0  0  0  0  0  0  0  0  0
  1  4  4  0
  1 22  4  0
  2 20  4  0
  2 27  4  0
  3 12  4  0
  3 23  4  0
  4 25  4  0
  4 28  1  0
  5  8  4  0
  5 17  4  0
  6  7  4  0
  6 16  4  0
  7 18  4  0
  8 27  4  0
  9 13  4  0
  9 23  4  0
 10 11  1  0
 11 14  2  0
 11 27  1  0
 12 19  1  0
 12 24  4  0
 13 24  4  0
 15 18  1  0
 16 25  4  0
 16 26  4  0
 17 20  4  0
 17 28  1  0
 18 21  4  0
 21 26  4  0
 22 26  4  0
M  END
$$$$

 Created by Python create_sdf_string function

 28 30  0  0  0  0  0  0  0  0999 V2000
    5.7174   -8.4529   26.7190 C   0  0  0  0  0  0  0  0  0  0  0  0
    0.3974   -7.0711   27.5149 C   0  0  0  0  0  0  0  0  0  0  0  0
    2.5338   -7.6891   16.0102 C   0  0  0  0  0  0  0  0  0  0  0  0
    4.8690   -7.4380   26.4151 C   0  0  0  0  0  0  0  0  0  0  0  0
    2.3021   -5.6726   26.0378 C   0  0  0  0  0  0  0  0  0  0  0  0
    7.0880   -4.6163   27.0010 C   0  0  0  0  0  0  0  0  0  0  0  0
    8.3117   -4.3698   27.4436 C   0  0  0  0  0  0  0  0  0  0  0  0
    1.1339   -5.0515   26.3541 C   0  0  0  0  0  0  0  0  0  0  0  0
    4.8080   -8.0362   16.7101 C   0  0  0  0  0  0  0  0  0  0  0  0
   -1.2173   -3.9294   26.9717 O   0  0  0  0  0  0  0  0  0  0  0  0
   -1.0025   -5.0942   27.4586 C   0  0  0  0  0  0  0  0  0  0  0  0
    2.2474   -8.9123   16.6273 C   0  0  0  0  0  0  0  0  0  0  0  0
    4.4957   -9.2636   17.3041 C   0  0  0  0  0  0  0  0  0  0  0  0
   -1.8070   -5.6086   28.1920 O   0  0  0  0  0  0  0  0  0  0  0  0
   10.4296   -5.1799   28.3140 C   0  0  0  0  0  0  0  0  0  0  0  0
    6.6017   -5.9004   26.9187 C   0  0  0  0  0  0  0  0  0  0  0  0
    2.4761   -6.9940   26.4111 N   0  0  0  0  0  0  0  0  0  0  0  0
    9.1353   -5.4053   27.8239 C   0  0  0  0  0  0  0  0  0  0  0  0
    0.9922   -9.3232   16.5995 O   0  0  0  0  0  0  0  0  0  0  0  0
    1.5232   -7.6869   27.1182 C   0  0  0  0  0  0  0  0  0  0  0  0
    8.6878   -6.6715   27.7262 N   0  0  0  0  0  0  0  0  0  0  0  0
    6.9911   -8.2423   27.1808 C   0  0  0  0  0  0  0  0  0  0  0  0
    3.8436   -7.2758   16.0578 C   0  0  0  0  0  0  0  0  0  0  0  0
    3.1882   -9.7190   17.2566 C   0  0  0  0  0  0  0  0  0  0  0  0
    5.3488   -6.1737   26.5092 C   0  0  0  0  0  0  0  0  0  0  0  0
    7.4567   -6.9464   27.2858 C   0  0  0  0  0  0  0  0  0  0  0  0
    0.1921   -5.7592   27.1123 C   0  0  0  0  0  0  0  0  0  0  0  0
    3.5517   -7.7407   25.9711 C   0  0  0  0  0  0  0  0  0  0  0  0
  1  4  4  0
  1 22  4  0
  2 20  4  0
  2 27  4  0
  3 12  4  0
  3 23  4  0
  4 25  4  0
  4 28  1  0
  5  8  4  0
  5 17  4  0
  6  7  4  0
  6 16  4  0
  7 18  4  0
  8 27  4  0
  9 13  4  0
  9 23  4  0
 10 11  1  0
 11 14  2  0
 11 27  1  0
 12 19  1  0
 12 24  4  0
 13 24  4  0
 15 18  1  0
 16 25  4  0
 16 26  4  0
 17 20  4  0
 17 28  1  0
 18 21  4  0
 21 26  4  0
 22 26  4  0
M  END
$$$$

 Created by Python create_sdf_string function

 28 30  0  0  0  0  0  0  0  0999 V2000
    5.7174   -8.4529   26.7190 C   0  0  0  0  0  0  0  0  0  0  0  0
    0.3974   -7.0711   27.5149 C   0  0  0  0  0  0  0  0  0  0  0  0
    2.5338   -7.6891   16.0102 C   0  0  0  0  0  0  0  0  0  0  0  0
    4.8690   -7.4380   26.4151 C   0  0  0  0  0  0  0  0  0  0  0  0
    2.3021   -5.6726   26.0378 C   0  0  0  0  0  0  0  0  0  0  0  0
    7.0880   -4.6163   27.0010 C   0  0  0  0  0  0  0  0  0  0  0  0
    8.3117   -4.3698   27.4436 C   0  0  0  0  0  0  0  0  0  0  0  0
    1.1339   -5.0515   26.3541 C   0  0  0  0  0  0  0  0  0  0  0  0
    4.8080   -8.0362   16.7101 C   0  0  0  0  0  0  0  0  0  0  0  0
   -1.2173   -3.9294   26.9717 O   0  0  0  0  0  0  0  0  0  0  0  0
   -1.0025   -5.0942   27.4586 C   0  0  0  0  0  0  0  0  0  0  0  0
    2.2474   -8.9123   16.6273 C   0  0  0  0  0  0  0  0  0  0  0  0
    4.4957   -9.2636   17.3041 C   0  0  0  0  0  0  0  0  0  0  0  0
   -1.8070   -5.6086   28.1920 O   0  0  0  0  0  0  0  0  0  0  0  0
   10.4296   -5.1799   28.3140 C   0  0  0  0  0  0  0  0  0  0  0  0
    6.6017   -5.9004   26.9187 C   0  0  0  0  0  0  0  0  0  0  0  0
    2.4761   -6.9940   26.4111 N   0  0  0  0  0  0  0  0  0  0  0  0
    9.1353   -5.4053   27.8239 C   0  0  0  0  0  0  0  0  0  0  0  0
    0.9922   -9.3232   16.5995 O   0  0  0  0  0  0  0  0  0  0  0  0
    1.5232   -7.6869   27.1182 C   0  0  0  0  0  0  0  0  0  0  0  0
    8.6878   -6.6715   27.7262 N   0  0  0  0  0  0  0  0  0  0  0  0
    6.9911   -8.2423   27.1808 C   0  0  0  0  0  0  0  0  0  0  0  0
    3.8436   -7.2758   16.0578 C   0  0  0  0  0  0  0  0  0  0  0  0
    3.1882   -9.7190   17.2566 C   0  0  0  0  0  0  0  0  0  0  0  0
    5.3488   -6.1737   26.5092 C   0  0  0  0  0  0  0  0  0  0  0  0
    7.4567   -6.9464   27.2858 C   0  0  0  0  0  0  0  0  0  0  0  0
    0.1921   -5.7592   27.1123 C   0  0  0  0  0  0  0  0  0  0  0  0
    3.5517   -7.7407   25.9711 C   0  0  0  0  0  0  0  0  0  0  0  0
  1  4  4  0
  1 22  4  0
  2 20  4  0
  2 27  4  0
  3 12  4  0
  3 23  4  0
  4 25  4  0
  4 28  1  0
  5  8  4  0
  5 17  4  0
  6  7  4  0
  6 16  4  0
  7 18  4  0
  8 27  4  0
  9 13  4  0
  9 23  4  0
 10 11  1  0
 11 14  2  0
 11 27  1  0
 12 19  1  0
 12 24  4  0
 13 24  4  0
 15 18  1  0
 16 25  4  0
 16 26  4  0
 17 20  4  0
 17 28  1  0
 18 21  4  0
 21 26  4  0
 22 26  4  0
M  END
$$$$

 Created by Python create_sdf_string function

 28 30  0  0  0  0  0  0  0  0999 V2000
    5.7174   -8.4529   26.7190 C   0  0  0  0  0  0  0  0  0  0  0  0
    0.3974   -7.0711   27.5149 C   0  0  0  0  0  0  0  0  0  0  0  0
    2.5338   -7.6891   16.0102 C   0  0  0  0  0  0  0  0  0  0  0  0
    4.8690   -7.4380   26.4151 C   0  0  0  0  0  0  0  0  0  0  0  0
    2.3021   -5.6726   26.0378 C   0  0  0  0  0  0  0  0  0  0  0  0
    7.0880   -4.6163   27.0010 C   0  0  0  0  0  0  0  0  0  0  0  0
    8.3117   -4.3698   27.4436 C   0  0  0  0  0  0  0  0  0  0  0  0
    1.1339   -5.0515   26.3541 C   0  0  0  0  0  0  0  0  0  0  0  0
    4.8080   -8.0362   16.7101 C   0  0  0  0  0  0  0  0  0  0  0  0
   -1.2173   -3.9294   26.9717 O   0  0  0  0  0  0  0  0  0  0  0  0
   -1.0025   -5.0942   27.4586 C   0  0  0  0  0  0  0  0  0  0  0  0
    2.2474   -8.9123   16.6273 C   0  0  0  0  0  0  0  0  0  0  0  0
    4.4957   -9.2636   17.3041 C   0  0  0  0  0  0  0  0  0  0  0  0
   -1.8070   -5.6086   28.1920 O   0  0  0  0  0  0  0  0  0  0  0  0
   10.4296   -5.1799   28.3140 C   0  0  0  0  0  0  0  0  0  0  0  0
    6.6017   -5.9004   26.9187 C   0  0  0  0  0  0  0  0  0  0  0  0
    2.4761   -6.9940   26.4111 N   0  0  0  0  0  0  0  0  0  0  0  0
    9.1353   -5.4053   27.8239 C   0  0  0  0  0  0  0  0  0  0  0  0
    0.9922   -9.3232   16.5995 O   0  0  0  0  0  0  0  0  0  0  0  0
    1.5232   -7.6869   27.1182 C   0  0  0  0  0  0  0  0  0  0  0  0
    8.6878   -6.6715   27.7262 N   0  0  0  0  0  0  0  0  0  0  0  0
    6.9911   -8.2423   27.1808 C   0  0  0  0  0  0  0  0  0  0  0  0
    3.8436   -7.2758   16.0578 C   0  0  0  0  0  0  0  0  0  0  0  0
    3.1882   -9.7190   17.2566 C   0  0  0  0  0  0  0  0  0  0  0  0
    5.3488   -6.1737   26.5092 C   0  0  0  0  0  0  0  0  0  0  0  0
    7.4567   -6.9464   27.2858 C   0  0  0  0  0  0  0  0  0  0  0  0
    0.1921   -5.7592   27.1123 C   0  0  0  0  0  0  0  0  0  0  0  0
    3.5517   -7.7407   25.9711 C   0  0  0  0  0  0  0  0  0  0  0  0
  1  4  4  0
  1 22  4  0
  2 20  4  0
  2 27  4  0
  3 12  4  0
  3 23  4  0
  4 25  4  0
  4 28  1  0
  5  8  4  0
  5 17  4  0
  6  7  4  0
  6 16  4  0
  7 18  4  0
  8 27  4  0
  9 13  4  0
  9 23  4  0
 10 11  1  0
 11 14  2  0
 11 27  1  0
 12 19  1  0
 12 24  4  0
 13 24  4  0
 15 18  1  0
 16 25  4  0
 16 26  4  0
 17 20  4  0
 17 28  1  0
 18 21  4  0
 21 26  4  0
 22 26  4  0
M  END
$$$$

 Created by Python create_sdf_string function

 28 30  0  0  0  0  0  0  0  0999 V2000
    5.7174   -8.4529   26.7190 C   0  0  0  0  0  0  0  0  0  0  0  0
    0.3974   -7.0711   27.5149 C   0  0  0  0  0  0  0  0  0  0  0  0
    2.5338   -7.6891   16.0102 C   0  0  0  0  0  0  0  0  0  0  0  0
    4.8690   -7.4380   26.4151 C   0  0  0  0  0  0  0  0  0  0  0  0
    2.3021   -5.6726   26.0378 C   0  0  0  0  0  0  0  0  0  0  0  0
    7.0880   -4.6163   27.0010 C   0  0  0  0  0  0  0  0  0  0  0  0
    8.3117   -4.3698   27.4436 C   0  0  0  0  0  0  0  0  0  0  0  0
    1.1339   -5.0515   26.3541 C   0  0  0  0  0  0  0  0  0  0  0  0
    4.8080   -8.0362   16.7101 C   0  0  0  0  0  0  0  0  0  0  0  0
   -1.2173   -3.9294   26.9717 O   0  0  0  0  0  0  0  0  0  0  0  0
   -1.0025   -5.0942   27.4586 C   0  0  0  0  0  0  0  0  0  0  0  0
    2.2474   -8.9123   16.6273 C   0  0  0  0  0  0  0  0  0  0  0  0
    4.4957   -9.2636   17.3041 C   0  0  0  0  0  0  0  0  0  0  0  0
   -1.8070   -5.6086   28.1920 O   0  0  0  0  0  0  0  0  0  0  0  0
   10.4296   -5.1799   28.3140 C   0  0  0  0  0  0  0  0  0  0  0  0
    6.6017   -5.9004   26.9187 C   0  0  0  0  0  0  0  0  0  0  0  0
    2.4761   -6.9940   26.4111 N   0  0  0  0  0  0  0  0  0  0  0  0
    9.1353   -5.4053   27.8239 C   0  0  0  0  0  0  0  0  0  0  0  0
    0.9922   -9.3232   16.5995 O   0  0  0  0  0  0  0  0  0  0  0  0
    1.5232   -7.6869   27.1182 C   0  0  0  0  0  0  0  0  0  0  0  0
    8.6878   -6.6715   27.7262 N   0  0  0  0  0  0  0  0  0  0  0  0
    6.9911   -8.2423   27.1808 C   0  0  0  0  0  0  0  0  0  0  0  0
    3.8436   -7.2758   16.0578 C   0  0  0  0  0  0  0  0  0  0  0  0
    3.1882   -9.7190   17.2566 C   0  0  0  0  0  0  0  0  0  0  0  0
    5.3488   -6.1737   26.5092 C   0  0  0  0  0  0  0  0  0  0  0  0
    7.4567   -6.9464   27.2858 C   0  0  0  0  0  0  0  0  0  0  0  0
    0.1921   -5.7592   27.1123 C   0  0  0  0  0  0  0  0  0  0  0  0
    3.5517   -7.7407   25.9711 C   0  0  0  0  0  0  0  0  0  0  0  0
  1  4  4  0
  1 22  4  0
  2 20  4  0
  2 27  4  0
  3 12  4  0
  3 23  4  0
  4 25  4  0
  4 28  1  0
  5  8  4  0
  5 17  4  0
  6  7  4  0
  6 16  4  0
  7 18  4  0
  8 27  4  0
  9 13  4  0
  9 23  4  0
 10 11  1  0
 11 14  2  0
 11 27  1  0
 12 19  1  0
 12 24  4  0
 13 24  4  0
 15 18  1  0
 16 25  4  0
 16 26  4  0
 17 20  4  0
 17 28  1  0
 18 21  4  0
 21 26  4  0
 22 26  4  0
M  END
$$$$

 Created by Python create_sdf_string function

 28 30  0  0  0  0  0  0  0  0999 V2000
    5.7174   -8.4529   26.7190 C   0  0  0  0  0  0  0  0  0  0  0  0
    0.3974   -7.0711   27.5149 C   0  0  0  0  0  0  0  0  0  0  0  0
    2.5338   -7.6891   16.0102 C   0  0  0  0  0  0  0  0  0  0  0  0
    4.8690   -7.4380   26.4151 C   0  0  0  0  0  0  0  0  0  0  0  0
    2.3021   -5.6726   26.0378 C   0  0  0  0  0  0  0  0  0  0  0  0
    7.0880   -4.6163   27.0010 C   0  0  0  0  0  0  0  0  0  0  0  0
    8.3117   -4.3698   27.4436 C   0  0  0  0  0  0  0  0  0  0  0  0
    1.1339   -5.0515   26.3541 C   0  0  0  0  0  0  0  0  0  0  0  0
    4.8080   -8.0362   16.7101 C   0  0  0  0  0  0  0  0  0  0  0  0
   -1.2173   -3.9294   26.9717 O   0  0  0  0  0  0  0  0  0  0  0  0
   -1.0025   -5.0942   27.4586 C   0  0  0  0  0  0  0  0  0  0  0  0
    2.2474   -8.9123   16.6273 C   0  0  0  0  0  0  0  0  0  0  0  0
    4.4957   -9.2636   17.3041 C   0  0  0  0  0  0  0  0  0  0  0  0
   -1.8070   -5.6086   28.1920 O   0  0  0  0  0  0  0  0  0  0  0  0
   10.4296   -5.1799   28.3140 C   0  0  0  0  0  0  0  0  0  0  0  0
    6.6017   -5.9004   26.9187 C   0  0  0  0  0  0  0  0  0  0  0  0
    2.4761   -6.9940   26.4111 N   0  0  0  0  0  0  0  0  0  0  0  0
    9.1353   -5.4053   27.8239 C   0  0  0  0  0  0  0  0  0  0  0  0
    0.9922   -9.3232   16.5995 O   0  0  0  0  0  0  0  0  0  0  0  0
    1.5232   -7.6869   27.1182 C   0  0  0  0  0  0  0  0  0  0  0  0
    8.6878   -6.6715   27.7262 N   0  0  0  0  0  0  0  0  0  0  0  0
    6.9911   -8.2423   27.1808 C   0  0  0  0  0  0  0  0  0  0  0  0
    3.8436   -7.2758   16.0578 C   0  0  0  0  0  0  0  0  0  0  0  0
    3.1882   -9.7190   17.2566 C   0  0  0  0  0  0  0  0  0  0  0  0
    5.3488   -6.1737   26.5092 C   0  0  0  0  0  0  0  0  0  0  0  0
    7.4567   -6.9464   27.2858 C   0  0  0  0  0  0  0  0  0  0  0  0
    0.1921   -5.7592   27.1123 C   0  0  0  0  0  0  0  0  0  0  0  0
    3.5517   -7.7407   25.9711 C   0  0  0  0  0  0  0  0  0  0  0  0
  1  4  4  0
  1 22  4  0
  2 20  4  0
  2 27  4  0
  3 12  4  0
  3 23  4  0
  4 25  4  0
  4 28  1  0
  5  8  4  0
  5 17  4  0
  6  7  4  0
  6 16  4  0
  7 18  4  0
  8 27  4  0
  9 13  4  0
  9 23  4  0
 10 11  1  0
 11 14  2  0
 11 27  1  0
 12 19  1  0
 12 24  4  0
 13 24  4  0
 15 18  1  0
 16 25  4  0
 16 26  4  0
 17 20  4  0
 17 28  1  0
 18 21  4  0
 21 26  4  0
 22 26  4  0
M  END
$$$$

 Created by Python create_sdf_string function

 28 30  0  0  0  0  0  0  0  0999 V2000
    5.7174   -8.4529   26.7190 C   0  0  0  0  0  0  0  0  0  0  0  0
    0.3974   -7.0711   27.5149 C   0  0  0  0  0  0  0  0  0  0  0  0
    2.5338   -7.6891   16.0102 C   0  0  0  0  0  0  0  0  0  0  0  0
    4.8690   -7.4380   26.4151 C   0  0  0  0  0  0  0  0  0  0  0  0
    2.3021   -5.6726   26.0378 C   0  0  0  0  0  0  0  0  0  0  0  0
    7.0880   -4.6163   27.0010 C   0  0  0  0  0  0  0  0  0  0  0  0
    8.3117   -4.3698   27.4436 C   0  0  0  0  0  0  0  0  0  0  0  0
    1.1339   -5.0515   26.3541 C   0  0  0  0  0  0  0  0  0  0  0  0
    4.8080   -8.0362   16.7101 C   0  0  0  0  0  0  0  0  0  0  0  0
   -1.2173   -3.9294   26.9717 O   0  0  0  0  0  0  0  0  0  0  0  0
   -1.0025   -5.0942   27.4586 C   0  0  0  0  0  0  0  0  0  0  0  0
    2.2474   -8.9123   16.6273 C   0  0  0  0  0  0  0  0  0  0  0  0
    4.4957   -9.2636   17.3041 C   0  0  0  0  0  0  0  0  0  0  0  0
   -1.8070   -5.6086   28.1920 O   0  0  0  0  0  0  0  0  0  0  0  0
   10.4296   -5.1799   28.3140 C   0  0  0  0  0  0  0  0  0  0  0  0
    6.6017   -5.9004   26.9187 C   0  0  0  0  0  0  0  0  0  0  0  0
    2.4761   -6.9940   26.4111 N   0  0  0  0  0  0  0  0  0  0  0  0
    9.1353   -5.4053   27.8239 C   0  0  0  0  0  0  0  0  0  0  0  0
    0.9922   -9.3232   16.5995 O   0  0  0  0  0  0  0  0  0  0  0  0
    1.5232   -7.6869   27.1182 C   0  0  0  0  0  0  0  0  0  0  0  0
    8.6878   -6.6715   27.7262 N   0  0  0  0  0  0  0  0  0  0  0  0
    6.9911   -8.2423   27.1808 C   0  0  0  0  0  0  0  0  0  0  0  0
    3.8436   -7.2758   16.0578 C   0  0  0  0  0  0  0  0  0  0  0  0
    3.1882   -9.7190   17.2566 C   0  0  0  0  0  0  0  0  0  0  0  0
    5.3488   -6.1737   26.5092 C   0  0  0  0  0  0  0  0  0  0  0  0
    7.4567   -6.9464   27.2858 C   0  0  0  0  0  0  0  0  0  0  0  0
    0.1921   -5.7592   27.1123 C   0  0  0  0  0  0  0  0  0  0  0  0
    3.5517   -7.7407   25.9711 C   0  0  0  0  0  0  0  0  0  0  0  0
  1  4  4  0
  1 22  4  0
  2 20  4  0
  2 27  4  0
  3 12  4  0
  3 23  4  0
  4 25  4  0
  4 28  1  0
  5  8  4  0
  5 17  4  0
  6  7  4  0
  6 16  4  0
  7 18  4  0
  8 27  4  0
  9 13  4  0
  9 23  4  0
 10 11  1  0
 11 14  2  0
 11 27  1  0
 12 19  1  0
 12 24  4  0
 13 24  4  0
 15 18  1  0
 16 25  4  0
 16 26  4  0
 17 20  4  0
 17 28  1  0
 18 21  4  0
 21 26  4  0
 22 26  4  0
M  END
$$$$

 Created by Python create_sdf_string function

 28 30  0  0  0  0  0  0  0  0999 V2000
    5.7174   -8.4529   26.7190 C   0  0  0  0  0  0  0  0  0  0  0  0
    0.3974   -7.0711   27.5149 C   0  0  0  0  0  0  0  0  0  0  0  0
    2.5338   -7.6891   16.0102 C   0  0  0  0  0  0  0  0  0  0  0  0
    4.8690   -7.4380   26.4151 C   0  0  0  0  0  0  0  0  0  0  0  0
    2.3021   -5.6726   26.0378 C   0  0  0  0  0  0  0  0  0  0  0  0
    7.0880   -4.6163   27.0010 C   0  0  0  0  0  0  0  0  0  0  0  0
    8.3117   -4.3698   27.4436 C   0  0  0  0  0  0  0  0  0  0  0  0
    1.1339   -5.0515   26.3541 C   0  0  0  0  0  0  0  0  0  0  0  0
    4.8080   -8.0362   16.7101 C   0  0  0  0  0  0  0  0  0  0  0  0
   -1.2173   -3.9294   26.9717 O   0  0  0  0  0  0  0  0  0  0  0  0
   -1.0025   -5.0942   27.4586 C   0  0  0  0  0  0  0  0  0  0  0  0
    2.2474   -8.9123   16.6273 C   0  0  0  0  0  0  0  0  0  0  0  0
    4.4957   -9.2636   17.3041 C   0  0  0  0  0  0  0  0  0  0  0  0
   -1.8070   -5.6086   28.1920 O   0  0  0  0  0  0  0  0  0  0  0  0
   10.4296   -5.1799   28.3140 C   0  0  0  0  0  0  0  0  0  0  0  0
    6.6017   -5.9004   26.9187 C   0  0  0  0  0  0  0  0  0  0  0  0
    2.4761   -6.9940   26.4111 N   0  0  0  0  0  0  0  0  0  0  0  0
    9.1353   -5.4053   27.8239 C   0  0  0  0  0  0  0  0  0  0  0  0
    0.9922   -9.3232   16.5995 O   0  0  0  0  0  0  0  0  0  0  0  0
    1.5232   -7.6869   27.1182 C   0  0  0  0  0  0  0  0  0  0  0  0
    8.6878   -6.6715   27.7262 N   0  0  0  0  0  0  0  0  0  0  0  0
    6.9911   -8.2423   27.1808 C   0  0  0  0  0  0  0  0  0  0  0  0
    3.8436   -7.2758   16.0578 C   0  0  0  0  0  0  0  0  0  0  0  0
    3.1882   -9.7190   17.2566 C   0  0  0  0  0  0  0  0  0  0  0  0
    5.3488   -6.1737   26.5092 C   0  0  0  0  0  0  0  0  0  0  0  0
    7.4567   -6.9464   27.2858 C   0  0  0  0  0  0  0  0  0  0  0  0
    0.1921   -5.7592   27.1123 C   0  0  0  0  0  0  0  0  0  0  0  0
    3.5517   -7.7407   25.9711 C   0  0  0  0  0  0  0  0  0  0  0  0
  1  4  4  0
  1 22  4  0
  2 20  4  0
  2 27  4  0
  3 12  4  0
  3 23  4  0
  4 25  4  0
  4 28  1  0
  5  8  4  0
  5 17  4  0
  6  7  4  0
  6 16  4  0
  7 18  4  0
  8 27  4  0
  9 13  4  0
  9 23  4  0
 10 11  1  0
 11 14  2  0
 11 27  1  0
 12 19  1  0
 12 24  4  0
 13 24  4  0
 15 18  1  0
 16 25  4  0
 16 26  4  0
 17 20  4  0
 17 28  1  0
 18 21  4  0
 21 26  4  0
 22 26  4  0
M  END
$$$$

 Created by Python create_sdf_string function

 28 30  0  0  0  0  0  0  0  0999 V2000
    5.7174   -8.4529   26.7190 C   0  0  0  0  0  0  0  0  0  0  0  0
    0.3974   -7.0711   27.5149 C   0  0  0  0  0  0  0  0  0  0  0  0
    2.5338   -7.6891   16.0102 C   0  0  0  0  0  0  0  0  0  0  0  0
    4.8690   -7.4380   26.4151 C   0  0  0  0  0  0  0  0  0  0  0  0
    2.3021   -5.6726   26.0378 C   0  0  0  0  0  0  0  0  0  0  0  0
    7.0880   -4.6163   27.0010 C   0  0  0  0  0  0  0  0  0  0  0  0
    8.3117   -4.3698   27.4436 C   0  0  0  0  0  0  0  0  0  0  0  0
    1.1339   -5.0515   26.3541 C   0  0  0  0  0  0  0  0  0  0  0  0
    4.8080   -8.0362   16.7101 C   0  0  0  0  0  0  0  0  0  0  0  0
   -1.2173   -3.9294   26.9717 O   0  0  0  0  0  0  0  0  0  0  0  0
   -1.0025   -5.0942   27.4586 C   0  0  0  0  0  0  0  0  0  0  0  0
    2.2474   -8.9123   16.6273 C   0  0  0  0  0  0  0  0  0  0  0  0
    4.4957   -9.2636   17.3041 C   0  0  0  0  0  0  0  0  0  0  0  0
   -1.8070   -5.6086   28.1920 O   0  0  0  0  0  0  0  0  0  0  0  0
   10.4296   -5.1799   28.3140 C   0  0  0  0  0  0  0  0  0  0  0  0
    6.6017   -5.9004   26.9187 C   0  0  0  0  0  0  0  0  0  0  0  0
    2.4761   -6.9940   26.4111 N   0  0  0  0  0  0  0  0  0  0  0  0
    9.1353   -5.4053   27.8239 C   0  0  0  0  0  0  0  0  0  0  0  0
    0.9922   -9.3232   16.5995 O   0  0  0  0  0  0  0  0  0  0  0  0
    1.5232   -7.6869   27.1182 C   0  0  0  0  0  0  0  0  0  0  0  0
    8.6878   -6.6715   27.7262 N   0  0  0  0  0  0  0  0  0  0  0  0
    6.9911   -8.2423   27.1808 C   0  0  0  0  0  0  0  0  0  0  0  0
    3.8436   -7.2758   16.0578 C   0  0  0  0  0  0  0  0  0  0  0  0
    3.1882   -9.7190   17.2566 C   0  0  0  0  0  0  0  0  0  0  0  0
    5.3488   -6.1737   26.5092 C   0  0  0  0  0  0  0  0  0  0  0  0
    7.4567   -6.9464   27.2858 C   0  0  0  0  0  0  0  0  0  0  0  0
    0.1921   -5.7592   27.1123 C   0  0  0  0  0  0  0  0  0  0  0  0
    3.5517   -7.7407   25.9711 C   0  0  0  0  0  0  0  0  0  0  0  0
  1  4  4  0
  1 22  4  0
  2 20  4  0
  2 27  4  0
  3 12  4  0
  3 23  4  0
  4 25  4  0
  4 28  1  0
  5  8  4  0
  5 17  4  0
  6  7  4  0
  6 16  4  0
  7 18  4  0
  8 27  4  0
  9 13  4  0
  9 23  4  0
 10 11  1  0
 11 14  2  0
 11 27  1  0
 12 19  1  0
 12 24  4  0
 13 24  4  0
 15 18  1  0
 16 25  4  0
 16 26  4  0
 17 20  4  0
 17 28  1  0
 18 21  4  0
 21 26  4  0
 22 26  4  0
M  END
$$$$

 Created by Python create_sdf_string function

 28 30  0  0  0  0  0  0  0  0999 V2000
    5.7174   -8.4529   26.7190 C   0  0  0  0  0  0  0  0  0  0  0  0
    0.3974   -7.0711   27.5149 C   0  0  0  0  0  0  0  0  0  0  0  0
    2.5338   -7.6891   16.0102 C   0  0  0  0  0  0  0  0  0  0  0  0
    4.8690   -7.4380   26.4151 C   0  0  0  0  0  0  0  0  0  0  0  0
    2.3021   -5.6726   26.0378 C   0  0  0  0  0  0  0  0  0  0  0  0
    7.0880   -4.6163   27.0010 C   0  0  0  0  0  0  0  0  0  0  0  0
    8.3117   -4.3698   27.4436 C   0  0  0  0  0  0  0  0  0  0  0  0
    1.1339   -5.0515   26.3541 C   0  0  0  0  0  0  0  0  0  0  0  0
    4.8080   -8.0362   16.7101 C   0  0  0  0  0  0  0  0  0  0  0  0
   -1.2173   -3.9294   26.9717 O   0  0  0  0  0  0  0  0  0  0  0  0
   -1.0025   -5.0942   27.4586 C   0  0  0  0  0  0  0  0  0  0  0  0
    2.2474   -8.9123   16.6273 C   0  0  0  0  0  0  0  0  0  0  0  0
    4.4957   -9.2636   17.3041 C   0  0  0  0  0  0  0  0  0  0  0  0
   -1.8070   -5.6086   28.1920 O   0  0  0  0  0  0  0  0  0  0  0  0
   10.4296   -5.1799   28.3140 C   0  0  0  0  0  0  0  0  0  0  0  0
    6.6017   -5.9004   26.9187 C   0  0  0  0  0  0  0  0  0  0  0  0
    2.4761   -6.9940   26.4111 N   0  0  0  0  0  0  0  0  0  0  0  0
    9.1353   -5.4053   27.8239 C   0  0  0  0  0  0  0  0  0  0  0  0
    0.9922   -9.3232   16.5995 O   0  0  0  0  0  0  0  0  0  0  0  0
    1.5232   -7.6869   27.1182 C   0  0  0  0  0  0  0  0  0  0  0  0
    8.6878   -6.6715   27.7262 N   0  0  0  0  0  0  0  0  0  0  0  0
    6.9911   -8.2423   27.1808 C   0  0  0  0  0  0  0  0  0  0  0  0
    3.8436   -7.2758   16.0578 C   0  0  0  0  0  0  0  0  0  0  0  0
    3.1882   -9.7190   17.2566 C   0  0  0  0  0  0  0  0  0  0  0  0
    5.3488   -6.1737   26.5092 C   0  0  0  0  0  0  0  0  0  0  0  0
    7.4567   -6.9464   27.2858 C   0  0  0  0  0  0  0  0  0  0  0  0
    0.1921   -5.7592   27.1123 C   0  0  0  0  0  0  0  0  0  0  0  0
    3.5517   -7.7407   25.9711 C   0  0  0  0  0  0  0  0  0  0  0  0
  1  4  4  0
  1 22  4  0
  2 20  4  0
  2 27  4  0
  3 12  4  0
  3 23  4  0
  4 25  4  0
  4 28  1  0
  5  8  4  0
  5 17  4  0
  6  7  4  0
  6 16  4  0
  7 18  4  0
  8 27  4  0
  9 13  4  0
  9 23  4  0
 10 11  1  0
 11 14  2  0
 11 27  1  0
 12 19  1  0
 12 24  4  0
 13 24  4  0
 15 18  1  0
 16 25  4  0
 16 26  4  0
 17 20  4  0
 17 28  1  0
 18 21  4  0
 21 26  4  0
 22 26  4  0
M  END
$$$$

 Created by Python create_sdf_string function

 28 30  0  0  0  0  0  0  0  0999 V2000
    5.7174   -8.4529   26.7190 C   0  0  0  0  0  0  0  0  0  0  0  0
    0.3974   -7.0711   27.5149 C   0  0  0  0  0  0  0  0  0  0  0  0
    2.5338   -7.6891   16.0102 C   0  0  0  0  0  0  0  0  0  0  0  0
    4.8690   -7.4380   26.4151 C   0  0  0  0  0  0  0  0  0  0  0  0
    2.3021   -5.6726   26.0378 C   0  0  0  0  0  0  0  0  0  0  0  0
    7.0880   -4.6163   27.0010 C   0  0  0  0  0  0  0  0  0  0  0  0
    8.3117   -4.3698   27.4436 C   0  0  0  0  0  0  0  0  0  0  0  0
    1.1339   -5.0515   26.3541 C   0  0  0  0  0  0  0  0  0  0  0  0
    4.8080   -8.0362   16.7101 C   0  0  0  0  0  0  0  0  0  0  0  0
   -1.2173   -3.9294   26.9717 O   0  0  0  0  0  0  0  0  0  0  0  0
   -1.0025   -5.0942   27.4586 C   0  0  0  0  0  0  0  0  0  0  0  0
    2.2474   -8.9123   16.6273 C   0  0  0  0  0  0  0  0  0  0  0  0
    4.4957   -9.2636   17.3041 C   0  0  0  0  0  0  0  0  0  0  0  0
   -1.8070   -5.6086   28.1920 O   0  0  0  0  0  0  0  0  0  0  0  0
   10.4296   -5.1799   28.3140 C   0  0  0  0  0  0  0  0  0  0  0  0
    6.6017   -5.9004   26.9187 C   0  0  0  0  0  0  0  0  0  0  0  0
    2.4761   -6.9940   26.4111 N   0  0  0  0  0  0  0  0  0  0  0  0
    9.1353   -5.4053   27.8239 C   0  0  0  0  0  0  0  0  0  0  0  0
    0.9922   -9.3232   16.5995 O   0  0  0  0  0  0  0  0  0  0  0  0
    1.5232   -7.6869   27.1182 C   0  0  0  0  0  0  0  0  0  0  0  0
    8.6878   -6.6715   27.7262 N   0  0  0  0  0  0  0  0  0  0  0  0
    6.9911   -8.2423   27.1808 C   0  0  0  0  0  0  0  0  0  0  0  0
    3.8436   -7.2758   16.0578 C   0  0  0  0  0  0  0  0  0  0  0  0
    3.1882   -9.7190   17.2566 C   0  0  0  0  0  0  0  0  0  0  0  0
    5.3488   -6.1737   26.5092 C   0  0  0  0  0  0  0  0  0  0  0  0
    7.4567   -6.9464   27.2858 C   0  0  0  0  0  0  0  0  0  0  0  0
    0.1921   -5.7592   27.1123 C   0  0  0  0  0  0  0  0  0  0  0  0
    3.5517   -7.7407   25.9711 C   0  0  0  0  0  0  0  0  0  0  0  0
  1  4  4  0
  1 22  4  0
  2 20  4  0
  2 27  4  0
  3 12  4  0
  3 23  4  0
  4 25  4  0
  4 28  1  0
  5  8  4  0
  5 17  4  0
  6  7  4  0
  6 16  4  0
  7 18  4  0
  8 27  4  0
  9 13  4  0
  9 23  4  0
 10 11  1  0
 11 14  2  0
 11 27  1  0
 12 19  1  0
 12 24  4  0
 13 24  4  0
 15 18  1  0
 16 25  4  0
 16 26  4  0
 17 20  4  0
 17 28  1  0
 18 21  4  0
 21 26  4  0
 22 26  4  0
M  END
$$$$

 Created by Python create_sdf_string function

 28 30  0  0  0  0  0  0  0  0999 V2000
    5.7174   -8.4529   26.7190 C   0  0  0  0  0  0  0  0  0  0  0  0
    0.3974   -7.0711   27.5149 C   0  0  0  0  0  0  0  0  0  0  0  0
    2.5338   -7.6891   16.0102 C   0  0  0  0  0  0  0  0  0  0  0  0
    4.8690   -7.4380   26.4151 C   0  0  0  0  0  0  0  0  0  0  0  0
    2.3021   -5.6726   26.0378 C   0  0  0  0  0  0  0  0  0  0  0  0
    7.0880   -4.6163   27.0010 C   0  0  0  0  0  0  0  0  0  0  0  0
    8.3117   -4.3698   27.4436 C   0  0  0  0  0  0  0  0  0  0  0  0
    1.1339   -5.0515   26.3541 C   0  0  0  0  0  0  0  0  0  0  0  0
    4.8080   -8.0362   16.7101 C   0  0  0  0  0  0  0  0  0  0  0  0
   -1.2173   -3.9294   26.9717 O   0  0  0  0  0  0  0  0  0  0  0  0
   -1.0025   -5.0942   27.4586 C   0  0  0  0  0  0  0  0  0  0  0  0
    2.2474   -8.9123   16.6273 C   0  0  0  0  0  0  0  0  0  0  0  0
    4.4957   -9.2636   17.3041 C   0  0  0  0  0  0  0  0  0  0  0  0
   -1.8070   -5.6086   28.1920 O   0  0  0  0  0  0  0  0  0  0  0  0
   10.4296   -5.1799   28.3140 C   0  0  0  0  0  0  0  0  0  0  0  0
    6.6017   -5.9004   26.9187 C   0  0  0  0  0  0  0  0  0  0  0  0
    2.4761   -6.9940   26.4111 N   0  0  0  0  0  0  0  0  0  0  0  0
    9.1353   -5.4053   27.8239 C   0  0  0  0  0  0  0  0  0  0  0  0
    0.9922   -9.3232   16.5995 O   0  0  0  0  0  0  0  0  0  0  0  0
    1.5232   -7.6869   27.1182 C   0  0  0  0  0  0  0  0  0  0  0  0
    8.6878   -6.6715   27.7262 N   0  0  0  0  0  0  0  0  0  0  0  0
    6.9911   -8.2423   27.1808 C   0  0  0  0  0  0  0  0  0  0  0  0
    3.8436   -7.2758   16.0578 C   0  0  0  0  0  0  0  0  0  0  0  0
    3.1882   -9.7190   17.2566 C   0  0  0  0  0  0  0  0  0  0  0  0
    5.3488   -6.1737   26.5092 C   0  0  0  0  0  0  0  0  0  0  0  0
    7.4567   -6.9464   27.2858 C   0  0  0  0  0  0  0  0  0  0  0  0
    0.1921   -5.7592   27.1123 C   0  0  0  0  0  0  0  0  0  0  0  0
    3.5517   -7.7407   25.9711 C   0  0  0  0  0  0  0  0  0  0  0  0
  1  4  4  0
  1 22  4  0
  2 20  4  0
  2 27  4  0
  3 12  4  0
  3 23  4  0
  4 25  4  0
  4 28  1  0
  5  8  4  0
  5 17  4  0
  6  7  4  0
  6 16  4  0
  7 18  4  0
  8 27  4  0
  9 13  4  0
  9 23  4  0
 10 11  1  0
 11 14  2  0
 11 27  1  0
 12 19  1  0
 12 24  4  0
 13 24  4  0
 15 18  1  0
 16 25  4  0
 16 26  4  0
 17 20  4  0
 17 28  1  0
 18 21  4  0
 21 26  4  0
 22 26  4  0
M  END
$$$$

 Created by Python create_sdf_string function

 28 30  0  0  0  0  0  0  0  0999 V2000
    5.7174   -8.4529   26.7190 C   0  0  0  0  0  0  0  0  0  0  0  0
    0.3974   -7.0711   27.5149 C   0  0  0  0  0  0  0  0  0  0  0  0
    2.5338   -7.6891   16.0102 C   0  0  0  0  0  0  0  0  0  0  0  0
    4.8690   -7.4380   26.4151 C   0  0  0  0  0  0  0  0  0  0  0  0
    2.3021   -5.6726   26.0378 C   0  0  0  0  0  0  0  0  0  0  0  0
    7.0880   -4.6163   27.0010 C   0  0  0  0  0  0  0  0  0  0  0  0
    8.3117   -4.3698   27.4436 C   0  0  0  0  0  0  0  0  0  0  0  0
    1.1339   -5.0515   26.3541 C   0  0  0  0  0  0  0  0  0  0  0  0
    4.8080   -8.0362   16.7101 C   0  0  0  0  0  0  0  0  0  0  0  0
   -1.2173   -3.9294   26.9717 O   0  0  0  0  0  0  0  0  0  0  0  0
   -1.0025   -5.0942   27.4586 C   0  0  0  0  0  0  0  0  0  0  0  0
    2.2474   -8.9123   16.6273 C   0  0  0  0  0  0  0  0  0  0  0  0
    4.4957   -9.2636   17.3041 C   0  0  0  0  0  0  0  0  0  0  0  0
   -1.8070   -5.6086   28.1920 O   0  0  0  0  0  0  0  0  0  0  0  0
   10.4296   -5.1799   28.3140 C   0  0  0  0  0  0  0  0  0  0  0  0
    6.6017   -5.9004   26.9187 C   0  0  0  0  0  0  0  0  0  0  0  0
    2.4761   -6.9940   26.4111 N   0  0  0  0  0  0  0  0  0  0  0  0
    9.1353   -5.4053   27.8239 C   0  0  0  0  0  0  0  0  0  0  0  0
    0.9922   -9.3232   16.5995 O   0  0  0  0  0  0  0  0  0  0  0  0
    1.5232   -7.6869   27.1182 C   0  0  0  0  0  0  0  0  0  0  0  0
    8.6878   -6.6715   27.7262 N   0  0  0  0  0  0  0  0  0  0  0  0
    6.9911   -8.2423   27.1808 C   0  0  0  0  0  0  0  0  0  0  0  0
    3.8436   -7.2758   16.0578 C   0  0  0  0  0  0  0  0  0  0  0  0
    3.1882   -9.7190   17.2566 C   0  0  0  0  0  0  0  0  0  0  0  0
    5.3488   -6.1737   26.5092 C   0  0  0  0  0  0  0  0  0  0  0  0
    7.4567   -6.9464   27.2858 C   0  0  0  0  0  0  0  0  0  0  0  0
    0.1921   -5.7592   27.1123 C   0  0  0  0  0  0  0  0  0  0  0  0
    3.5517   -7.7407   25.9711 C   0  0  0  0  0  0  0  0  0  0  0  0
  1  4  4  0
  1 22  4  0
  2 20  4  0
  2 27  4  0
  3 12  4  0
  3 23  4  0
  4 25  4  0
  4 28  1  0
  5  8  4  0
  5 17  4  0
  6  7  4  0
  6 16  4  0
  7 18  4  0
  8 27  4  0
  9 13  4  0
  9 23  4  0
 10 11  1  0
 11 14  2  0
 11 27  1  0
 12 19  1  0
 12 24  4  0
 13 24  4  0
 15 18  1  0
 16 25  4  0
 16 26  4  0
 17 20  4  0
 17 28  1  0
 18 21  4  0
 21 26  4  0
 22 26  4  0
M  END
$$$$

 Created by Python create_sdf_string function

 28 30  0  0  0  0  0  0  0  0999 V2000
    5.7174   -8.4529   26.7190 C   0  0  0  0  0  0  0  0  0  0  0  0
    0.3974   -7.0711   27.5149 C   0  0  0  0  0  0  0  0  0  0  0  0
    2.5338   -7.6891   16.0102 C   0  0  0  0  0  0  0  0  0  0  0  0
    4.8690   -7.4380   26.4151 C   0  0  0  0  0  0  0  0  0  0  0  0
    2.3021   -5.6726   26.0378 C   0  0  0  0  0  0  0  0  0  0  0  0
    7.0880   -4.6163   27.0010 C   0  0  0  0  0  0  0  0  0  0  0  0
    8.3117   -4.3698   27.4436 C   0  0  0  0  0  0  0  0  0  0  0  0
    1.1339   -5.0515   26.3541 C   0  0  0  0  0  0  0  0  0  0  0  0
    4.8080   -8.0362   16.7101 C   0  0  0  0  0  0  0  0  0  0  0  0
   -1.2173   -3.9294   26.9717 O   0  0  0  0  0  0  0  0  0  0  0  0
   -1.0025   -5.0942   27.4586 C   0  0  0  0  0  0  0  0  0  0  0  0
    2.2474   -8.9123   16.6273 C   0  0  0  0  0  0  0  0  0  0  0  0
    4.4957   -9.2636   17.3041 C   0  0  0  0  0  0  0  0  0  0  0  0
   -1.8070   -5.6086   28.1920 O   0  0  0  0  0  0  0  0  0  0  0  0
   10.4296   -5.1799   28.3140 C   0  0  0  0  0  0  0  0  0  0  0  0
    6.6017   -5.9004   26.9187 C   0  0  0  0  0  0  0  0  0  0  0  0
    2.4761   -6.9940   26.4111 N   0  0  0  0  0  0  0  0  0  0  0  0
    9.1353   -5.4053   27.8239 C   0  0  0  0  0  0  0  0  0  0  0  0
    0.9922   -9.3232   16.5995 O   0  0  0  0  0  0  0  0  0  0  0  0
    1.5232   -7.6869   27.1182 C   0  0  0  0  0  0  0  0  0  0  0  0
    8.6878   -6.6715   27.7262 N   0  0  0  0  0  0  0  0  0  0  0  0
    6.9911   -8.2423   27.1808 C   0  0  0  0  0  0  0  0  0  0  0  0
    3.8436   -7.2758   16.0578 C   0  0  0  0  0  0  0  0  0  0  0  0
    3.1882   -9.7190   17.2566 C   0  0  0  0  0  0  0  0  0  0  0  0
    5.3488   -6.1737   26.5092 C   0  0  0  0  0  0  0  0  0  0  0  0
    7.4567   -6.9464   27.2858 C   0  0  0  0  0  0  0  0  0  0  0  0
    0.1921   -5.7592   27.1123 C   0  0  0  0  0  0  0  0  0  0  0  0
    3.5517   -7.7407   25.9711 C   0  0  0  0  0  0  0  0  0  0  0  0
  1  4  4  0
  1 22  4  0
  2 20  4  0
  2 27  4  0
  3 12  4  0
  3 23  4  0
  4 25  4  0
  4 28  1  0
  5  8  4  0
  5 17  4  0
  6  7  4  0
  6 16  4  0
  7 18  4  0
  8 27  4  0
  9 13  4  0
  9 23  4  0
 10 11  1  0
 11 14  2  0
 11 27  1  0
 12 19  1  0
 12 24  4  0
 13 24  4  0
 15 18  1  0
 16 25  4  0
 16 26  4  0
 17 20  4  0
 17 28  1  0
 18 21  4  0
 21 26  4  0
 22 26  4  0
M  END
$$$$

 Created by Python create_sdf_string function

 28 30  0  0  0  0  0  0  0  0999 V2000
    5.7174   -8.4529   26.7190 C   0  0  0  0  0  0  0  0  0  0  0  0
    0.3974   -7.0711   27.5149 C   0  0  0  0  0  0  0  0  0  0  0  0
    2.5338   -7.6891   16.0102 C   0  0  0  0  0  0  0  0  0  0  0  0
    4.8690   -7.4380   26.4151 C   0  0  0  0  0  0  0  0  0  0  0  0
    2.3021   -5.6726   26.0378 C   0  0  0  0  0  0  0  0  0  0  0  0
    7.0880   -4.6163   27.0010 C   0  0  0  0  0  0  0  0  0  0  0  0
    8.3117   -4.3698   27.4436 C   0  0  0  0  0  0  0  0  0  0  0  0
    1.1339   -5.0515   26.3541 C   0  0  0  0  0  0  0  0  0  0  0  0
    4.8080   -8.0362   16.7101 C   0  0  0  0  0  0  0  0  0  0  0  0
   -1.2173   -3.9294   26.9717 O   0  0  0  0  0  0  0  0  0  0  0  0
   -1.0025   -5.0942   27.4586 C   0  0  0  0  0  0  0  0  0  0  0  0
    2.2474   -8.9123   16.6273 C   0  0  0  0  0  0  0  0  0  0  0  0
    4.4957   -9.2636   17.3041 C   0  0  0  0  0  0  0  0  0  0  0  0
   -1.8070   -5.6086   28.1920 O   0  0  0  0  0  0  0  0  0  0  0  0
   10.4296   -5.1799   28.3140 C   0  0  0  0  0  0  0  0  0  0  0  0
    6.6017   -5.9004   26.9187 C   0  0  0  0  0  0  0  0  0  0  0  0
    2.4761   -6.9940   26.4111 N   0  0  0  0  0  0  0  0  0  0  0  0
    9.1353   -5.4053   27.8239 C   0  0  0  0  0  0  0  0  0  0  0  0
    0.9922   -9.3232   16.5995 O   0  0  0  0  0  0  0  0  0  0  0  0
    1.5232   -7.6869   27.1182 C   0  0  0  0  0  0  0  0  0  0  0  0
    8.6878   -6.6715   27.7262 N   0  0  0  0  0  0  0  0  0  0  0  0
    6.9911   -8.2423   27.1808 C   0  0  0  0  0  0  0  0  0  0  0  0
    3.8436   -7.2758   16.0578 C   0  0  0  0  0  0  0  0  0  0  0  0
    3.1882   -9.7190   17.2566 C   0  0  0  0  0  0  0  0  0  0  0  0
    5.3488   -6.1737   26.5092 C   0  0  0  0  0  0  0  0  0  0  0  0
    7.4567   -6.9464   27.2858 C   0  0  0  0  0  0  0  0  0  0  0  0
    0.1921   -5.7592   27.1123 C   0  0  0  0  0  0  0  0  0  0  0  0
    3.5517   -7.7407   25.9711 C   0  0  0  0  0  0  0  0  0  0  0  0
  1  4  4  0
  1 22  4  0
  2 20  4  0
  2 27  4  0
  3 12  4  0
  3 23  4  0
  4 25  4  0
  4 28  1  0
  5  8  4  0
  5 17  4  0
  6  7  4  0
  6 16  4  0
  7 18  4  0
  8 27  4  0
  9 13  4  0
  9 23  4  0
 10 11  1  0
 11 14  2  0
 11 27  1  0
 12 19  1  0
 12 24  4  0
 13 24  4  0
 15 18  1  0
 16 25  4  0
 16 26  4  0
 17 20  4  0
 17 28  1  0
 18 21  4  0
 21 26  4  0
 22 26  4  0
M  END
$$$$

 Created by Python create_sdf_string function

 28 30  0  0  0  0  0  0  0  0999 V2000
    5.7174   -8.4529   26.7190 C   0  0  0  0  0  0  0  0  0  0  0  0
    0.3974   -7.0711   27.5149 C   0  0  0  0  0  0  0  0  0  0  0  0
    2.5338   -7.6891   16.0102 C   0  0  0  0  0  0  0  0  0  0  0  0
    4.8690   -7.4380   26.4151 C   0  0  0  0  0  0  0  0  0  0  0  0
    2.3021   -5.6726   26.0378 C   0  0  0  0  0  0  0  0  0  0  0  0
    7.0880   -4.6163   27.0010 C   0  0  0  0  0  0  0  0  0  0  0  0
    8.3117   -4.3698   27.4436 C   0  0  0  0  0  0  0  0  0  0  0  0
    1.1339   -5.0515   26.3541 C   0  0  0  0  0  0  0  0  0  0  0  0
    4.8080   -8.0362   16.7101 C   0  0  0  0  0  0  0  0  0  0  0  0
   -1.2173   -3.9294   26.9717 O   0  0  0  0  0  0  0  0  0  0  0  0
   -1.0025   -5.0942   27.4586 C   0  0  0  0  0  0  0  0  0  0  0  0
    2.2474   -8.9123   16.6273 C   0  0  0  0  0  0  0  0  0  0  0  0
    4.4957   -9.2636   17.3041 C   0  0  0  0  0  0  0  0  0  0  0  0
   -1.8070   -5.6086   28.1920 O   0  0  0  0  0  0  0  0  0  0  0  0
   10.4296   -5.1799   28.3140 C   0  0  0  0  0  0  0  0  0  0  0  0
    6.6017   -5.9004   26.9187 C   0  0  0  0  0  0  0  0  0  0  0  0
    2.4761   -6.9940   26.4111 N   0  0  0  0  0  0  0  0  0  0  0  0
    9.1353   -5.4053   27.8239 C   0  0  0  0  0  0  0  0  0  0  0  0
    0.9922   -9.3232   16.5995 O   0  0  0  0  0  0  0  0  0  0  0  0
    1.5232   -7.6869   27.1182 C   0  0  0  0  0  0  0  0  0  0  0  0
    8.6878   -6.6715   27.7262 N   0  0  0  0  0  0  0  0  0  0  0  0
    6.9911   -8.2423   27.1808 C   0  0  0  0  0  0  0  0  0  0  0  0
    3.8436   -7.2758   16.0578 C   0  0  0  0  0  0  0  0  0  0  0  0
    3.1882   -9.7190   17.2566 C   0  0  0  0  0  0  0  0  0  0  0  0
    5.3488   -6.1737   26.5092 C   0  0  0  0  0  0  0  0  0  0  0  0
    7.4567   -6.9464   27.2858 C   0  0  0  0  0  0  0  0  0  0  0  0
    0.1921   -5.7592   27.1123 C   0  0  0  0  0  0  0  0  0  0  0  0
    3.5517   -7.7407   25.9711 C   0  0  0  0  0  0  0  0  0  0  0  0
  1  4  4  0
  1 22  4  0
  2 20  4  0
  2 27  4  0
  3 12  4  0
  3 23  4  0
  4 25  4  0
  4 28  1  0
  5  8  4  0
  5 17  4  0
  6  7  4  0
  6 16  4  0
  7 18  4  0
  8 27  4  0
  9 13  4  0
  9 23  4  0
 10 11  1  0
 11 14  2  0
 11 27  1  0
 12 19  1  0
 12 24  4  0
 13 24  4  0
 15 18  1  0
 16 25  4  0
 16 26  4  0
 17 20  4  0
 17 28  1  0
 18 21  4  0
 21 26  4  0
 22 26  4  0
M  END
$$$$

 Created by Python create_sdf_string function

 28 30  0  0  0  0  0  0  0  0999 V2000
    5.7174   -8.4529   26.7190 C   0  0  0  0  0  0  0  0  0  0  0  0
    0.3974   -7.0711   27.5149 C   0  0  0  0  0  0  0  0  0  0  0  0
    2.5338   -7.6891   16.0102 C   0  0  0  0  0  0  0  0  0  0  0  0
    4.8690   -7.4380   26.4151 C   0  0  0  0  0  0  0  0  0  0  0  0
    2.3021   -5.6726   26.0378 C   0  0  0  0  0  0  0  0  0  0  0  0
    7.0880   -4.6163   27.0010 C   0  0  0  0  0  0  0  0  0  0  0  0
    8.3117   -4.3698   27.4436 C   0  0  0  0  0  0  0  0  0  0  0  0
    1.1339   -5.0515   26.3541 C   0  0  0  0  0  0  0  0  0  0  0  0
    4.8080   -8.0362   16.7101 C   0  0  0  0  0  0  0  0  0  0  0  0
   -1.2173   -3.9294   26.9717 O   0  0  0  0  0  0  0  0  0  0  0  0
   -1.0025   -5.0942   27.4586 C   0  0  0  0  0  0  0  0  0  0  0  0
    2.2474   -8.9123   16.6273 C   0  0  0  0  0  0  0  0  0  0  0  0
    4.4957   -9.2636   17.3041 C   0  0  0  0  0  0  0  0  0  0  0  0
   -1.8070   -5.6086   28.1920 O   0  0  0  0  0  0  0  0  0  0  0  0
   10.4296   -5.1799   28.3140 C   0  0  0  0  0  0  0  0  0  0  0  0
    6.6017   -5.9004   26.9187 C   0  0  0  0  0  0  0  0  0  0  0  0
    2.4761   -6.9940   26.4111 N   0  0  0  0  0  0  0  0  0  0  0  0
    9.1353   -5.4053   27.8239 C   0  0  0  0  0  0  0  0  0  0  0  0
    0.9922   -9.3232   16.5995 O   0  0  0  0  0  0  0  0  0  0  0  0
    1.5232   -7.6869   27.1182 C   0  0  0  0  0  0  0  0  0  0  0  0
    8.6878   -6.6715   27.7262 N   0  0  0  0  0  0  0  0  0  0  0  0
    6.9911   -8.2423   27.1808 C   0  0  0  0  0  0  0  0  0  0  0  0
    3.8436   -7.2758   16.0578 C   0  0  0  0  0  0  0  0  0  0  0  0
    3.1882   -9.7190   17.2566 C   0  0  0  0  0  0  0  0  0  0  0  0
    5.3488   -6.1737   26.5092 C   0  0  0  0  0  0  0  0  0  0  0  0
    7.4567   -6.9464   27.2858 C   0  0  0  0  0  0  0  0  0  0  0  0
    0.1921   -5.7592   27.1123 C   0  0  0  0  0  0  0  0  0  0  0  0
    3.5517   -7.7407   25.9711 C   0  0  0  0  0  0  0  0  0  0  0  0
  1  4  4  0
  1 22  4  0
  2 20  4  0
  2 27  4  0
  3 12  4  0
  3 23  4  0
  4 25  4  0
  4 28  1  0
  5  8  4  0
  5 17  4  0
  6  7  4  0
  6 16  4  0
  7 18  4  0
  8 27  4  0
  9 13  4  0
  9 23  4  0
 10 11  1  0
 11 14  2  0
 11 27  1  0
 12 19  1  0
 12 24  4  0
 13 24  4  0
 15 18  1  0
 16 25  4  0
 16 26  4  0
 17 20  4  0
 17 28  1  0
 18 21  4  0
 21 26  4  0
 22 26  4  0
M  END
$$$$

 Created by Python create_sdf_string function

 28 30  0  0  0  0  0  0  0  0999 V2000
    5.7174   -8.4529   26.7190 C   0  0  0  0  0  0  0  0  0  0  0  0
    0.3974   -7.0711   27.5149 C   0  0  0  0  0  0  0  0  0  0  0  0
    2.5338   -7.6891   16.0102 C   0  0  0  0  0  0  0  0  0  0  0  0
    4.8690   -7.4380   26.4151 C   0  0  0  0  0  0  0  0  0  0  0  0
    2.3021   -5.6726   26.0378 C   0  0  0  0  0  0  0  0  0  0  0  0
    7.0880   -4.6163   27.0010 C   0  0  0  0  0  0  0  0  0  0  0  0
    8.3117   -4.3698   27.4436 C   0  0  0  0  0  0  0  0  0  0  0  0
    1.1339   -5.0515   26.3541 C   0  0  0  0  0  0  0  0  0  0  0  0
    4.8080   -8.0362   16.7101 C   0  0  0  0  0  0  0  0  0  0  0  0
   -1.2173   -3.9294   26.9717 O   0  0  0  0  0  0  0  0  0  0  0  0
   -1.0025   -5.0942   27.4586 C   0  0  0  0  0  0  0  0  0  0  0  0
    2.2474   -8.9123   16.6273 C   0  0  0  0  0  0  0  0  0  0  0  0
    4.4957   -9.2636   17.3041 C   0  0  0  0  0  0  0  0  0  0  0  0
   -1.8070   -5.6086   28.1920 O   0  0  0  0  0  0  0  0  0  0  0  0
   10.4296   -5.1799   28.3140 C   0  0  0  0  0  0  0  0  0  0  0  0
    6.6017   -5.9004   26.9187 C   0  0  0  0  0  0  0  0  0  0  0  0
    2.4761   -6.9940   26.4111 N   0  0  0  0  0  0  0  0  0  0  0  0
    9.1353   -5.4053   27.8239 C   0  0  0  0  0  0  0  0  0  0  0  0
    0.9922   -9.3232   16.5995 O   0  0  0  0  0  0  0  0  0  0  0  0
    1.5232   -7.6869   27.1182 C   0  0  0  0  0  0  0  0  0  0  0  0
    8.6878   -6.6715   27.7262 N   0  0  0  0  0  0  0  0  0  0  0  0
    6.9911   -8.2423   27.1808 C   0  0  0  0  0  0  0  0  0  0  0  0
    3.8436   -7.2758   16.0578 C   0  0  0  0  0  0  0  0  0  0  0  0
    3.1882   -9.7190   17.2566 C   0  0  0  0  0  0  0  0  0  0  0  0
    5.3488   -6.1737   26.5092 C   0  0  0  0  0  0  0  0  0  0  0  0
    7.4567   -6.9464   27.2858 C   0  0  0  0  0  0  0  0  0  0  0  0
    0.1921   -5.7592   27.1123 C   0  0  0  0  0  0  0  0  0  0  0  0
    3.5517   -7.7407   25.9711 C   0  0  0  0  0  0  0  0  0  0  0  0
  1  4  4  0
  1 22  4  0
  2 20  4  0
  2 27  4  0
  3 12  4  0
  3 23  4  0
  4 25  4  0
  4 28  1  0
  5  8  4  0
  5 17  4  0
  6  7  4  0
  6 16  4  0
  7 18  4  0
  8 27  4  0
  9 13  4  0
  9 23  4  0
 10 11  1  0
 11 14  2  0
 11 27  1  0
 12 19  1  0
 12 24  4  0
 13 24  4  0
 15 18  1  0
 16 25  4  0
 16 26  4  0
 17 20  4  0
 17 28  1  0
 18 21  4  0
 21 26  4  0
 22 26  4  0
M  END
$$$$

 Created by Python create_sdf_string function

 28 30  0  0  0  0  0  0  0  0999 V2000
    5.7174   -8.4529   26.7190 C   0  0  0  0  0  0  0  0  0  0  0  0
    0.3974   -7.0711   27.5149 C   0  0  0  0  0  0  0  0  0  0  0  0
    2.5338   -7.6891   16.0102 C   0  0  0  0  0  0  0  0  0  0  0  0
    4.8690   -7.4380   26.4151 C   0  0  0  0  0  0  0  0  0  0  0  0
    2.3021   -5.6726   26.0378 C   0  0  0  0  0  0  0  0  0  0  0  0
    7.0880   -4.6163   27.0010 C   0  0  0  0  0  0  0  0  0  0  0  0
    8.3117   -4.3698   27.4436 C   0  0  0  0  0  0  0  0  0  0  0  0
    1.1339   -5.0515   26.3541 C   0  0  0  0  0  0  0  0  0  0  0  0
    4.8080   -8.0362   16.7101 C   0  0  0  0  0  0  0  0  0  0  0  0
   -1.2173   -3.9294   26.9717 O   0  0  0  0  0  0  0  0  0  0  0  0
   -1.0025   -5.0942   27.4586 C   0  0  0  0  0  0  0  0  0  0  0  0
    2.2474   -8.9123   16.6273 C   0  0  0  0  0  0  0  0  0  0  0  0
    4.4957   -9.2636   17.3041 C   0  0  0  0  0  0  0  0  0  0  0  0
   -1.8070   -5.6086   28.1920 O   0  0  0  0  0  0  0  0  0  0  0  0
   10.4296   -5.1799   28.3140 C   0  0  0  0  0  0  0  0  0  0  0  0
    6.6017   -5.9004   26.9187 C   0  0  0  0  0  0  0  0  0  0  0  0
    2.4761   -6.9940   26.4111 N   0  0  0  0  0  0  0  0  0  0  0  0
    9.1353   -5.4053   27.8239 C   0  0  0  0  0  0  0  0  0  0  0  0
    0.9922   -9.3232   16.5995 O   0  0  0  0  0  0  0  0  0  0  0  0
    1.5232   -7.6869   27.1182 C   0  0  0  0  0  0  0  0  0  0  0  0
    8.6878   -6.6715   27.7262 N   0  0  0  0  0  0  0  0  0  0  0  0
    6.9911   -8.2423   27.1808 C   0  0  0  0  0  0  0  0  0  0  0  0
    3.8436   -7.2758   16.0578 C   0  0  0  0  0  0  0  0  0  0  0  0
    3.1882   -9.7190   17.2566 C   0  0  0  0  0  0  0  0  0  0  0  0
    5.3488   -6.1737   26.5092 C   0  0  0  0  0  0  0  0  0  0  0  0
    7.4567   -6.9464   27.2858 C   0  0  0  0  0  0  0  0  0  0  0  0
    0.1921   -5.7592   27.1123 C   0  0  0  0  0  0  0  0  0  0  0  0
    3.5517   -7.7407   25.9711 C   0  0  0  0  0  0  0  0  0  0  0  0
  1  4  4  0
  1 22  4  0
  2 20  4  0
  2 27  4  0
  3 12  4  0
  3 23  4  0
  4 25  4  0
  4 28  1  0
  5  8  4  0
  5 17  4  0
  6  7  4  0
  6 16  4  0
  7 18  4  0
  8 27  4  0
  9 13  4  0
  9 23  4  0
 10 11  1  0
 11 14  2  0
 11 27  1  0
 12 19  1  0
 12 24  4  0
 13 24  4  0
 15 18  1  0
 16 25  4  0
 16 26  4  0
 17 20  4  0
 17 28  1  0
 18 21  4  0
 21 26  4  0
 22 26  4  0
M  END
$$$$

 Created by Python create_sdf_string function

 28 30  0  0  0  0  0  0  0  0999 V2000
    5.7174   -8.4529   26.7190 C   0  0  0  0  0  0  0  0  0  0  0  0
    0.3974   -7.0711   27.5149 C   0  0  0  0  0  0  0  0  0  0  0  0
    2.5338   -7.6891   16.0102 C   0  0  0  0  0  0  0  0  0  0  0  0
    4.8690   -7.4380   26.4151 C   0  0  0  0  0  0  0  0  0  0  0  0
    2.3021   -5.6726   26.0378 C   0  0  0  0  0  0  0  0  0  0  0  0
    7.0880   -4.6163   27.0010 C   0  0  0  0  0  0  0  0  0  0  0  0
    8.3117   -4.3698   27.4436 C   0  0  0  0  0  0  0  0  0  0  0  0
    1.1339   -5.0515   26.3541 C   0  0  0  0  0  0  0  0  0  0  0  0
    4.8080   -8.0362   16.7101 C   0  0  0  0  0  0  0  0  0  0  0  0
   -1.2173   -3.9294   26.9717 O   0  0  0  0  0  0  0  0  0  0  0  0
   -1.0025   -5.0942   27.4586 C   0  0  0  0  0  0  0  0  0  0  0  0
    2.2474   -8.9123   16.6273 C   0  0  0  0  0  0  0  0  0  0  0  0
    4.4957   -9.2636   17.3041 C   0  0  0  0  0  0  0  0  0  0  0  0
   -1.8070   -5.6086   28.1920 O   0  0  0  0  0  0  0  0  0  0  0  0
   10.4296   -5.1799   28.3140 C   0  0  0  0  0  0  0  0  0  0  0  0
    6.6017   -5.9004   26.9187 C   0  0  0  0  0  0  0  0  0  0  0  0
    2.4761   -6.9940   26.4111 N   0  0  0  0  0  0  0  0  0  0  0  0
    9.1353   -5.4053   27.8239 C   0  0  0  0  0  0  0  0  0  0  0  0
    0.9922   -9.3232   16.5995 O   0  0  0  0  0  0  0  0  0  0  0  0
    1.5232   -7.6869   27.1182 C   0  0  0  0  0  0  0  0  0  0  0  0
    8.6878   -6.6715   27.7262 N   0  0  0  0  0  0  0  0  0  0  0  0
    6.9911   -8.2423   27.1808 C   0  0  0  0  0  0  0  0  0  0  0  0
    3.8436   -7.2758   16.0578 C   0  0  0  0  0  0  0  0  0  0  0  0
    3.1882   -9.7190   17.2566 C   0  0  0  0  0  0  0  0  0  0  0  0
    5.3488   -6.1737   26.5092 C   0  0  0  0  0  0  0  0  0  0  0  0
    7.4567   -6.9464   27.2858 C   0  0  0  0  0  0  0  0  0  0  0  0
    0.1921   -5.7592   27.1123 C   0  0  0  0  0  0  0  0  0  0  0  0
    3.5517   -7.7407   25.9711 C   0  0  0  0  0  0  0  0  0  0  0  0
  1  4  4  0
  1 22  4  0
  2 20  4  0
  2 27  4  0
  3 12  4  0
  3 23  4  0
  4 25  4  0
  4 28  1  0
  5  8  4  0
  5 17  4  0
  6  7  4  0
  6 16  4  0
  7 18  4  0
  8 27  4  0
  9 13  4  0
  9 23  4  0
 10 11  1  0
 11 14  2  0
 11 27  1  0
 12 19  1  0
 12 24  4  0
 13 24  4  0
 15 18  1  0
 16 25  4  0
 16 26  4  0
 17 20  4  0
 17 28  1  0
 18 21  4  0
 21 26  4  0
 22 26  4  0
M  END
$$$$

 Created by Python create_sdf_string function

 28 30  0  0  0  0  0  0  0  0999 V2000
    5.7174   -8.4529   26.7190 C   0  0  0  0  0  0  0  0  0  0  0  0
    0.3974   -7.0711   27.5149 C   0  0  0  0  0  0  0  0  0  0  0  0
    2.5338   -7.6891   16.0102 C   0  0  0  0  0  0  0  0  0  0  0  0
    4.8690   -7.4380   26.4151 C   0  0  0  0  0  0  0  0  0  0  0  0
    2.3021   -5.6726   26.0378 C   0  0  0  0  0  0  0  0  0  0  0  0
    7.0880   -4.6163   27.0010 C   0  0  0  0  0  0  0  0  0  0  0  0
    8.3117   -4.3698   27.4436 C   0  0  0  0  0  0  0  0  0  0  0  0
    1.1339   -5.0515   26.3541 C   0  0  0  0  0  0  0  0  0  0  0  0
    4.8080   -8.0362   16.7101 C   0  0  0  0  0  0  0  0  0  0  0  0
   -1.2173   -3.9294   26.9717 O   0  0  0  0  0  0  0  0  0  0  0  0
   -1.0025   -5.0942   27.4586 C   0  0  0  0  0  0  0  0  0  0  0  0
    2.2474   -8.9123   16.6273 C   0  0  0  0  0  0  0  0  0  0  0  0
    4.4957   -9.2636   17.3041 C   0  0  0  0  0  0  0  0  0  0  0  0
   -1.8070   -5.6086   28.1920 O   0  0  0  0  0  0  0  0  0  0  0  0
   10.4296   -5.1799   28.3140 C   0  0  0  0  0  0  0  0  0  0  0  0
    6.6017   -5.9004   26.9187 C   0  0  0  0  0  0  0  0  0  0  0  0
    2.4761   -6.9940   26.4111 N   0  0  0  0  0  0  0  0  0  0  0  0
    9.1353   -5.4053   27.8239 C   0  0  0  0  0  0  0  0  0  0  0  0
    0.9922   -9.3232   16.5995 O   0  0  0  0  0  0  0  0  0  0  0  0
    1.5232   -7.6869   27.1182 C   0  0  0  0  0  0  0  0  0  0  0  0
    8.6878   -6.6715   27.7262 N   0  0  0  0  0  0  0  0  0  0  0  0
    6.9911   -8.2423   27.1808 C   0  0  0  0  0  0  0  0  0  0  0  0
    3.8436   -7.2758   16.0578 C   0  0  0  0  0  0  0  0  0  0  0  0
    3.1882   -9.7190   17.2566 C   0  0  0  0  0  0  0  0  0  0  0  0
    5.3488   -6.1737   26.5092 C   0  0  0  0  0  0  0  0  0  0  0  0
    7.4567   -6.9464   27.2858 C   0  0  0  0  0  0  0  0  0  0  0  0
    0.1921   -5.7592   27.1123 C   0  0  0  0  0  0  0  0  0  0  0  0
    3.5517   -7.7407   25.9711 C   0  0  0  0  0  0  0  0  0  0  0  0
  1  4  4  0
  1 22  4  0
  2 20  4  0
  2 27  4  0
  3 12  4  0
  3 23  4  0
  4 25  4  0
  4 28  1  0
  5  8  4  0
  5 17  4  0
  6  7  4  0
  6 16  4  0
  7 18  4  0
  8 27  4  0
  9 13  4  0
  9 23  4  0
 10 11  1  0
 11 14  2  0
 11 27  1  0
 12 19  1  0
 12 24  4  0
 13 24  4  0
 15 18  1  0
 16 25  4  0
 16 26  4  0
 17 20  4  0
 17 28  1  0
 18 21  4  0
 21 26  4  0
 22 26  4  0
M  END
$$$$

 Created by Python create_sdf_string function

 28 30  0  0  0  0  0  0  0  0999 V2000
    5.7174   -8.4529   26.7190 C   0  0  0  0  0  0  0  0  0  0  0  0
    0.3974   -7.0711   27.5149 C   0  0  0  0  0  0  0  0  0  0  0  0
    2.5338   -7.6891   16.0102 C   0  0  0  0  0  0  0  0  0  0  0  0
    4.8690   -7.4380   26.4151 C   0  0  0  0  0  0  0  0  0  0  0  0
    2.3021   -5.6726   26.0378 C   0  0  0  0  0  0  0  0  0  0  0  0
    7.0880   -4.6163   27.0010 C   0  0  0  0  0  0  0  0  0  0  0  0
    8.3117   -4.3698   27.4436 C   0  0  0  0  0  0  0  0  0  0  0  0
    1.1339   -5.0515   26.3541 C   0  0  0  0  0  0  0  0  0  0  0  0
    4.8080   -8.0362   16.7101 C   0  0  0  0  0  0  0  0  0  0  0  0
   -1.2173   -3.9294   26.9717 O   0  0  0  0  0  0  0  0  0  0  0  0
   -1.0025   -5.0942   27.4586 C   0  0  0  0  0  0  0  0  0  0  0  0
    2.2474   -8.9123   16.6273 C   0  0  0  0  0  0  0  0  0  0  0  0
    4.4957   -9.2636   17.3041 C   0  0  0  0  0  0  0  0  0  0  0  0
   -1.8070   -5.6086   28.1920 O   0  0  0  0  0  0  0  0  0  0  0  0
   10.4296   -5.1799   28.3140 C   0  0  0  0  0  0  0  0  0  0  0  0
    6.6017   -5.9004   26.9187 C   0  0  0  0  0  0  0  0  0  0  0  0
    2.4761   -6.9940   26.4111 N   0  0  0  0  0  0  0  0  0  0  0  0
    9.1353   -5.4053   27.8239 C   0  0  0  0  0  0  0  0  0  0  0  0
    0.9922   -9.3232   16.5995 O   0  0  0  0  0  0  0  0  0  0  0  0
    1.5232   -7.6869   27.1182 C   0  0  0  0  0  0  0  0  0  0  0  0
    8.6878   -6.6715   27.7262 N   0  0  0  0  0  0  0  0  0  0  0  0
    6.9911   -8.2423   27.1808 C   0  0  0  0  0  0  0  0  0  0  0  0
    3.8436   -7.2758   16.0578 C   0  0  0  0  0  0  0  0  0  0  0  0
    3.1882   -9.7190   17.2566 C   0  0  0  0  0  0  0  0  0  0  0  0
    5.3488   -6.1737   26.5092 C   0  0  0  0  0  0  0  0  0  0  0  0
    7.4567   -6.9464   27.2858 C   0  0  0  0  0  0  0  0  0  0  0  0
    0.1921   -5.7592   27.1123 C   0  0  0  0  0  0  0  0  0  0  0  0
    3.5517   -7.7407   25.9711 C   0  0  0  0  0  0  0  0  0  0  0  0
  1  4  4  0
  1 22  4  0
  2 20  4  0
  2 27  4  0
  3 12  4  0
  3 23  4  0
  4 25  4  0
  4 28  1  0
  5  8  4  0
  5 17  4  0
  6  7  4  0
  6 16  4  0
  7 18  4  0
  8 27  4  0
  9 13  4  0
  9 23  4  0
 10 11  1  0
 11 14  2  0
 11 27  1  0
 12 19  1  0
 12 24  4  0
 13 24  4  0
 15 18  1  0
 16 25  4  0
 16 26  4  0
 17 20  4  0
 17 28  1  0
 18 21  4  0
 21 26  4  0
 22 26  4  0
M  END
$$$$

 Created by Python create_sdf_string function

 28 30  0  0  0  0  0  0  0  0999 V2000
    5.7174   -8.4529   26.7190 C   0  0  0  0  0  0  0  0  0  0  0  0
    0.3974   -7.0711   27.5149 C   0  0  0  0  0  0  0  0  0  0  0  0
    2.5338   -7.6891   16.0102 C   0  0  0  0  0  0  0  0  0  0  0  0
    4.8690   -7.4380   26.4151 C   0  0  0  0  0  0  0  0  0  0  0  0
    2.3021   -5.6726   26.0378 C   0  0  0  0  0  0  0  0  0  0  0  0
    7.0880   -4.6163   27.0010 C   0  0  0  0  0  0  0  0  0  0  0  0
    8.3117   -4.3698   27.4436 C   0  0  0  0  0  0  0  0  0  0  0  0
    1.1339   -5.0515   26.3541 C   0  0  0  0  0  0  0  0  0  0  0  0
    4.8080   -8.0362   16.7101 C   0  0  0  0  0  0  0  0  0  0  0  0
   -1.2173   -3.9294   26.9717 O   0  0  0  0  0  0  0  0  0  0  0  0
   -1.0025   -5.0942   27.4586 C   0  0  0  0  0  0  0  0  0  0  0  0
    2.2474   -8.9123   16.6273 C   0  0  0  0  0  0  0  0  0  0  0  0
    4.4957   -9.2636   17.3041 C   0  0  0  0  0  0  0  0  0  0  0  0
   -1.8070   -5.6086   28.1920 O   0  0  0  0  0  0  0  0  0  0  0  0
   10.4296   -5.1799   28.3140 C   0  0  0  0  0  0  0  0  0  0  0  0
    6.6017   -5.9004   26.9187 C   0  0  0  0  0  0  0  0  0  0  0  0
    2.4761   -6.9940   26.4111 N   0  0  0  0  0  0  0  0  0  0  0  0
    9.1353   -5.4053   27.8239 C   0  0  0  0  0  0  0  0  0  0  0  0
    0.9922   -9.3232   16.5995 O   0  0  0  0  0  0  0  0  0  0  0  0
    1.5232   -7.6869   27.1182 C   0  0  0  0  0  0  0  0  0  0  0  0
    8.6878   -6.6715   27.7262 N   0  0  0  0  0  0  0  0  0  0  0  0
    6.9911   -8.2423   27.1808 C   0  0  0  0  0  0  0  0  0  0  0  0
    3.8436   -7.2758   16.0578 C   0  0  0  0  0  0  0  0  0  0  0  0
    3.1882   -9.7190   17.2566 C   0  0  0  0  0  0  0  0  0  0  0  0
    5.3488   -6.1737   26.5092 C   0  0  0  0  0  0  0  0  0  0  0  0
    7.4567   -6.9464   27.2858 C   0  0  0  0  0  0  0  0  0  0  0  0
    0.1921   -5.7592   27.1123 C   0  0  0  0  0  0  0  0  0  0  0  0
    3.5517   -7.7407   25.9711 C   0  0  0  0  0  0  0  0  0  0  0  0
  1  4  4  0
  1 22  4  0
  2 20  4  0
  2 27  4  0
  3 12  4  0
  3 23  4  0
  4 25  4  0
  4 28  1  0
  5  8  4  0
  5 17  4  0
  6  7  4  0
  6 16  4  0
  7 18  4  0
  8 27  4  0
  9 13  4  0
  9 23  4  0
 10 11  1  0
 11 14  2  0
 11 27  1  0
 12 19  1  0
 12 24  4  0
 13 24  4  0
 15 18  1  0
 16 25  4  0
 16 26  4  0
 17 20  4  0
 17 28  1  0
 18 21  4  0
 21 26  4  0
 22 26  4  0
M  END
$$$$

 Created by Python create_sdf_string function

 28 30  0  0  0  0  0  0  0  0999 V2000
    5.7174   -8.4529   26.7190 C   0  0  0  0  0  0  0  0  0  0  0  0
    0.3974   -7.0711   27.5149 C   0  0  0  0  0  0  0  0  0  0  0  0
    2.5338   -7.6891   16.0102 C   0  0  0  0  0  0  0  0  0  0  0  0
    4.8690   -7.4380   26.4151 C   0  0  0  0  0  0  0  0  0  0  0  0
    2.3021   -5.6726   26.0378 C   0  0  0  0  0  0  0  0  0  0  0  0
    7.0880   -4.6163   27.0010 C   0  0  0  0  0  0  0  0  0  0  0  0
    8.3117   -4.3698   27.4436 C   0  0  0  0  0  0  0  0  0  0  0  0
    1.1339   -5.0515   26.3541 C   0  0  0  0  0  0  0  0  0  0  0  0
    4.8080   -8.0362   16.7101 C   0  0  0  0  0  0  0  0  0  0  0  0
   -1.2173   -3.9294   26.9717 O   0  0  0  0  0  0  0  0  0  0  0  0
   -1.0025   -5.0942   27.4586 C   0  0  0  0  0  0  0  0  0  0  0  0
    2.2474   -8.9123   16.6273 C   0  0  0  0  0  0  0  0  0  0  0  0
    4.4957   -9.2636   17.3041 C   0  0  0  0  0  0  0  0  0  0  0  0
   -1.8070   -5.6086   28.1920 O   0  0  0  0  0  0  0  0  0  0  0  0
   10.4296   -5.1799   28.3140 C   0  0  0  0  0  0  0  0  0  0  0  0
    6.6017   -5.9004   26.9187 C   0  0  0  0  0  0  0  0  0  0  0  0
    2.4761   -6.9940   26.4111 N   0  0  0  0  0  0  0  0  0  0  0  0
    9.1353   -5.4053   27.8239 C   0  0  0  0  0  0  0  0  0  0  0  0
    0.9922   -9.3232   16.5995 O   0  0  0  0  0  0  0  0  0  0  0  0
    1.5232   -7.6869   27.1182 C   0  0  0  0  0  0  0  0  0  0  0  0
    8.6878   -6.6715   27.7262 N   0  0  0  0  0  0  0  0  0  0  0  0
    6.9911   -8.2423   27.1808 C   0  0  0  0  0  0  0  0  0  0  0  0
    3.8436   -7.2758   16.0578 C   0  0  0  0  0  0  0  0  0  0  0  0
    3.1882   -9.7190   17.2566 C   0  0  0  0  0  0  0  0  0  0  0  0
    5.3488   -6.1737   26.5092 C   0  0  0  0  0  0  0  0  0  0  0  0
    7.4567   -6.9464   27.2858 C   0  0  0  0  0  0  0  0  0  0  0  0
    0.1921   -5.7592   27.1123 C   0  0  0  0  0  0  0  0  0  0  0  0
    3.5517   -7.7407   25.9711 C   0  0  0  0  0  0  0  0  0  0  0  0
  1  4  4  0
  1 22  4  0
  2 20  4  0
  2 27  4  0
  3 12  4  0
  3 23  4  0
  4 25  4  0
  4 28  1  0
  5  8  4  0
  5 17  4  0
  6  7  4  0
  6 16  4  0
  7 18  4  0
  8 27  4  0
  9 13  4  0
  9 23  4  0
 10 11  1  0
 11 14  2  0
 11 27  1  0
 12 19  1  0
 12 24  4  0
 13 24  4  0
 15 18  1  0
 16 25  4  0
 16 26  4  0
 17 20  4  0
 17 28  1  0
 18 21  4  0
 21 26  4  0
 22 26  4  0
M  END
$$$$

 Created by Python create_sdf_string function

 28 30  0  0  0  0  0  0  0  0999 V2000
    5.7174   -8.4529   26.7190 C   0  0  0  0  0  0  0  0  0  0  0  0
    0.3974   -7.0711   27.5149 C   0  0  0  0  0  0  0  0  0  0  0  0
    2.5338   -7.6891   16.0102 C   0  0  0  0  0  0  0  0  0  0  0  0
    4.8690   -7.4380   26.4151 C   0  0  0  0  0  0  0  0  0  0  0  0
    2.3021   -5.6726   26.0378 C   0  0  0  0  0  0  0  0  0  0  0  0
    7.0880   -4.6163   27.0010 C   0  0  0  0  0  0  0  0  0  0  0  0
    8.3117   -4.3698   27.4436 C   0  0  0  0  0  0  0  0  0  0  0  0
    1.1339   -5.0515   26.3541 C   0  0  0  0  0  0  0  0  0  0  0  0
    4.8080   -8.0362   16.7101 C   0  0  0  0  0  0  0  0  0  0  0  0
   -1.2173   -3.9294   26.9717 O   0  0  0  0  0  0  0  0  0  0  0  0
   -1.0025   -5.0942   27.4586 C   0  0  0  0  0  0  0  0  0  0  0  0
    2.2474   -8.9123   16.6273 C   0  0  0  0  0  0  0  0  0  0  0  0
    4.4957   -9.2636   17.3041 C   0  0  0  0  0  0  0  0  0  0  0  0
   -1.8070   -5.6086   28.1920 O   0  0  0  0  0  0  0  0  0  0  0  0
   10.4296   -5.1799   28.3140 C   0  0  0  0  0  0  0  0  0  0  0  0
    6.6017   -5.9004   26.9187 C   0  0  0  0  0  0  0  0  0  0  0  0
    2.4761   -6.9940   26.4111 N   0  0  0  0  0  0  0  0  0  0  0  0
    9.1353   -5.4053   27.8239 C   0  0  0  0  0  0  0  0  0  0  0  0
    0.9922   -9.3232   16.5995 O   0  0  0  0  0  0  0  0  0  0  0  0
    1.5232   -7.6869   27.1182 C   0  0  0  0  0  0  0  0  0  0  0  0
    8.6878   -6.6715   27.7262 N   0  0  0  0  0  0  0  0  0  0  0  0
    6.9911   -8.2423   27.1808 C   0  0  0  0  0  0  0  0  0  0  0  0
    3.8436   -7.2758   16.0578 C   0  0  0  0  0  0  0  0  0  0  0  0
    3.1882   -9.7190   17.2566 C   0  0  0  0  0  0  0  0  0  0  0  0
    5.3488   -6.1737   26.5092 C   0  0  0  0  0  0  0  0  0  0  0  0
    7.4567   -6.9464   27.2858 C   0  0  0  0  0  0  0  0  0  0  0  0
    0.1921   -5.7592   27.1123 C   0  0  0  0  0  0  0  0  0  0  0  0
    3.5517   -7.7407   25.9711 C   0  0  0  0  0  0  0  0  0  0  0  0
  1  4  4  0
  1 22  4  0
  2 20  4  0
  2 27  4  0
  3 12  4  0
  3 23  4  0
  4 25  4  0
  4 28  1  0
  5  8  4  0
  5 17  4  0
  6  7  4  0
  6 16  4  0
  7 18  4  0
  8 27  4  0
  9 13  4  0
  9 23  4  0
 10 11  1  0
 11 14  2  0
 11 27  1  0
 12 19  1  0
 12 24  4  0
 13 24  4  0
 15 18  1  0
 16 25  4  0
 16 26  4  0
 17 20  4  0
 17 28  1  0
 18 21  4  0
 21 26  4  0
 22 26  4  0
M  END
$$$$

 Created by Python create_sdf_string function

 28 30  0  0  0  0  0  0  0  0999 V2000
    5.7174   -8.4529   26.7190 C   0  0  0  0  0  0  0  0  0  0  0  0
    0.3974   -7.0711   27.5149 C   0  0  0  0  0  0  0  0  0  0  0  0
    2.5338   -7.6891   16.0102 C   0  0  0  0  0  0  0  0  0  0  0  0
    4.8690   -7.4380   26.4151 C   0  0  0  0  0  0  0  0  0  0  0  0
    2.3021   -5.6726   26.0378 C   0  0  0  0  0  0  0  0  0  0  0  0
    7.0880   -4.6163   27.0010 C   0  0  0  0  0  0  0  0  0  0  0  0
    8.3117   -4.3698   27.4436 C   0  0  0  0  0  0  0  0  0  0  0  0
    1.1339   -5.0515   26.3541 C   0  0  0  0  0  0  0  0  0  0  0  0
    4.8080   -8.0362   16.7101 C   0  0  0  0  0  0  0  0  0  0  0  0
   -1.2173   -3.9294   26.9717 O   0  0  0  0  0  0  0  0  0  0  0  0
   -1.0025   -5.0942   27.4586 C   0  0  0  0  0  0  0  0  0  0  0  0
    2.2474   -8.9123   16.6273 C   0  0  0  0  0  0  0  0  0  0  0  0
    4.4957   -9.2636   17.3041 C   0  0  0  0  0  0  0  0  0  0  0  0
   -1.8070   -5.6086   28.1920 O   0  0  0  0  0  0  0  0  0  0  0  0
   10.4296   -5.1799   28.3140 C   0  0  0  0  0  0  0  0  0  0  0  0
    6.6017   -5.9004   26.9187 C   0  0  0  0  0  0  0  0  0  0  0  0
    2.4761   -6.9940   26.4111 N   0  0  0  0  0  0  0  0  0  0  0  0
    9.1353   -5.4053   27.8239 C   0  0  0  0  0  0  0  0  0  0  0  0
    0.9922   -9.3232   16.5995 O   0  0  0  0  0  0  0  0  0  0  0  0
    1.5232   -7.6869   27.1182 C   0  0  0  0  0  0  0  0  0  0  0  0
    8.6878   -6.6715   27.7262 N   0  0  0  0  0  0  0  0  0  0  0  0
    6.9911   -8.2423   27.1808 C   0  0  0  0  0  0  0  0  0  0  0  0
    3.8436   -7.2758   16.0578 C   0  0  0  0  0  0  0  0  0  0  0  0
    3.1882   -9.7190   17.2566 C   0  0  0  0  0  0  0  0  0  0  0  0
    5.3488   -6.1737   26.5092 C   0  0  0  0  0  0  0  0  0  0  0  0
    7.4567   -6.9464   27.2858 C   0  0  0  0  0  0  0  0  0  0  0  0
    0.1921   -5.7592   27.1123 C   0  0  0  0  0  0  0  0  0  0  0  0
    3.5517   -7.7407   25.9711 C   0  0  0  0  0  0  0  0  0  0  0  0
  1  4  4  0
  1 22  4  0
  2 20  4  0
  2 27  4  0
  3 12  4  0
  3 23  4  0
  4 25  4  0
  4 28  1  0
  5  8  4  0
  5 17  4  0
  6  7  4  0
  6 16  4  0
  7 18  4  0
  8 27  4  0
  9 13  4  0
  9 23  4  0
 10 11  1  0
 11 14  2  0
 11 27  1  0
 12 19  1  0
 12 24  4  0
 13 24  4  0
 15 18  1  0
 16 25  4  0
 16 26  4  0
 17 20  4  0
 17 28  1  0
 18 21  4  0
 21 26  4  0
 22 26  4  0
M  END
$$$$

 Created by Python create_sdf_string function

 28 30  0  0  0  0  0  0  0  0999 V2000
    5.7174   -8.4529   26.7190 C   0  0  0  0  0  0  0  0  0  0  0  0
    0.3974   -7.0711   27.5149 C   0  0  0  0  0  0  0  0  0  0  0  0
    2.5338   -7.6891   16.0102 C   0  0  0  0  0  0  0  0  0  0  0  0
    4.8690   -7.4380   26.4151 C   0  0  0  0  0  0  0  0  0  0  0  0
    2.3021   -5.6726   26.0378 C   0  0  0  0  0  0  0  0  0  0  0  0
    7.0880   -4.6163   27.0010 C   0  0  0  0  0  0  0  0  0  0  0  0
    8.3117   -4.3698   27.4436 C   0  0  0  0  0  0  0  0  0  0  0  0
    1.1339   -5.0515   26.3541 C   0  0  0  0  0  0  0  0  0  0  0  0
    4.8080   -8.0362   16.7101 C   0  0  0  0  0  0  0  0  0  0  0  0
   -1.2173   -3.9294   26.9717 O   0  0  0  0  0  0  0  0  0  0  0  0
   -1.0025   -5.0942   27.4586 C   0  0  0  0  0  0  0  0  0  0  0  0
    2.2474   -8.9123   16.6273 C   0  0  0  0  0  0  0  0  0  0  0  0
    4.4957   -9.2636   17.3041 C   0  0  0  0  0  0  0  0  0  0  0  0
   -1.8070   -5.6086   28.1920 O   0  0  0  0  0  0  0  0  0  0  0  0
   10.4296   -5.1799   28.3140 C   0  0  0  0  0  0  0  0  0  0  0  0
    6.6017   -5.9004   26.9187 C   0  0  0  0  0  0  0  0  0  0  0  0
    2.4761   -6.9940   26.4111 N   0  0  0  0  0  0  0  0  0  0  0  0
    9.1353   -5.4053   27.8239 C   0  0  0  0  0  0  0  0  0  0  0  0
    0.9922   -9.3232   16.5995 O   0  0  0  0  0  0  0  0  0  0  0  0
    1.5232   -7.6869   27.1182 C   0  0  0  0  0  0  0  0  0  0  0  0
    8.6878   -6.6715   27.7262 N   0  0  0  0  0  0  0  0  0  0  0  0
    6.9911   -8.2423   27.1808 C   0  0  0  0  0  0  0  0  0  0  0  0
    3.8436   -7.2758   16.0578 C   0  0  0  0  0  0  0  0  0  0  0  0
    3.1882   -9.7190   17.2566 C   0  0  0  0  0  0  0  0  0  0  0  0
    5.3488   -6.1737   26.5092 C   0  0  0  0  0  0  0  0  0  0  0  0
    7.4567   -6.9464   27.2858 C   0  0  0  0  0  0  0  0  0  0  0  0
    0.1921   -5.7592   27.1123 C   0  0  0  0  0  0  0  0  0  0  0  0
    3.5517   -7.7407   25.9711 C   0  0  0  0  0  0  0  0  0  0  0  0
  1  4  4  0
  1 22  4  0
  2 20  4  0
  2 27  4  0
  3 12  4  0
  3 23  4  0
  4 25  4  0
  4 28  1  0
  5  8  4  0
  5 17  4  0
  6  7  4  0
  6 16  4  0
  7 18  4  0
  8 27  4  0
  9 13  4  0
  9 23  4  0
 10 11  1  0
 11 14  2  0
 11 27  1  0
 12 19  1  0
 12 24  4  0
 13 24  4  0
 15 18  1  0
 16 25  4  0
 16 26  4  0
 17 20  4  0
 17 28  1  0
 18 21  4  0
 21 26  4  0
 22 26  4  0
M  END
$$$$

 Created by Python create_sdf_string function

 28 30  0  0  0  0  0  0  0  0999 V2000
    5.7174   -8.4529   26.7190 C   0  0  0  0  0  0  0  0  0  0  0  0
    0.3974   -7.0711   27.5149 C   0  0  0  0  0  0  0  0  0  0  0  0
    2.5338   -7.6891   16.0102 C   0  0  0  0  0  0  0  0  0  0  0  0
    4.8690   -7.4380   26.4151 C   0  0  0  0  0  0  0  0  0  0  0  0
    2.3021   -5.6726   26.0378 C   0  0  0  0  0  0  0  0  0  0  0  0
    7.0880   -4.6163   27.0010 C   0  0  0  0  0  0  0  0  0  0  0  0
    8.3117   -4.3698   27.4436 C   0  0  0  0  0  0  0  0  0  0  0  0
    1.1339   -5.0515   26.3541 C   0  0  0  0  0  0  0  0  0  0  0  0
    4.8080   -8.0362   16.7101 C   0  0  0  0  0  0  0  0  0  0  0  0
   -1.2173   -3.9294   26.9717 O   0  0  0  0  0  0  0  0  0  0  0  0
   -1.0025   -5.0942   27.4586 C   0  0  0  0  0  0  0  0  0  0  0  0
    2.2474   -8.9123   16.6273 C   0  0  0  0  0  0  0  0  0  0  0  0
    4.4957   -9.2636   17.3041 C   0  0  0  0  0  0  0  0  0  0  0  0
   -1.8070   -5.6086   28.1920 O   0  0  0  0  0  0  0  0  0  0  0  0
   10.4296   -5.1799   28.3140 C   0  0  0  0  0  0  0  0  0  0  0  0
    6.6017   -5.9004   26.9187 C   0  0  0  0  0  0  0  0  0  0  0  0
    2.4761   -6.9940   26.4111 N   0  0  0  0  0  0  0  0  0  0  0  0
    9.1353   -5.4053   27.8239 C   0  0  0  0  0  0  0  0  0  0  0  0
    0.9922   -9.3232   16.5995 O   0  0  0  0  0  0  0  0  0  0  0  0
    1.5232   -7.6869   27.1182 C   0  0  0  0  0  0  0  0  0  0  0  0
    8.6878   -6.6715   27.7262 N   0  0  0  0  0  0  0  0  0  0  0  0
    6.9911   -8.2423   27.1808 C   0  0  0  0  0  0  0  0  0  0  0  0
    3.8436   -7.2758   16.0578 C   0  0  0  0  0  0  0  0  0  0  0  0
    3.1882   -9.7190   17.2566 C   0  0  0  0  0  0  0  0  0  0  0  0
    5.3488   -6.1737   26.5092 C   0  0  0  0  0  0  0  0  0  0  0  0
    7.4567   -6.9464   27.2858 C   0  0  0  0  0  0  0  0  0  0  0  0
    0.1921   -5.7592   27.1123 C   0  0  0  0  0  0  0  0  0  0  0  0
    3.5517   -7.7407   25.9711 C   0  0  0  0  0  0  0  0  0  0  0  0
  1  4  4  0
  1 22  4  0
  2 20  4  0
  2 27  4  0
  3 12  4  0
  3 23  4  0
  4 25  4  0
  4 28  1  0
  5  8  4  0
  5 17  4  0
  6  7  4  0
  6 16  4  0
  7 18  4  0
  8 27  4  0
  9 13  4  0
  9 23  4  0
 10 11  1  0
 11 14  2  0
 11 27  1  0
 12 19  1  0
 12 24  4  0
 13 24  4  0
 15 18  1  0
 16 25  4  0
 16 26  4  0
 17 20  4  0
 17 28  1  0
 18 21  4  0
 21 26  4  0
 22 26  4  0
M  END
$$$$

 Created by Python create_sdf_string function

 28 30  0  0  0  0  0  0  0  0999 V2000
    5.7174   -8.4529   26.7190 C   0  0  0  0  0  0  0  0  0  0  0  0
    0.3974   -7.0711   27.5149 C   0  0  0  0  0  0  0  0  0  0  0  0
    2.5338   -7.6891   16.0102 C   0  0  0  0  0  0  0  0  0  0  0  0
    4.8690   -7.4380   26.4151 C   0  0  0  0  0  0  0  0  0  0  0  0
    2.3021   -5.6726   26.0378 C   0  0  0  0  0  0  0  0  0  0  0  0
    7.0880   -4.6163   27.0010 C   0  0  0  0  0  0  0  0  0  0  0  0
    8.3117   -4.3698   27.4436 C   0  0  0  0  0  0  0  0  0  0  0  0
    1.1339   -5.0515   26.3541 C   0  0  0  0  0  0  0  0  0  0  0  0
    4.8080   -8.0362   16.7101 C   0  0  0  0  0  0  0  0  0  0  0  0
   -1.2173   -3.9294   26.9717 O   0  0  0  0  0  0  0  0  0  0  0  0
   -1.0025   -5.0942   27.4586 C   0  0  0  0  0  0  0  0  0  0  0  0
    2.2474   -8.9123   16.6273 C   0  0  0  0  0  0  0  0  0  0  0  0
    4.4957   -9.2636   17.3041 C   0  0  0  0  0  0  0  0  0  0  0  0
   -1.8070   -5.6086   28.1920 O   0  0  0  0  0  0  0  0  0  0  0  0
   10.4296   -5.1799   28.3140 C   0  0  0  0  0  0  0  0  0  0  0  0
    6.6017   -5.9004   26.9187 C   0  0  0  0  0  0  0  0  0  0  0  0
    2.4761   -6.9940   26.4111 N   0  0  0  0  0  0  0  0  0  0  0  0
    9.1353   -5.4053   27.8239 C   0  0  0  0  0  0  0  0  0  0  0  0
    0.9922   -9.3232   16.5995 O   0  0  0  0  0  0  0  0  0  0  0  0
    1.5232   -7.6869   27.1182 C   0  0  0  0  0  0  0  0  0  0  0  0
    8.6878   -6.6715   27.7262 N   0  0  0  0  0  0  0  0  0  0  0  0
    6.9911   -8.2423   27.1808 C   0  0  0  0  0  0  0  0  0  0  0  0
    3.8436   -7.2758   16.0578 C   0  0  0  0  0  0  0  0  0  0  0  0
    3.1882   -9.7190   17.2566 C   0  0  0  0  0  0  0  0  0  0  0  0
    5.3488   -6.1737   26.5092 C   0  0  0  0  0  0  0  0  0  0  0  0
    7.4567   -6.9464   27.2858 C   0  0  0  0  0  0  0  0  0  0  0  0
    0.1921   -5.7592   27.1123 C   0  0  0  0  0  0  0  0  0  0  0  0
    3.5517   -7.7407   25.9711 C   0  0  0  0  0  0  0  0  0  0  0  0
  1  4  4  0
  1 22  4  0
  2 20  4  0
  2 27  4  0
  3 12  4  0
  3 23  4  0
  4 25  4  0
  4 28  1  0
  5  8  4  0
  5 17  4  0
  6  7  4  0
  6 16  4  0
  7 18  4  0
  8 27  4  0
  9 13  4  0
  9 23  4  0
 10 11  1  0
 11 14  2  0
 11 27  1  0
 12 19  1  0
 12 24  4  0
 13 24  4  0
 15 18  1  0
 16 25  4  0
 16 26  4  0
 17 20  4  0
 17 28  1  0
 18 21  4  0
 21 26  4  0
 22 26  4  0
M  END
$$$$

 Created by Python create_sdf_string function

 28 30  0  0  0  0  0  0  0  0999 V2000
    5.7174   -8.4529   26.7190 C   0  0  0  0  0  0  0  0  0  0  0  0
    0.3974   -7.0711   27.5149 C   0  0  0  0  0  0  0  0  0  0  0  0
    2.5338   -7.6891   16.0102 C   0  0  0  0  0  0  0  0  0  0  0  0
    4.8690   -7.4380   26.4151 C   0  0  0  0  0  0  0  0  0  0  0  0
    2.3021   -5.6726   26.0378 C   0  0  0  0  0  0  0  0  0  0  0  0
    7.0880   -4.6163   27.0010 C   0  0  0  0  0  0  0  0  0  0  0  0
    8.3117   -4.3698   27.4436 C   0  0  0  0  0  0  0  0  0  0  0  0
    1.1339   -5.0515   26.3541 C   0  0  0  0  0  0  0  0  0  0  0  0
    4.8080   -8.0362   16.7101 C   0  0  0  0  0  0  0  0  0  0  0  0
   -1.2173   -3.9294   26.9717 O   0  0  0  0  0  0  0  0  0  0  0  0
   -1.0025   -5.0942   27.4586 C   0  0  0  0  0  0  0  0  0  0  0  0
    2.2474   -8.9123   16.6273 C   0  0  0  0  0  0  0  0  0  0  0  0
    4.4957   -9.2636   17.3041 C   0  0  0  0  0  0  0  0  0  0  0  0
   -1.8070   -5.6086   28.1920 O   0  0  0  0  0  0  0  0  0  0  0  0
   10.4296   -5.1799   28.3140 C   0  0  0  0  0  0  0  0  0  0  0  0
    6.6017   -5.9004   26.9187 C   0  0  0  0  0  0  0  0  0  0  0  0
    2.4761   -6.9940   26.4111 N   0  0  0  0  0  0  0  0  0  0  0  0
    9.1353   -5.4053   27.8239 C   0  0  0  0  0  0  0  0  0  0  0  0
    0.9922   -9.3232   16.5995 O   0  0  0  0  0  0  0  0  0  0  0  0
    1.5232   -7.6869   27.1182 C   0  0  0  0  0  0  0  0  0  0  0  0
    8.6878   -6.6715   27.7262 N   0  0  0  0  0  0  0  0  0  0  0  0
    6.9911   -8.2423   27.1808 C   0  0  0  0  0  0  0  0  0  0  0  0
    3.8436   -7.2758   16.0578 C   0  0  0  0  0  0  0  0  0  0  0  0
    3.1882   -9.7190   17.2566 C   0  0  0  0  0  0  0  0  0  0  0  0
    5.3488   -6.1737   26.5092 C   0  0  0  0  0  0  0  0  0  0  0  0
    7.4567   -6.9464   27.2858 C   0  0  0  0  0  0  0  0  0  0  0  0
    0.1921   -5.7592   27.1123 C   0  0  0  0  0  0  0  0  0  0  0  0
    3.5517   -7.7407   25.9711 C   0  0  0  0  0  0  0  0  0  0  0  0
  1  4  4  0
  1 22  4  0
  2 20  4  0
  2 27  4  0
  3 12  4  0
  3 23  4  0
  4 25  4  0
  4 28  1  0
  5  8  4  0
  5 17  4  0
  6  7  4  0
  6 16  4  0
  7 18  4  0
  8 27  4  0
  9 13  4  0
  9 23  4  0
 10 11  1  0
 11 14  2  0
 11 27  1  0
 12 19  1  0
 12 24  4  0
 13 24  4  0
 15 18  1  0
 16 25  4  0
 16 26  4  0
 17 20  4  0
 17 28  1  0
 18 21  4  0
 21 26  4  0
 22 26  4  0
M  END
$$$$

 Created by Python create_sdf_string function

 28 30  0  0  0  0  0  0  0  0999 V2000
    5.7174   -8.4529   26.7190 C   0  0  0  0  0  0  0  0  0  0  0  0
    0.3974   -7.0711   27.5149 C   0  0  0  0  0  0  0  0  0  0  0  0
    2.5338   -7.6891   16.0102 C   0  0  0  0  0  0  0  0  0  0  0  0
    4.8690   -7.4380   26.4151 C   0  0  0  0  0  0  0  0  0  0  0  0
    2.3021   -5.6726   26.0378 C   0  0  0  0  0  0  0  0  0  0  0  0
    7.0880   -4.6163   27.0010 C   0  0  0  0  0  0  0  0  0  0  0  0
    8.3117   -4.3698   27.4436 C   0  0  0  0  0  0  0  0  0  0  0  0
    1.1339   -5.0515   26.3541 C   0  0  0  0  0  0  0  0  0  0  0  0
    4.8080   -8.0362   16.7101 C   0  0  0  0  0  0  0  0  0  0  0  0
   -1.2173   -3.9294   26.9717 O   0  0  0  0  0  0  0  0  0  0  0  0
   -1.0025   -5.0942   27.4586 C   0  0  0  0  0  0  0  0  0  0  0  0
    2.2474   -8.9123   16.6273 C   0  0  0  0  0  0  0  0  0  0  0  0
    4.4957   -9.2636   17.3041 C   0  0  0  0  0  0  0  0  0  0  0  0
   -1.8070   -5.6086   28.1920 O   0  0  0  0  0  0  0  0  0  0  0  0
   10.4296   -5.1799   28.3140 C   0  0  0  0  0  0  0  0  0  0  0  0
    6.6017   -5.9004   26.9187 C   0  0  0  0  0  0  0  0  0  0  0  0
    2.4761   -6.9940   26.4111 N   0  0  0  0  0  0  0  0  0  0  0  0
    9.1353   -5.4053   27.8239 C   0  0  0  0  0  0  0  0  0  0  0  0
    0.9922   -9.3232   16.5995 O   0  0  0  0  0  0  0  0  0  0  0  0
    1.5232   -7.6869   27.1182 C   0  0  0  0  0  0  0  0  0  0  0  0
    8.6878   -6.6715   27.7262 N   0  0  0  0  0  0  0  0  0  0  0  0
    6.9911   -8.2423   27.1808 C   0  0  0  0  0  0  0  0  0  0  0  0
    3.8436   -7.2758   16.0578 C   0  0  0  0  0  0  0  0  0  0  0  0
    3.1882   -9.7190   17.2566 C   0  0  0  0  0  0  0  0  0  0  0  0
    5.3488   -6.1737   26.5092 C   0  0  0  0  0  0  0  0  0  0  0  0
    7.4567   -6.9464   27.2858 C   0  0  0  0  0  0  0  0  0  0  0  0
    0.1921   -5.7592   27.1123 C   0  0  0  0  0  0  0  0  0  0  0  0
    3.5517   -7.7407   25.9711 C   0  0  0  0  0  0  0  0  0  0  0  0
  1  4  4  0
  1 22  4  0
  2 20  4  0
  2 27  4  0
  3 12  4  0
  3 23  4  0
  4 25  4  0
  4 28  1  0
  5  8  4  0
  5 17  4  0
  6  7  4  0
  6 16  4  0
  7 18  4  0
  8 27  4  0
  9 13  4  0
  9 23  4  0
 10 11  1  0
 11 14  2  0
 11 27  1  0
 12 19  1  0
 12 24  4  0
 13 24  4  0
 15 18  1  0
 16 25  4  0
 16 26  4  0
 17 20  4  0
 17 28  1  0
 18 21  4  0
 21 26  4  0
 22 26  4  0
M  END
$$$$

 Created by Python create_sdf_string function

 28 30  0  0  0  0  0  0  0  0999 V2000
    5.7174   -8.4529   26.7190 C   0  0  0  0  0  0  0  0  0  0  0  0
    0.3974   -7.0711   27.5149 C   0  0  0  0  0  0  0  0  0  0  0  0
    2.5338   -7.6891   16.0102 C   0  0  0  0  0  0  0  0  0  0  0  0
    4.8690   -7.4380   26.4151 C   0  0  0  0  0  0  0  0  0  0  0  0
    2.3021   -5.6726   26.0378 C   0  0  0  0  0  0  0  0  0  0  0  0
    7.0880   -4.6163   27.0010 C   0  0  0  0  0  0  0  0  0  0  0  0
    8.3117   -4.3698   27.4436 C   0  0  0  0  0  0  0  0  0  0  0  0
    1.1339   -5.0515   26.3541 C   0  0  0  0  0  0  0  0  0  0  0  0
    4.8080   -8.0362   16.7101 C   0  0  0  0  0  0  0  0  0  0  0  0
   -1.2173   -3.9294   26.9717 O   0  0  0  0  0  0  0  0  0  0  0  0
   -1.0025   -5.0942   27.4586 C   0  0  0  0  0  0  0  0  0  0  0  0
    2.2474   -8.9123   16.6273 C   0  0  0  0  0  0  0  0  0  0  0  0
    4.4957   -9.2636   17.3041 C   0  0  0  0  0  0  0  0  0  0  0  0
   -1.8070   -5.6086   28.1920 O   0  0  0  0  0  0  0  0  0  0  0  0
   10.4296   -5.1799   28.3140 C   0  0  0  0  0  0  0  0  0  0  0  0
    6.6017   -5.9004   26.9187 C   0  0  0  0  0  0  0  0  0  0  0  0
    2.4761   -6.9940   26.4111 N   0  0  0  0  0  0  0  0  0  0  0  0
    9.1353   -5.4053   27.8239 C   0  0  0  0  0  0  0  0  0  0  0  0
    0.9922   -9.3232   16.5995 O   0  0  0  0  0  0  0  0  0  0  0  0
    1.5232   -7.6869   27.1182 C   0  0  0  0  0  0  0  0  0  0  0  0
    8.6878   -6.6715   27.7262 N   0  0  0  0  0  0  0  0  0  0  0  0
    6.9911   -8.2423   27.1808 C   0  0  0  0  0  0  0  0  0  0  0  0
    3.8436   -7.2758   16.0578 C   0  0  0  0  0  0  0  0  0  0  0  0
    3.1882   -9.7190   17.2566 C   0  0  0  0  0  0  0  0  0  0  0  0
    5.3488   -6.1737   26.5092 C   0  0  0  0  0  0  0  0  0  0  0  0
    7.4567   -6.9464   27.2858 C   0  0  0  0  0  0  0  0  0  0  0  0
    0.1921   -5.7592   27.1123 C   0  0  0  0  0  0  0  0  0  0  0  0
    3.5517   -7.7407   25.9711 C   0  0  0  0  0  0  0  0  0  0  0  0
  1  4  4  0
  1 22  4  0
  2 20  4  0
  2 27  4  0
  3 12  4  0
  3 23  4  0
  4 25  4  0
  4 28  1  0
  5  8  4  0
  5 17  4  0
  6  7  4  0
  6 16  4  0
  7 18  4  0
  8 27  4  0
  9 13  4  0
  9 23  4  0
 10 11  1  0
 11 14  2  0
 11 27  1  0
 12 19  1  0
 12 24  4  0
 13 24  4  0
 15 18  1  0
 16 25  4  0
 16 26  4  0
 17 20  4  0
 17 28  1  0
 18 21  4  0
 21 26  4  0
 22 26  4  0
M  END
$$$$

 Created by Python create_sdf_string function

 28 30  0  0  0  0  0  0  0  0999 V2000
    5.7174   -8.4529   26.7190 C   0  0  0  0  0  0  0  0  0  0  0  0
    0.3974   -7.0711   27.5149 C   0  0  0  0  0  0  0  0  0  0  0  0
    2.5338   -7.6891   16.0102 C   0  0  0  0  0  0  0  0  0  0  0  0
    4.8690   -7.4380   26.4151 C   0  0  0  0  0  0  0  0  0  0  0  0
    2.3021   -5.6726   26.0378 C   0  0  0  0  0  0  0  0  0  0  0  0
    7.0880   -4.6163   27.0010 C   0  0  0  0  0  0  0  0  0  0  0  0
    8.3117   -4.3698   27.4436 C   0  0  0  0  0  0  0  0  0  0  0  0
    1.1339   -5.0515   26.3541 C   0  0  0  0  0  0  0  0  0  0  0  0
    4.8080   -8.0362   16.7101 C   0  0  0  0  0  0  0  0  0  0  0  0
   -1.2173   -3.9294   26.9717 O   0  0  0  0  0  0  0  0  0  0  0  0
   -1.0025   -5.0942   27.4586 C   0  0  0  0  0  0  0  0  0  0  0  0
    2.2474   -8.9123   16.6273 C   0  0  0  0  0  0  0  0  0  0  0  0
    4.4957   -9.2636   17.3041 C   0  0  0  0  0  0  0  0  0  0  0  0
   -1.8070   -5.6086   28.1920 O   0  0  0  0  0  0  0  0  0  0  0  0
   10.4296   -5.1799   28.3140 C   0  0  0  0  0  0  0  0  0  0  0  0
    6.6017   -5.9004   26.9187 C   0  0  0  0  0  0  0  0  0  0  0  0
    2.4761   -6.9940   26.4111 N   0  0  0  0  0  0  0  0  0  0  0  0
    9.1353   -5.4053   27.8239 C   0  0  0  0  0  0  0  0  0  0  0  0
    0.9922   -9.3232   16.5995 O   0  0  0  0  0  0  0  0  0  0  0  0
    1.5232   -7.6869   27.1182 C   0  0  0  0  0  0  0  0  0  0  0  0
    8.6878   -6.6715   27.7262 N   0  0  0  0  0  0  0  0  0  0  0  0
    6.9911   -8.2423   27.1808 C   0  0  0  0  0  0  0  0  0  0  0  0
    3.8436   -7.2758   16.0578 C   0  0  0  0  0  0  0  0  0  0  0  0
    3.1882   -9.7190   17.2566 C   0  0  0  0  0  0  0  0  0  0  0  0
    5.3488   -6.1737   26.5092 C   0  0  0  0  0  0  0  0  0  0  0  0
    7.4567   -6.9464   27.2858 C   0  0  0  0  0  0  0  0  0  0  0  0
    0.1921   -5.7592   27.1123 C   0  0  0  0  0  0  0  0  0  0  0  0
    3.5517   -7.7407   25.9711 C   0  0  0  0  0  0  0  0  0  0  0  0
  1  4  4  0
  1 22  4  0
  2 20  4  0
  2 27  4  0
  3 12  4  0
  3 23  4  0
  4 25  4  0
  4 28  1  0
  5  8  4  0
  5 17  4  0
  6  7  4  0
  6 16  4  0
  7 18  4  0
  8 27  4  0
  9 13  4  0
  9 23  4  0
 10 11  1  0
 11 14  2  0
 11 27  1  0
 12 19  1  0
 12 24  4  0
 13 24  4  0
 15 18  1  0
 16 25  4  0
 16 26  4  0
 17 20  4  0
 17 28  1  0
 18 21  4  0
 21 26  4  0
 22 26  4  0
M  END
$$$$

 Created by Python create_sdf_string function

 28 30  0  0  0  0  0  0  0  0999 V2000
    5.7174   -8.4529   26.7190 C   0  0  0  0  0  0  0  0  0  0  0  0
    0.3974   -7.0711   27.5149 C   0  0  0  0  0  0  0  0  0  0  0  0
    2.5338   -7.6891   16.0102 C   0  0  0  0  0  0  0  0  0  0  0  0
    4.8690   -7.4380   26.4151 C   0  0  0  0  0  0  0  0  0  0  0  0
    2.3021   -5.6726   26.0378 C   0  0  0  0  0  0  0  0  0  0  0  0
    7.0880   -4.6163   27.0010 C   0  0  0  0  0  0  0  0  0  0  0  0
    8.3117   -4.3698   27.4436 C   0  0  0  0  0  0  0  0  0  0  0  0
    1.1339   -5.0515   26.3541 C   0  0  0  0  0  0  0  0  0  0  0  0
    4.8080   -8.0362   16.7101 C   0  0  0  0  0  0  0  0  0  0  0  0
   -1.2173   -3.9294   26.9717 O   0  0  0  0  0  0  0  0  0  0  0  0
   -1.0025   -5.0942   27.4586 C   0  0  0  0  0  0  0  0  0  0  0  0
    2.2474   -8.9123   16.6273 C   0  0  0  0  0  0  0  0  0  0  0  0
    4.4957   -9.2636   17.3041 C   0  0  0  0  0  0  0  0  0  0  0  0
   -1.8070   -5.6086   28.1920 O   0  0  0  0  0  0  0  0  0  0  0  0
   10.4296   -5.1799   28.3140 C   0  0  0  0  0  0  0  0  0  0  0  0
    6.6017   -5.9004   26.9187 C   0  0  0  0  0  0  0  0  0  0  0  0
    2.4761   -6.9940   26.4111 N   0  0  0  0  0  0  0  0  0  0  0  0
    9.1353   -5.4053   27.8239 C   0  0  0  0  0  0  0  0  0  0  0  0
    0.9922   -9.3232   16.5995 O   0  0  0  0  0  0  0  0  0  0  0  0
    1.5232   -7.6869   27.1182 C   0  0  0  0  0  0  0  0  0  0  0  0
    8.6878   -6.6715   27.7262 N   0  0  0  0  0  0  0  0  0  0  0  0
    6.9911   -8.2423   27.1808 C   0  0  0  0  0  0  0  0  0  0  0  0
    3.8436   -7.2758   16.0578 C   0  0  0  0  0  0  0  0  0  0  0  0
    3.1882   -9.7190   17.2566 C   0  0  0  0  0  0  0  0  0  0  0  0
    5.3488   -6.1737   26.5092 C   0  0  0  0  0  0  0  0  0  0  0  0
    7.4567   -6.9464   27.2858 C   0  0  0  0  0  0  0  0  0  0  0  0
    0.1921   -5.7592   27.1123 C   0  0  0  0  0  0  0  0  0  0  0  0
    3.5517   -7.7407   25.9711 C   0  0  0  0  0  0  0  0  0  0  0  0
  1  4  4  0
  1 22  4  0
  2 20  4  0
  2 27  4  0
  3 12  4  0
  3 23  4  0
  4 25  4  0
  4 28  1  0
  5  8  4  0
  5 17  4  0
  6  7  4  0
  6 16  4  0
  7 18  4  0
  8 27  4  0
  9 13  4  0
  9 23  4  0
 10 11  1  0
 11 14  2  0
 11 27  1  0
 12 19  1  0
 12 24  4  0
 13 24  4  0
 15 18  1  0
 16 25  4  0
 16 26  4  0
 17 20  4  0
 17 28  1  0
 18 21  4  0
 21 26  4  0
 22 26  4  0
M  END
$$$$

 Created by Python create_sdf_string function

 28 30  0  0  0  0  0  0  0  0999 V2000
    5.7174   -8.4529   26.7190 C   0  0  0  0  0  0  0  0  0  0  0  0
    0.3974   -7.0711   27.5149 C   0  0  0  0  0  0  0  0  0  0  0  0
    2.5338   -7.6891   16.0102 C   0  0  0  0  0  0  0  0  0  0  0  0
    4.8690   -7.4380   26.4151 C   0  0  0  0  0  0  0  0  0  0  0  0
    2.3021   -5.6726   26.0378 C   0  0  0  0  0  0  0  0  0  0  0  0
    7.0880   -4.6163   27.0010 C   0  0  0  0  0  0  0  0  0  0  0  0
    8.3117   -4.3698   27.4436 C   0  0  0  0  0  0  0  0  0  0  0  0
    1.1339   -5.0515   26.3541 C   0  0  0  0  0  0  0  0  0  0  0  0
    4.8080   -8.0362   16.7101 C   0  0  0  0  0  0  0  0  0  0  0  0
   -1.2173   -3.9294   26.9717 O   0  0  0  0  0  0  0  0  0  0  0  0
   -1.0025   -5.0942   27.4586 C   0  0  0  0  0  0  0  0  0  0  0  0
    2.2474   -8.9123   16.6273 C   0  0  0  0  0  0  0  0  0  0  0  0
    4.4957   -9.2636   17.3041 C   0  0  0  0  0  0  0  0  0  0  0  0
   -1.8070   -5.6086   28.1920 O   0  0  0  0  0  0  0  0  0  0  0  0
   10.4296   -5.1799   28.3140 C   0  0  0  0  0  0  0  0  0  0  0  0
    6.6017   -5.9004   26.9187 C   0  0  0  0  0  0  0  0  0  0  0  0
    2.4761   -6.9940   26.4111 N   0  0  0  0  0  0  0  0  0  0  0  0
    9.1353   -5.4053   27.8239 C   0  0  0  0  0  0  0  0  0  0  0  0
    0.9922   -9.3232   16.5995 O   0  0  0  0  0  0  0  0  0  0  0  0
    1.5232   -7.6869   27.1182 C   0  0  0  0  0  0  0  0  0  0  0  0
    8.6878   -6.6715   27.7262 N   0  0  0  0  0  0  0  0  0  0  0  0
    6.9911   -8.2423   27.1808 C   0  0  0  0  0  0  0  0  0  0  0  0
    3.8436   -7.2758   16.0578 C   0  0  0  0  0  0  0  0  0  0  0  0
    3.1882   -9.7190   17.2566 C   0  0  0  0  0  0  0  0  0  0  0  0
    5.3488   -6.1737   26.5092 C   0  0  0  0  0  0  0  0  0  0  0  0
    7.4567   -6.9464   27.2858 C   0  0  0  0  0  0  0  0  0  0  0  0
    0.1921   -5.7592   27.1123 C   0  0  0  0  0  0  0  0  0  0  0  0
    3.5517   -7.7407   25.9711 C   0  0  0  0  0  0  0  0  0  0  0  0
  1  4  4  0
  1 22  4  0
  2 20  4  0
  2 27  4  0
  3 12  4  0
  3 23  4  0
  4 25  4  0
  4 28  1  0
  5  8  4  0
  5 17  4  0
  6  7  4  0
  6 16  4  0
  7 18  4  0
  8 27  4  0
  9 13  4  0
  9 23  4  0
 10 11  1  0
 11 14  2  0
 11 27  1  0
 12 19  1  0
 12 24  4  0
 13 24  4  0
 15 18  1  0
 16 25  4  0
 16 26  4  0
 17 20  4  0
 17 28  1  0
 18 21  4  0
 21 26  4  0
 22 26  4  0
M  END
$$$$

 Created by Python create_sdf_string function

 28 30  0  0  0  0  0  0  0  0999 V2000
    5.7174   -8.4529   26.7190 C   0  0  0  0  0  0  0  0  0  0  0  0
    0.3974   -7.0711   27.5149 C   0  0  0  0  0  0  0  0  0  0  0  0
    2.5338   -7.6891   16.0102 C   0  0  0  0  0  0  0  0  0  0  0  0
    4.8690   -7.4380   26.4151 C   0  0  0  0  0  0  0  0  0  0  0  0
    2.3021   -5.6726   26.0378 C   0  0  0  0  0  0  0  0  0  0  0  0
    7.0880   -4.6163   27.0010 C   0  0  0  0  0  0  0  0  0  0  0  0
    8.3117   -4.3698   27.4436 C   0  0  0  0  0  0  0  0  0  0  0  0
    1.1339   -5.0515   26.3541 C   0  0  0  0  0  0  0  0  0  0  0  0
    4.8080   -8.0362   16.7101 C   0  0  0  0  0  0  0  0  0  0  0  0
   -1.2173   -3.9294   26.9717 O   0  0  0  0  0  0  0  0  0  0  0  0
   -1.0025   -5.0942   27.4586 C   0  0  0  0  0  0  0  0  0  0  0  0
    2.2474   -8.9123   16.6273 C   0  0  0  0  0  0  0  0  0  0  0  0
    4.4957   -9.2636   17.3041 C   0  0  0  0  0  0  0  0  0  0  0  0
   -1.8070   -5.6086   28.1920 O   0  0  0  0  0  0  0  0  0  0  0  0
   10.4296   -5.1799   28.3140 C   0  0  0  0  0  0  0  0  0  0  0  0
    6.6017   -5.9004   26.9187 C   0  0  0  0  0  0  0  0  0  0  0  0
    2.4761   -6.9940   26.4111 N   0  0  0  0  0  0  0  0  0  0  0  0
    9.1353   -5.4053   27.8239 C   0  0  0  0  0  0  0  0  0  0  0  0
    0.9922   -9.3232   16.5995 O   0  0  0  0  0  0  0  0  0  0  0  0
    1.5232   -7.6869   27.1182 C   0  0  0  0  0  0  0  0  0  0  0  0
    8.6878   -6.6715   27.7262 N   0  0  0  0  0  0  0  0  0  0  0  0
    6.9911   -8.2423   27.1808 C   0  0  0  0  0  0  0  0  0  0  0  0
    3.8436   -7.2758   16.0578 C   0  0  0  0  0  0  0  0  0  0  0  0
    3.1882   -9.7190   17.2566 C   0  0  0  0  0  0  0  0  0  0  0  0
    5.3488   -6.1737   26.5092 C   0  0  0  0  0  0  0  0  0  0  0  0
    7.4567   -6.9464   27.2858 C   0  0  0  0  0  0  0  0  0  0  0  0
    0.1921   -5.7592   27.1123 C   0  0  0  0  0  0  0  0  0  0  0  0
    3.5517   -7.7407   25.9711 C   0  0  0  0  0  0  0  0  0  0  0  0
  1  4  4  0
  1 22  4  0
  2 20  4  0
  2 27  4  0
  3 12  4  0
  3 23  4  0
  4 25  4  0
  4 28  1  0
  5  8  4  0
  5 17  4  0
  6  7  4  0
  6 16  4  0
  7 18  4  0
  8 27  4  0
  9 13  4  0
  9 23  4  0
 10 11  1  0
 11 14  2  0
 11 27  1  0
 12 19  1  0
 12 24  4  0
 13 24  4  0
 15 18  1  0
 16 25  4  0
 16 26  4  0
 17 20  4  0
 17 28  1  0
 18 21  4  0
 21 26  4  0
 22 26  4  0
M  END
$$$$

 Created by Python create_sdf_string function

 28 30  0  0  0  0  0  0  0  0999 V2000
    5.7174   -8.4529   26.7190 C   0  0  0  0  0  0  0  0  0  0  0  0
    0.3974   -7.0711   27.5149 C   0  0  0  0  0  0  0  0  0  0  0  0
    2.5338   -7.6891   16.0102 C   0  0  0  0  0  0  0  0  0  0  0  0
    4.8690   -7.4380   26.4151 C   0  0  0  0  0  0  0  0  0  0  0  0
    2.3021   -5.6726   26.0378 C   0  0  0  0  0  0  0  0  0  0  0  0
    7.0880   -4.6163   27.0010 C   0  0  0  0  0  0  0  0  0  0  0  0
    8.3117   -4.3698   27.4436 C   0  0  0  0  0  0  0  0  0  0  0  0
    1.1339   -5.0515   26.3541 C   0  0  0  0  0  0  0  0  0  0  0  0
    4.8080   -8.0362   16.7101 C   0  0  0  0  0  0  0  0  0  0  0  0
   -1.2173   -3.9294   26.9717 O   0  0  0  0  0  0  0  0  0  0  0  0
   -1.0025   -5.0942   27.4586 C   0  0  0  0  0  0  0  0  0  0  0  0
    2.2474   -8.9123   16.6273 C   0  0  0  0  0  0  0  0  0  0  0  0
    4.4957   -9.2636   17.3041 C   0  0  0  0  0  0  0  0  0  0  0  0
   -1.8070   -5.6086   28.1920 O   0  0  0  0  0  0  0  0  0  0  0  0
   10.4296   -5.1799   28.3140 C   0  0  0  0  0  0  0  0  0  0  0  0
    6.6017   -5.9004   26.9187 C   0  0  0  0  0  0  0  0  0  0  0  0
    2.4761   -6.9940   26.4111 N   0  0  0  0  0  0  0  0  0  0  0  0
    9.1353   -5.4053   27.8239 C   0  0  0  0  0  0  0  0  0  0  0  0
    0.9922   -9.3232   16.5995 O   0  0  0  0  0  0  0  0  0  0  0  0
    1.5232   -7.6869   27.1182 C   0  0  0  0  0  0  0  0  0  0  0  0
    8.6878   -6.6715   27.7262 N   0  0  0  0  0  0  0  0  0  0  0  0
    6.9911   -8.2423   27.1808 C   0  0  0  0  0  0  0  0  0  0  0  0
    3.8436   -7.2758   16.0578 C   0  0  0  0  0  0  0  0  0  0  0  0
    3.1882   -9.7190   17.2566 C   0  0  0  0  0  0  0  0  0  0  0  0
    5.3488   -6.1737   26.5092 C   0  0  0  0  0  0  0  0  0  0  0  0
    7.4567   -6.9464   27.2858 C   0  0  0  0  0  0  0  0  0  0  0  0
    0.1921   -5.7592   27.1123 C   0  0  0  0  0  0  0  0  0  0  0  0
    3.5517   -7.7407   25.9711 C   0  0  0  0  0  0  0  0  0  0  0  0
  1  4  4  0
  1 22  4  0
  2 20  4  0
  2 27  4  0
  3 12  4  0
  3 23  4  0
  4 25  4  0
  4 28  1  0
  5  8  4  0
  5 17  4  0
  6  7  4  0
  6 16  4  0
  7 18  4  0
  8 27  4  0
  9 13  4  0
  9 23  4  0
 10 11  1  0
 11 14  2  0
 11 27  1  0
 12 19  1  0
 12 24  4  0
 13 24  4  0
 15 18  1  0
 16 25  4  0
 16 26  4  0
 17 20  4  0
 17 28  1  0
 18 21  4  0
 21 26  4  0
 22 26  4  0
M  END
$$$$

 Created by Python create_sdf_string function

 28 30  0  0  0  0  0  0  0  0999 V2000
    5.7174   -8.4529   26.7190 C   0  0  0  0  0  0  0  0  0  0  0  0
    0.3974   -7.0711   27.5149 C   0  0  0  0  0  0  0  0  0  0  0  0
    2.5338   -7.6891   16.0102 C   0  0  0  0  0  0  0  0  0  0  0  0
    4.8690   -7.4380   26.4151 C   0  0  0  0  0  0  0  0  0  0  0  0
    2.3021   -5.6726   26.0378 C   0  0  0  0  0  0  0  0  0  0  0  0
    7.0880   -4.6163   27.0010 C   0  0  0  0  0  0  0  0  0  0  0  0
    8.3117   -4.3698   27.4436 C   0  0  0  0  0  0  0  0  0  0  0  0
    1.1339   -5.0515   26.3541 C   0  0  0  0  0  0  0  0  0  0  0  0
    4.8080   -8.0362   16.7101 C   0  0  0  0  0  0  0  0  0  0  0  0
   -1.2173   -3.9294   26.9717 O   0  0  0  0  0  0  0  0  0  0  0  0
   -1.0025   -5.0942   27.4586 C   0  0  0  0  0  0  0  0  0  0  0  0
    2.2474   -8.9123   16.6273 C   0  0  0  0  0  0  0  0  0  0  0  0
    4.4957   -9.2636   17.3041 C   0  0  0  0  0  0  0  0  0  0  0  0
   -1.8070   -5.6086   28.1920 O   0  0  0  0  0  0  0  0  0  0  0  0
   10.4296   -5.1799   28.3140 C   0  0  0  0  0  0  0  0  0  0  0  0
    6.6017   -5.9004   26.9187 C   0  0  0  0  0  0  0  0  0  0  0  0
    2.4761   -6.9940   26.4111 N   0  0  0  0  0  0  0  0  0  0  0  0
    9.1353   -5.4053   27.8239 C   0  0  0  0  0  0  0  0  0  0  0  0
    0.9922   -9.3232   16.5995 O   0  0  0  0  0  0  0  0  0  0  0  0
    1.5232   -7.6869   27.1182 C   0  0  0  0  0  0  0  0  0  0  0  0
    8.6878   -6.6715   27.7262 N   0  0  0  0  0  0  0  0  0  0  0  0
    6.9911   -8.2423   27.1808 C   0  0  0  0  0  0  0  0  0  0  0  0
    3.8436   -7.2758   16.0578 C   0  0  0  0  0  0  0  0  0  0  0  0
    3.1882   -9.7190   17.2566 C   0  0  0  0  0  0  0  0  0  0  0  0
    5.3488   -6.1737   26.5092 C   0  0  0  0  0  0  0  0  0  0  0  0
    7.4567   -6.9464   27.2858 C   0  0  0  0  0  0  0  0  0  0  0  0
    0.1921   -5.7592   27.1123 C   0  0  0  0  0  0  0  0  0  0  0  0
    3.5517   -7.7407   25.9711 C   0  0  0  0  0  0  0  0  0  0  0  0
  1  4  4  0
  1 22  4  0
  2 20  4  0
  2 27  4  0
  3 12  4  0
  3 23  4  0
  4 25  4  0
  4 28  1  0
  5  8  4  0
  5 17  4  0
  6  7  4  0
  6 16  4  0
  7 18  4  0
  8 27  4  0
  9 13  4  0
  9 23  4  0
 10 11  1  0
 11 14  2  0
 11 27  1  0
 12 19  1  0
 12 24  4  0
 13 24  4  0
 15 18  1  0
 16 25  4  0
 16 26  4  0
 17 20  4  0
 17 28  1  0
 18 21  4  0
 21 26  4  0
 22 26  4  0
M  END
$$$$

 Created by Python create_sdf_string function

 28 30  0  0  0  0  0  0  0  0999 V2000
    5.7174   -8.4529   26.7190 C   0  0  0  0  0  0  0  0  0  0  0  0
    0.3974   -7.0711   27.5149 C   0  0  0  0  0  0  0  0  0  0  0  0
    2.5338   -7.6891   16.0102 C   0  0  0  0  0  0  0  0  0  0  0  0
    4.8690   -7.4380   26.4151 C   0  0  0  0  0  0  0  0  0  0  0  0
    2.3021   -5.6726   26.0378 C   0  0  0  0  0  0  0  0  0  0  0  0
    7.0880   -4.6163   27.0010 C   0  0  0  0  0  0  0  0  0  0  0  0
    8.3117   -4.3698   27.4436 C   0  0  0  0  0  0  0  0  0  0  0  0
    1.1339   -5.0515   26.3541 C   0  0  0  0  0  0  0  0  0  0  0  0
    4.8080   -8.0362   16.7101 C   0  0  0  0  0  0  0  0  0  0  0  0
   -1.2173   -3.9294   26.9717 O   0  0  0  0  0  0  0  0  0  0  0  0
   -1.0025   -5.0942   27.4586 C   0  0  0  0  0  0  0  0  0  0  0  0
    2.2474   -8.9123   16.6273 C   0  0  0  0  0  0  0  0  0  0  0  0
    4.4957   -9.2636   17.3041 C   0  0  0  0  0  0  0  0  0  0  0  0
   -1.8070   -5.6086   28.1920 O   0  0  0  0  0  0  0  0  0  0  0  0
   10.4296   -5.1799   28.3140 C   0  0  0  0  0  0  0  0  0  0  0  0
    6.6017   -5.9004   26.9187 C   0  0  0  0  0  0  0  0  0  0  0  0
    2.4761   -6.9940   26.4111 N   0  0  0  0  0  0  0  0  0  0  0  0
    9.1353   -5.4053   27.8239 C   0  0  0  0  0  0  0  0  0  0  0  0
    0.9922   -9.3232   16.5995 O   0  0  0  0  0  0  0  0  0  0  0  0
    1.5232   -7.6869   27.1182 C   0  0  0  0  0  0  0  0  0  0  0  0
    8.6878   -6.6715   27.7262 N   0  0  0  0  0  0  0  0  0  0  0  0
    6.9911   -8.2423   27.1808 C   0  0  0  0  0  0  0  0  0  0  0  0
    3.8436   -7.2758   16.0578 C   0  0  0  0  0  0  0  0  0  0  0  0
    3.1882   -9.7190   17.2566 C   0  0  0  0  0  0  0  0  0  0  0  0
    5.3488   -6.1737   26.5092 C   0  0  0  0  0  0  0  0  0  0  0  0
    7.4567   -6.9464   27.2858 C   0  0  0  0  0  0  0  0  0  0  0  0
    0.1921   -5.7592   27.1123 C   0  0  0  0  0  0  0  0  0  0  0  0
    3.5517   -7.7407   25.9711 C   0  0  0  0  0  0  0  0  0  0  0  0
  1  4  4  0
  1 22  4  0
  2 20  4  0
  2 27  4  0
  3 12  4  0
  3 23  4  0
  4 25  4  0
  4 28  1  0
  5  8  4  0
  5 17  4  0
  6  7  4  0
  6 16  4  0
  7 18  4  0
  8 27  4  0
  9 13  4  0
  9 23  4  0
 10 11  1  0
 11 14  2  0
 11 27  1  0
 12 19  1  0
 12 24  4  0
 13 24  4  0
 15 18  1  0
 16 25  4  0
 16 26  4  0
 17 20  4  0
 17 28  1  0
 18 21  4  0
 21 26  4  0
 22 26  4  0
M  END
$$$$

 Created by Python create_sdf_string function

 28 30  0  0  0  0  0  0  0  0999 V2000
    5.7174   -8.4529   26.7190 C   0  0  0  0  0  0  0  0  0  0  0  0
    0.3974   -7.0711   27.5149 C   0  0  0  0  0  0  0  0  0  0  0  0
    2.5338   -7.6891   16.0102 C   0  0  0  0  0  0  0  0  0  0  0  0
    4.8690   -7.4380   26.4151 C   0  0  0  0  0  0  0  0  0  0  0  0
    2.3021   -5.6726   26.0378 C   0  0  0  0  0  0  0  0  0  0  0  0
    7.0880   -4.6163   27.0010 C   0  0  0  0  0  0  0  0  0  0  0  0
    8.3117   -4.3698   27.4436 C   0  0  0  0  0  0  0  0  0  0  0  0
    1.1339   -5.0515   26.3541 C   0  0  0  0  0  0  0  0  0  0  0  0
    4.8080   -8.0362   16.7101 C   0  0  0  0  0  0  0  0  0  0  0  0
   -1.2173   -3.9294   26.9717 O   0  0  0  0  0  0  0  0  0  0  0  0
   -1.0025   -5.0942   27.4586 C   0  0  0  0  0  0  0  0  0  0  0  0
    2.2474   -8.9123   16.6273 C   0  0  0  0  0  0  0  0  0  0  0  0
    4.4957   -9.2636   17.3041 C   0  0  0  0  0  0  0  0  0  0  0  0
   -1.8070   -5.6086   28.1920 O   0  0  0  0  0  0  0  0  0  0  0  0
   10.4296   -5.1799   28.3140 C   0  0  0  0  0  0  0  0  0  0  0  0
    6.6017   -5.9004   26.9187 C   0  0  0  0  0  0  0  0  0  0  0  0
    2.4761   -6.9940   26.4111 N   0  0  0  0  0  0  0  0  0  0  0  0
    9.1353   -5.4053   27.8239 C   0  0  0  0  0  0  0  0  0  0  0  0
    0.9922   -9.3232   16.5995 O   0  0  0  0  0  0  0  0  0  0  0  0
    1.5232   -7.6869   27.1182 C   0  0  0  0  0  0  0  0  0  0  0  0
    8.6878   -6.6715   27.7262 N   0  0  0  0  0  0  0  0  0  0  0  0
    6.9911   -8.2423   27.1808 C   0  0  0  0  0  0  0  0  0  0  0  0
    3.8436   -7.2758   16.0578 C   0  0  0  0  0  0  0  0  0  0  0  0
    3.1882   -9.7190   17.2566 C   0  0  0  0  0  0  0  0  0  0  0  0
    5.3488   -6.1737   26.5092 C   0  0  0  0  0  0  0  0  0  0  0  0
    7.4567   -6.9464   27.2858 C   0  0  0  0  0  0  0  0  0  0  0  0
    0.1921   -5.7592   27.1123 C   0  0  0  0  0  0  0  0  0  0  0  0
    3.5517   -7.7407   25.9711 C   0  0  0  0  0  0  0  0  0  0  0  0
  1  4  4  0
  1 22  4  0
  2 20  4  0
  2 27  4  0
  3 12  4  0
  3 23  4  0
  4 25  4  0
  4 28  1  0
  5  8  4  0
  5 17  4  0
  6  7  4  0
  6 16  4  0
  7 18  4  0
  8 27  4  0
  9 13  4  0
  9 23  4  0
 10 11  1  0
 11 14  2  0
 11 27  1  0
 12 19  1  0
 12 24  4  0
 13 24  4  0
 15 18  1  0
 16 25  4  0
 16 26  4  0
 17 20  4  0
 17 28  1  0
 18 21  4  0
 21 26  4  0
 22 26  4  0
M  END
$$$$

 Created by Python create_sdf_string function

 28 30  0  0  0  0  0  0  0  0999 V2000
    5.7174   -8.4529   26.7190 C   0  0  0  0  0  0  0  0  0  0  0  0
    0.3974   -7.0711   27.5149 C   0  0  0  0  0  0  0  0  0  0  0  0
    2.5338   -7.6891   16.0102 C   0  0  0  0  0  0  0  0  0  0  0  0
    4.8690   -7.4380   26.4151 C   0  0  0  0  0  0  0  0  0  0  0  0
    2.3021   -5.6726   26.0378 C   0  0  0  0  0  0  0  0  0  0  0  0
    7.0880   -4.6163   27.0010 C   0  0  0  0  0  0  0  0  0  0  0  0
    8.3117   -4.3698   27.4436 C   0  0  0  0  0  0  0  0  0  0  0  0
    1.1339   -5.0515   26.3541 C   0  0  0  0  0  0  0  0  0  0  0  0
    4.8080   -8.0362   16.7101 C   0  0  0  0  0  0  0  0  0  0  0  0
   -1.2173   -3.9294   26.9717 O   0  0  0  0  0  0  0  0  0  0  0  0
   -1.0025   -5.0942   27.4586 C   0  0  0  0  0  0  0  0  0  0  0  0
    2.2474   -8.9123   16.6273 C   0  0  0  0  0  0  0  0  0  0  0  0
    4.4957   -9.2636   17.3041 C   0  0  0  0  0  0  0  0  0  0  0  0
   -1.8070   -5.6086   28.1920 O   0  0  0  0  0  0  0  0  0  0  0  0
   10.4296   -5.1799   28.3140 C   0  0  0  0  0  0  0  0  0  0  0  0
    6.6017   -5.9004   26.9187 C   0  0  0  0  0  0  0  0  0  0  0  0
    2.4761   -6.9940   26.4111 N   0  0  0  0  0  0  0  0  0  0  0  0
    9.1353   -5.4053   27.8239 C   0  0  0  0  0  0  0  0  0  0  0  0
    0.9922   -9.3232   16.5995 O   0  0  0  0  0  0  0  0  0  0  0  0
    1.5232   -7.6869   27.1182 C   0  0  0  0  0  0  0  0  0  0  0  0
    8.6878   -6.6715   27.7262 N   0  0  0  0  0  0  0  0  0  0  0  0
    6.9911   -8.2423   27.1808 C   0  0  0  0  0  0  0  0  0  0  0  0
    3.8436   -7.2758   16.0578 C   0  0  0  0  0  0  0  0  0  0  0  0
    3.1882   -9.7190   17.2566 C   0  0  0  0  0  0  0  0  0  0  0  0
    5.3488   -6.1737   26.5092 C   0  0  0  0  0  0  0  0  0  0  0  0
    7.4567   -6.9464   27.2858 C   0  0  0  0  0  0  0  0  0  0  0  0
    0.1921   -5.7592   27.1123 C   0  0  0  0  0  0  0  0  0  0  0  0
    3.5517   -7.7407   25.9711 C   0  0  0  0  0  0  0  0  0  0  0  0
  1  4  4  0
  1 22  4  0
  2 20  4  0
  2 27  4  0
  3 12  4  0
  3 23  4  0
  4 25  4  0
  4 28  1  0
  5  8  4  0
  5 17  4  0
  6  7  4  0
  6 16  4  0
  7 18  4  0
  8 27  4  0
  9 13  4  0
  9 23  4  0
 10 11  1  0
 11 14  2  0
 11 27  1  0
 12 19  1  0
 12 24  4  0
 13 24  4  0
 15 18  1  0
 16 25  4  0
 16 26  4  0
 17 20  4  0
 17 28  1  0
 18 21  4  0
 21 26  4  0
 22 26  4  0
M  END
$$$$

 Created by Python create_sdf_string function

 28 30  0  0  0  0  0  0  0  0999 V2000
    5.7174   -8.4529   26.7190 C   0  0  0  0  0  0  0  0  0  0  0  0
    0.3974   -7.0711   27.5149 C   0  0  0  0  0  0  0  0  0  0  0  0
    2.5338   -7.6891   16.0102 C   0  0  0  0  0  0  0  0  0  0  0  0
    4.8690   -7.4380   26.4151 C   0  0  0  0  0  0  0  0  0  0  0  0
    2.3021   -5.6726   26.0378 C   0  0  0  0  0  0  0  0  0  0  0  0
    7.0880   -4.6163   27.0010 C   0  0  0  0  0  0  0  0  0  0  0  0
    8.3117   -4.3698   27.4436 C   0  0  0  0  0  0  0  0  0  0  0  0
    1.1339   -5.0515   26.3541 C   0  0  0  0  0  0  0  0  0  0  0  0
    4.8080   -8.0362   16.7101 C   0  0  0  0  0  0  0  0  0  0  0  0
   -1.2173   -3.9294   26.9717 O   0  0  0  0  0  0  0  0  0  0  0  0
   -1.0025   -5.0942   27.4586 C   0  0  0  0  0  0  0  0  0  0  0  0
    2.2474   -8.9123   16.6273 C   0  0  0  0  0  0  0  0  0  0  0  0
    4.4957   -9.2636   17.3041 C   0  0  0  0  0  0  0  0  0  0  0  0
   -1.8070   -5.6086   28.1920 O   0  0  0  0  0  0  0  0  0  0  0  0
   10.4296   -5.1799   28.3140 C   0  0  0  0  0  0  0  0  0  0  0  0
    6.6017   -5.9004   26.9187 C   0  0  0  0  0  0  0  0  0  0  0  0
    2.4761   -6.9940   26.4111 N   0  0  0  0  0  0  0  0  0  0  0  0
    9.1353   -5.4053   27.8239 C   0  0  0  0  0  0  0  0  0  0  0  0
    0.9922   -9.3232   16.5995 O   0  0  0  0  0  0  0  0  0  0  0  0
    1.5232   -7.6869   27.1182 C   0  0  0  0  0  0  0  0  0  0  0  0
    8.6878   -6.6715   27.7262 N   0  0  0  0  0  0  0  0  0  0  0  0
    6.9911   -8.2423   27.1808 C   0  0  0  0  0  0  0  0  0  0  0  0
    3.8436   -7.2758   16.0578 C   0  0  0  0  0  0  0  0  0  0  0  0
    3.1882   -9.7190   17.2566 C   0  0  0  0  0  0  0  0  0  0  0  0
    5.3488   -6.1737   26.5092 C   0  0  0  0  0  0  0  0  0  0  0  0
    7.4567   -6.9464   27.2858 C   0  0  0  0  0  0  0  0  0  0  0  0
    0.1921   -5.7592   27.1123 C   0  0  0  0  0  0  0  0  0  0  0  0
    3.5517   -7.7407   25.9711 C   0  0  0  0  0  0  0  0  0  0  0  0
  1  4  4  0
  1 22  4  0
  2 20  4  0
  2 27  4  0
  3 12  4  0
  3 23  4  0
  4 25  4  0
  4 28  1  0
  5  8  4  0
  5 17  4  0
  6  7  4  0
  6 16  4  0
  7 18  4  0
  8 27  4  0
  9 13  4  0
  9 23  4  0
 10 11  1  0
 11 14  2  0
 11 27  1  0
 12 19  1  0
 12 24  4  0
 13 24  4  0
 15 18  1  0
 16 25  4  0
 16 26  4  0
 17 20  4  0
 17 28  1  0
 18 21  4  0
 21 26  4  0
 22 26  4  0
M  END
$$$$

 Created by Python create_sdf_string function

 28 30  0  0  0  0  0  0  0  0999 V2000
    5.7174   -8.4529   26.7190 C   0  0  0  0  0  0  0  0  0  0  0  0
    0.3974   -7.0711   27.5149 C   0  0  0  0  0  0  0  0  0  0  0  0
    2.5338   -7.6891   16.0102 C   0  0  0  0  0  0  0  0  0  0  0  0
    4.8690   -7.4380   26.4151 C   0  0  0  0  0  0  0  0  0  0  0  0
    2.3021   -5.6726   26.0378 C   0  0  0  0  0  0  0  0  0  0  0  0
    7.0880   -4.6163   27.0010 C   0  0  0  0  0  0  0  0  0  0  0  0
    8.3117   -4.3698   27.4436 C   0  0  0  0  0  0  0  0  0  0  0  0
    1.1339   -5.0515   26.3541 C   0  0  0  0  0  0  0  0  0  0  0  0
    4.8080   -8.0362   16.7101 C   0  0  0  0  0  0  0  0  0  0  0  0
   -1.2173   -3.9294   26.9717 O   0  0  0  0  0  0  0  0  0  0  0  0
   -1.0025   -5.0942   27.4586 C   0  0  0  0  0  0  0  0  0  0  0  0
    2.2474   -8.9123   16.6273 C   0  0  0  0  0  0  0  0  0  0  0  0
    4.4957   -9.2636   17.3041 C   0  0  0  0  0  0  0  0  0  0  0  0
   -1.8070   -5.6086   28.1920 O   0  0  0  0  0  0  0  0  0  0  0  0
   10.4296   -5.1799   28.3140 C   0  0  0  0  0  0  0  0  0  0  0  0
    6.6017   -5.9004   26.9187 C   0  0  0  0  0  0  0  0  0  0  0  0
    2.4761   -6.9940   26.4111 N   0  0  0  0  0  0  0  0  0  0  0  0
    9.1353   -5.4053   27.8239 C   0  0  0  0  0  0  0  0  0  0  0  0
    0.9922   -9.3232   16.5995 O   0  0  0  0  0  0  0  0  0  0  0  0
    1.5232   -7.6869   27.1182 C   0  0  0  0  0  0  0  0  0  0  0  0
    8.6878   -6.6715   27.7262 N   0  0  0  0  0  0  0  0  0  0  0  0
    6.9911   -8.2423   27.1808 C   0  0  0  0  0  0  0  0  0  0  0  0
    3.8436   -7.2758   16.0578 C   0  0  0  0  0  0  0  0  0  0  0  0
    3.1882   -9.7190   17.2566 C   0  0  0  0  0  0  0  0  0  0  0  0
    5.3488   -6.1737   26.5092 C   0  0  0  0  0  0  0  0  0  0  0  0
    7.4567   -6.9464   27.2858 C   0  0  0  0  0  0  0  0  0  0  0  0
    0.1921   -5.7592   27.1123 C   0  0  0  0  0  0  0  0  0  0  0  0
    3.5517   -7.7407   25.9711 C   0  0  0  0  0  0  0  0  0  0  0  0
  1  4  4  0
  1 22  4  0
  2 20  4  0
  2 27  4  0
  3 12  4  0
  3 23  4  0
  4 25  4  0
  4 28  1  0
  5  8  4  0
  5 17  4  0
  6  7  4  0
  6 16  4  0
  7 18  4  0
  8 27  4  0
  9 13  4  0
  9 23  4  0
 10 11  1  0
 11 14  2  0
 11 27  1  0
 12 19  1  0
 12 24  4  0
 13 24  4  0
 15 18  1  0
 16 25  4  0
 16 26  4  0
 17 20  4  0
 17 28  1  0
 18 21  4  0
 21 26  4  0
 22 26  4  0
M  END
$$$$

 Created by Python create_sdf_string function

 28 30  0  0  0  0  0  0  0  0999 V2000
    5.7174   -8.4529   26.7190 C   0  0  0  0  0  0  0  0  0  0  0  0
    0.3974   -7.0711   27.5149 C   0  0  0  0  0  0  0  0  0  0  0  0
    2.5338   -7.6891   16.0102 C   0  0  0  0  0  0  0  0  0  0  0  0
    4.8690   -7.4380   26.4151 C   0  0  0  0  0  0  0  0  0  0  0  0
    2.3021   -5.6726   26.0378 C   0  0  0  0  0  0  0  0  0  0  0  0
    7.0880   -4.6163   27.0010 C   0  0  0  0  0  0  0  0  0  0  0  0
    8.3117   -4.3698   27.4436 C   0  0  0  0  0  0  0  0  0  0  0  0
    1.1339   -5.0515   26.3541 C   0  0  0  0  0  0  0  0  0  0  0  0
    4.8080   -8.0362   16.7101 C   0  0  0  0  0  0  0  0  0  0  0  0
   -1.2173   -3.9294   26.9717 O   0  0  0  0  0  0  0  0  0  0  0  0
   -1.0025   -5.0942   27.4586 C   0  0  0  0  0  0  0  0  0  0  0  0
    2.2474   -8.9123   16.6273 C   0  0  0  0  0  0  0  0  0  0  0  0
    4.4957   -9.2636   17.3041 C   0  0  0  0  0  0  0  0  0  0  0  0
   -1.8070   -5.6086   28.1920 O   0  0  0  0  0  0  0  0  0  0  0  0
   10.4296   -5.1799   28.3140 C   0  0  0  0  0  0  0  0  0  0  0  0
    6.6017   -5.9004   26.9187 C   0  0  0  0  0  0  0  0  0  0  0  0
    2.4761   -6.9940   26.4111 N   0  0  0  0  0  0  0  0  0  0  0  0
    9.1353   -5.4053   27.8239 C   0  0  0  0  0  0  0  0  0  0  0  0
    0.9922   -9.3232   16.5995 O   0  0  0  0  0  0  0  0  0  0  0  0
    1.5232   -7.6869   27.1182 C   0  0  0  0  0  0  0  0  0  0  0  0
    8.6878   -6.6715   27.7262 N   0  0  0  0  0  0  0  0  0  0  0  0
    6.9911   -8.2423   27.1808 C   0  0  0  0  0  0  0  0  0  0  0  0
    3.8436   -7.2758   16.0578 C   0  0  0  0  0  0  0  0  0  0  0  0
    3.1882   -9.7190   17.2566 C   0  0  0  0  0  0  0  0  0  0  0  0
    5.3488   -6.1737   26.5092 C   0  0  0  0  0  0  0  0  0  0  0  0
    7.4567   -6.9464   27.2858 C   0  0  0  0  0  0  0  0  0  0  0  0
    0.1921   -5.7592   27.1123 C   0  0  0  0  0  0  0  0  0  0  0  0
    3.5517   -7.7407   25.9711 C   0  0  0  0  0  0  0  0  0  0  0  0
  1  4  4  0
  1 22  4  0
  2 20  4  0
  2 27  4  0
  3 12  4  0
  3 23  4  0
  4 25  4  0
  4 28  1  0
  5  8  4  0
  5 17  4  0
  6  7  4  0
  6 16  4  0
  7 18  4  0
  8 27  4  0
  9 13  4  0
  9 23  4  0
 10 11  1  0
 11 14  2  0
 11 27  1  0
 12 19  1  0
 12 24  4  0
 13 24  4  0
 15 18  1  0
 16 25  4  0
 16 26  4  0
 17 20  4  0
 17 28  1  0
 18 21  4  0
 21 26  4  0
 22 26  4  0
M  END
$$$$

 Created by Python create_sdf_string function

 28 30  0  0  0  0  0  0  0  0999 V2000
    5.7174   -8.4529   26.7190 C   0  0  0  0  0  0  0  0  0  0  0  0
    0.3974   -7.0711   27.5149 C   0  0  0  0  0  0  0  0  0  0  0  0
    2.5338   -7.6891   16.0102 C   0  0  0  0  0  0  0  0  0  0  0  0
    4.8690   -7.4380   26.4151 C   0  0  0  0  0  0  0  0  0  0  0  0
    2.3021   -5.6726   26.0378 C   0  0  0  0  0  0  0  0  0  0  0  0
    7.0880   -4.6163   27.0010 C   0  0  0  0  0  0  0  0  0  0  0  0
    8.3117   -4.3698   27.4436 C   0  0  0  0  0  0  0  0  0  0  0  0
    1.1339   -5.0515   26.3541 C   0  0  0  0  0  0  0  0  0  0  0  0
    4.8080   -8.0362   16.7101 C   0  0  0  0  0  0  0  0  0  0  0  0
   -1.2173   -3.9294   26.9717 O   0  0  0  0  0  0  0  0  0  0  0  0
   -1.0025   -5.0942   27.4586 C   0  0  0  0  0  0  0  0  0  0  0  0
    2.2474   -8.9123   16.6273 C   0  0  0  0  0  0  0  0  0  0  0  0
    4.4957   -9.2636   17.3041 C   0  0  0  0  0  0  0  0  0  0  0  0
   -1.8070   -5.6086   28.1920 O   0  0  0  0  0  0  0  0  0  0  0  0
   10.4296   -5.1799   28.3140 C   0  0  0  0  0  0  0  0  0  0  0  0
    6.6017   -5.9004   26.9187 C   0  0  0  0  0  0  0  0  0  0  0  0
    2.4761   -6.9940   26.4111 N   0  0  0  0  0  0  0  0  0  0  0  0
    9.1353   -5.4053   27.8239 C   0  0  0  0  0  0  0  0  0  0  0  0
    0.9922   -9.3232   16.5995 O   0  0  0  0  0  0  0  0  0  0  0  0
    1.5232   -7.6869   27.1182 C   0  0  0  0  0  0  0  0  0  0  0  0
    8.6878   -6.6715   27.7262 N   0  0  0  0  0  0  0  0  0  0  0  0
    6.9911   -8.2423   27.1808 C   0  0  0  0  0  0  0  0  0  0  0  0
    3.8436   -7.2758   16.0578 C   0  0  0  0  0  0  0  0  0  0  0  0
    3.1882   -9.7190   17.2566 C   0  0  0  0  0  0  0  0  0  0  0  0
    5.3488   -6.1737   26.5092 C   0  0  0  0  0  0  0  0  0  0  0  0
    7.4567   -6.9464   27.2858 C   0  0  0  0  0  0  0  0  0  0  0  0
    0.1921   -5.7592   27.1123 C   0  0  0  0  0  0  0  0  0  0  0  0
    3.5517   -7.7407   25.9711 C   0  0  0  0  0  0  0  0  0  0  0  0
  1  4  4  0
  1 22  4  0
  2 20  4  0
  2 27  4  0
  3 12  4  0
  3 23  4  0
  4 25  4  0
  4 28  1  0
  5  8  4  0
  5 17  4  0
  6  7  4  0
  6 16  4  0
  7 18  4  0
  8 27  4  0
  9 13  4  0
  9 23  4  0
 10 11  1  0
 11 14  2  0
 11 27  1  0
 12 19  1  0
 12 24  4  0
 13 24  4  0
 15 18  1  0
 16 25  4  0
 16 26  4  0
 17 20  4  0
 17 28  1  0
 18 21  4  0
 21 26  4  0
 22 26  4  0
M  END
$$$$

 Created by Python create_sdf_string function

 28 30  0  0  0  0  0  0  0  0999 V2000
    5.7174   -8.4529   26.7190 C   0  0  0  0  0  0  0  0  0  0  0  0
    0.3974   -7.0711   27.5149 C   0  0  0  0  0  0  0  0  0  0  0  0
    2.5338   -7.6891   16.0102 C   0  0  0  0  0  0  0  0  0  0  0  0
    4.8690   -7.4380   26.4151 C   0  0  0  0  0  0  0  0  0  0  0  0
    2.3021   -5.6726   26.0378 C   0  0  0  0  0  0  0  0  0  0  0  0
    7.0880   -4.6163   27.0010 C   0  0  0  0  0  0  0  0  0  0  0  0
    8.3117   -4.3698   27.4436 C   0  0  0  0  0  0  0  0  0  0  0  0
    1.1339   -5.0515   26.3541 C   0  0  0  0  0  0  0  0  0  0  0  0
    4.8080   -8.0362   16.7101 C   0  0  0  0  0  0  0  0  0  0  0  0
   -1.2173   -3.9294   26.9717 O   0  0  0  0  0  0  0  0  0  0  0  0
   -1.0025   -5.0942   27.4586 C   0  0  0  0  0  0  0  0  0  0  0  0
    2.2474   -8.9123   16.6273 C   0  0  0  0  0  0  0  0  0  0  0  0
    4.4957   -9.2636   17.3041 C   0  0  0  0  0  0  0  0  0  0  0  0
   -1.8070   -5.6086   28.1920 O   0  0  0  0  0  0  0  0  0  0  0  0
   10.4296   -5.1799   28.3140 C   0  0  0  0  0  0  0  0  0  0  0  0
    6.6017   -5.9004   26.9187 C   0  0  0  0  0  0  0  0  0  0  0  0
    2.4761   -6.9940   26.4111 N   0  0  0  0  0  0  0  0  0  0  0  0
    9.1353   -5.4053   27.8239 C   0  0  0  0  0  0  0  0  0  0  0  0
    0.9922   -9.3232   16.5995 O   0  0  0  0  0  0  0  0  0  0  0  0
    1.5232   -7.6869   27.1182 C   0  0  0  0  0  0  0  0  0  0  0  0
    8.6878   -6.6715   27.7262 N   0  0  0  0  0  0  0  0  0  0  0  0
    6.9911   -8.2423   27.1808 C   0  0  0  0  0  0  0  0  0  0  0  0
    3.8436   -7.2758   16.0578 C   0  0  0  0  0  0  0  0  0  0  0  0
    3.1882   -9.7190   17.2566 C   0  0  0  0  0  0  0  0  0  0  0  0
    5.3488   -6.1737   26.5092 C   0  0  0  0  0  0  0  0  0  0  0  0
    7.4567   -6.9464   27.2858 C   0  0  0  0  0  0  0  0  0  0  0  0
    0.1921   -5.7592   27.1123 C   0  0  0  0  0  0  0  0  0  0  0  0
    3.5517   -7.7407   25.9711 C   0  0  0  0  0  0  0  0  0  0  0  0
  1  4  4  0
  1 22  4  0
  2 20  4  0
  2 27  4  0
  3 12  4  0
  3 23  4  0
  4 25  4  0
  4 28  1  0
  5  8  4  0
  5 17  4  0
  6  7  4  0
  6 16  4  0
  7 18  4  0
  8 27  4  0
  9 13  4  0
  9 23  4  0
 10 11  1  0
 11 14  2  0
 11 27  1  0
 12 19  1  0
 12 24  4  0
 13 24  4  0
 15 18  1  0
 16 25  4  0
 16 26  4  0
 17 20  4  0
 17 28  1  0
 18 21  4  0
 21 26  4  0
 22 26  4  0
M  END
$$$$

 Created by Python create_sdf_string function

 28 30  0  0  0  0  0  0  0  0999 V2000
    5.7174   -8.4529   26.7190 C   0  0  0  0  0  0  0  0  0  0  0  0
    0.3974   -7.0711   27.5149 C   0  0  0  0  0  0  0  0  0  0  0  0
    2.5338   -7.6891   16.0102 C   0  0  0  0  0  0  0  0  0  0  0  0
    4.8690   -7.4380   26.4151 C   0  0  0  0  0  0  0  0  0  0  0  0
    2.3021   -5.6726   26.0378 C   0  0  0  0  0  0  0  0  0  0  0  0
    7.0880   -4.6163   27.0010 C   0  0  0  0  0  0  0  0  0  0  0  0
    8.3117   -4.3698   27.4436 C   0  0  0  0  0  0  0  0  0  0  0  0
    1.1339   -5.0515   26.3541 C   0  0  0  0  0  0  0  0  0  0  0  0
    4.8080   -8.0362   16.7101 C   0  0  0  0  0  0  0  0  0  0  0  0
   -1.2173   -3.9294   26.9717 O   0  0  0  0  0  0  0  0  0  0  0  0
   -1.0025   -5.0942   27.4586 C   0  0  0  0  0  0  0  0  0  0  0  0
    2.2474   -8.9123   16.6273 C   0  0  0  0  0  0  0  0  0  0  0  0
    4.4957   -9.2636   17.3041 C   0  0  0  0  0  0  0  0  0  0  0  0
   -1.8070   -5.6086   28.1920 O   0  0  0  0  0  0  0  0  0  0  0  0
   10.4296   -5.1799   28.3140 C   0  0  0  0  0  0  0  0  0  0  0  0
    6.6017   -5.9004   26.9187 C   0  0  0  0  0  0  0  0  0  0  0  0
    2.4761   -6.9940   26.4111 N   0  0  0  0  0  0  0  0  0  0  0  0
    9.1353   -5.4053   27.8239 C   0  0  0  0  0  0  0  0  0  0  0  0
    0.9922   -9.3232   16.5995 O   0  0  0  0  0  0  0  0  0  0  0  0
    1.5232   -7.6869   27.1182 C   0  0  0  0  0  0  0  0  0  0  0  0
    8.6878   -6.6715   27.7262 N   0  0  0  0  0  0  0  0  0  0  0  0
    6.9911   -8.2423   27.1808 C   0  0  0  0  0  0  0  0  0  0  0  0
    3.8436   -7.2758   16.0578 C   0  0  0  0  0  0  0  0  0  0  0  0
    3.1882   -9.7190   17.2566 C   0  0  0  0  0  0  0  0  0  0  0  0
    5.3488   -6.1737   26.5092 C   0  0  0  0  0  0  0  0  0  0  0  0
    7.4567   -6.9464   27.2858 C   0  0  0  0  0  0  0  0  0  0  0  0
    0.1921   -5.7592   27.1123 C   0  0  0  0  0  0  0  0  0  0  0  0
    3.5517   -7.7407   25.9711 C   0  0  0  0  0  0  0  0  0  0  0  0
  1  4  4  0
  1 22  4  0
  2 20  4  0
  2 27  4  0
  3 12  4  0
  3 23  4  0
  4 25  4  0
  4 28  1  0
  5  8  4  0
  5 17  4  0
  6  7  4  0
  6 16  4  0
  7 18  4  0
  8 27  4  0
  9 13  4  0
  9 23  4  0
 10 11  1  0
 11 14  2  0
 11 27  1  0
 12 19  1  0
 12 24  4  0
 13 24  4  0
 15 18  1  0
 16 25  4  0
 16 26  4  0
 17 20  4  0
 17 28  1  0
 18 21  4  0
 21 26  4  0
 22 26  4  0
M  END
$$$$

 Created by Python create_sdf_string function

 28 30  0  0  0  0  0  0  0  0999 V2000
    5.7174   -8.4529   26.7190 C   0  0  0  0  0  0  0  0  0  0  0  0
    0.3974   -7.0711   27.5149 C   0  0  0  0  0  0  0  0  0  0  0  0
    2.5338   -7.6891   16.0102 C   0  0  0  0  0  0  0  0  0  0  0  0
    4.8690   -7.4380   26.4151 C   0  0  0  0  0  0  0  0  0  0  0  0
    2.3021   -5.6726   26.0378 C   0  0  0  0  0  0  0  0  0  0  0  0
    7.0880   -4.6163   27.0010 C   0  0  0  0  0  0  0  0  0  0  0  0
    8.3117   -4.3698   27.4436 C   0  0  0  0  0  0  0  0  0  0  0  0
    1.1339   -5.0515   26.3541 C   0  0  0  0  0  0  0  0  0  0  0  0
    4.8080   -8.0362   16.7101 C   0  0  0  0  0  0  0  0  0  0  0  0
   -1.2173   -3.9294   26.9717 O   0  0  0  0  0  0  0  0  0  0  0  0
   -1.0025   -5.0942   27.4586 C   0  0  0  0  0  0  0  0  0  0  0  0
    2.2474   -8.9123   16.6273 C   0  0  0  0  0  0  0  0  0  0  0  0
    4.4957   -9.2636   17.3041 C   0  0  0  0  0  0  0  0  0  0  0  0
   -1.8070   -5.6086   28.1920 O   0  0  0  0  0  0  0  0  0  0  0  0
   10.4296   -5.1799   28.3140 C   0  0  0  0  0  0  0  0  0  0  0  0
    6.6017   -5.9004   26.9187 C   0  0  0  0  0  0  0  0  0  0  0  0
    2.4761   -6.9940   26.4111 N   0  0  0  0  0  0  0  0  0  0  0  0
    9.1353   -5.4053   27.8239 C   0  0  0  0  0  0  0  0  0  0  0  0
    0.9922   -9.3232   16.5995 O   0  0  0  0  0  0  0  0  0  0  0  0
    1.5232   -7.6869   27.1182 C   0  0  0  0  0  0  0  0  0  0  0  0
    8.6878   -6.6715   27.7262 N   0  0  0  0  0  0  0  0  0  0  0  0
    6.9911   -8.2423   27.1808 C   0  0  0  0  0  0  0  0  0  0  0  0
    3.8436   -7.2758   16.0578 C   0  0  0  0  0  0  0  0  0  0  0  0
    3.1882   -9.7190   17.2566 C   0  0  0  0  0  0  0  0  0  0  0  0
    5.3488   -6.1737   26.5092 C   0  0  0  0  0  0  0  0  0  0  0  0
    7.4567   -6.9464   27.2858 C   0  0  0  0  0  0  0  0  0  0  0  0
    0.1921   -5.7592   27.1123 C   0  0  0  0  0  0  0  0  0  0  0  0
    3.5517   -7.7407   25.9711 C   0  0  0  0  0  0  0  0  0  0  0  0
  1  4  4  0
  1 22  4  0
  2 20  4  0
  2 27  4  0
  3 12  4  0
  3 23  4  0
  4 25  4  0
  4 28  1  0
  5  8  4  0
  5 17  4  0
  6  7  4  0
  6 16  4  0
  7 18  4  0
  8 27  4  0
  9 13  4  0
  9 23  4  0
 10 11  1  0
 11 14  2  0
 11 27  1  0
 12 19  1  0
 12 24  4  0
 13 24  4  0
 15 18  1  0
 16 25  4  0
 16 26  4  0
 17 20  4  0
 17 28  1  0
 18 21  4  0
 21 26  4  0
 22 26  4  0
M  END
$$$$

 Created by Python create_sdf_string function

 28 30  0  0  0  0  0  0  0  0999 V2000
    5.7174   -8.4529   26.7190 C   0  0  0  0  0  0  0  0  0  0  0  0
    0.3974   -7.0711   27.5149 C   0  0  0  0  0  0  0  0  0  0  0  0
    2.5338   -7.6891   16.0102 C   0  0  0  0  0  0  0  0  0  0  0  0
    4.8690   -7.4380   26.4151 C   0  0  0  0  0  0  0  0  0  0  0  0
    2.3021   -5.6726   26.0378 C   0  0  0  0  0  0  0  0  0  0  0  0
    7.0880   -4.6163   27.0010 C   0  0  0  0  0  0  0  0  0  0  0  0
    8.3117   -4.3698   27.4436 C   0  0  0  0  0  0  0  0  0  0  0  0
    1.1339   -5.0515   26.3541 C   0  0  0  0  0  0  0  0  0  0  0  0
    4.8080   -8.0362   16.7101 C   0  0  0  0  0  0  0  0  0  0  0  0
   -1.2173   -3.9294   26.9717 O   0  0  0  0  0  0  0  0  0  0  0  0
   -1.0025   -5.0942   27.4586 C   0  0  0  0  0  0  0  0  0  0  0  0
    2.2474   -8.9123   16.6273 C   0  0  0  0  0  0  0  0  0  0  0  0
    4.4957   -9.2636   17.3041 C   0  0  0  0  0  0  0  0  0  0  0  0
   -1.8070   -5.6086   28.1920 O   0  0  0  0  0  0  0  0  0  0  0  0
   10.4296   -5.1799   28.3140 C   0  0  0  0  0  0  0  0  0  0  0  0
    6.6017   -5.9004   26.9187 C   0  0  0  0  0  0  0  0  0  0  0  0
    2.4761   -6.9940   26.4111 N   0  0  0  0  0  0  0  0  0  0  0  0
    9.1353   -5.4053   27.8239 C   0  0  0  0  0  0  0  0  0  0  0  0
    0.9922   -9.3232   16.5995 O   0  0  0  0  0  0  0  0  0  0  0  0
    1.5232   -7.6869   27.1182 C   0  0  0  0  0  0  0  0  0  0  0  0
    8.6878   -6.6715   27.7262 N   0  0  0  0  0  0  0  0  0  0  0  0
    6.9911   -8.2423   27.1808 C   0  0  0  0  0  0  0  0  0  0  0  0
    3.8436   -7.2758   16.0578 C   0  0  0  0  0  0  0  0  0  0  0  0
    3.1882   -9.7190   17.2566 C   0  0  0  0  0  0  0  0  0  0  0  0
    5.3488   -6.1737   26.5092 C   0  0  0  0  0  0  0  0  0  0  0  0
    7.4567   -6.9464   27.2858 C   0  0  0  0  0  0  0  0  0  0  0  0
    0.1921   -5.7592   27.1123 C   0  0  0  0  0  0  0  0  0  0  0  0
    3.5517   -7.7407   25.9711 C   0  0  0  0  0  0  0  0  0  0  0  0
  1  4  4  0
  1 22  4  0
  2 20  4  0
  2 27  4  0
  3 12  4  0
  3 23  4  0
  4 25  4  0
  4 28  1  0
  5  8  4  0
  5 17  4  0
  6  7  4  0
  6 16  4  0
  7 18  4  0
  8 27  4  0
  9 13  4  0
  9 23  4  0
 10 11  1  0
 11 14  2  0
 11 27  1  0
 12 19  1  0
 12 24  4  0
 13 24  4  0
 15 18  1  0
 16 25  4  0
 16 26  4  0
 17 20  4  0
 17 28  1  0
 18 21  4  0
 21 26  4  0
 22 26  4  0
M  END
$$$$

 Created by Python create_sdf_string function

 28 30  0  0  0  0  0  0  0  0999 V2000
    5.7174   -8.4529   26.7190 C   0  0  0  0  0  0  0  0  0  0  0  0
    0.3974   -7.0711   27.5149 C   0  0  0  0  0  0  0  0  0  0  0  0
    2.5338   -7.6891   16.0102 C   0  0  0  0  0  0  0  0  0  0  0  0
    4.8690   -7.4380   26.4151 C   0  0  0  0  0  0  0  0  0  0  0  0
    2.3021   -5.6726   26.0378 C   0  0  0  0  0  0  0  0  0  0  0  0
    7.0880   -4.6163   27.0010 C   0  0  0  0  0  0  0  0  0  0  0  0
    8.3117   -4.3698   27.4436 C   0  0  0  0  0  0  0  0  0  0  0  0
    1.1339   -5.0515   26.3541 C   0  0  0  0  0  0  0  0  0  0  0  0
    4.8080   -8.0362   16.7101 C   0  0  0  0  0  0  0  0  0  0  0  0
   -1.2173   -3.9294   26.9717 O   0  0  0  0  0  0  0  0  0  0  0  0
   -1.0025   -5.0942   27.4586 C   0  0  0  0  0  0  0  0  0  0  0  0
    2.2474   -8.9123   16.6273 C   0  0  0  0  0  0  0  0  0  0  0  0
    4.4957   -9.2636   17.3041 C   0  0  0  0  0  0  0  0  0  0  0  0
   -1.8070   -5.6086   28.1920 O   0  0  0  0  0  0  0  0  0  0  0  0
   10.4296   -5.1799   28.3140 C   0  0  0  0  0  0  0  0  0  0  0  0
    6.6017   -5.9004   26.9187 C   0  0  0  0  0  0  0  0  0  0  0  0
    2.4761   -6.9940   26.4111 N   0  0  0  0  0  0  0  0  0  0  0  0
    9.1353   -5.4053   27.8239 C   0  0  0  0  0  0  0  0  0  0  0  0
    0.9922   -9.3232   16.5995 O   0  0  0  0  0  0  0  0  0  0  0  0
    1.5232   -7.6869   27.1182 C   0  0  0  0  0  0  0  0  0  0  0  0
    8.6878   -6.6715   27.7262 N   0  0  0  0  0  0  0  0  0  0  0  0
    6.9911   -8.2423   27.1808 C   0  0  0  0  0  0  0  0  0  0  0  0
    3.8436   -7.2758   16.0578 C   0  0  0  0  0  0  0  0  0  0  0  0
    3.1882   -9.7190   17.2566 C   0  0  0  0  0  0  0  0  0  0  0  0
    5.3488   -6.1737   26.5092 C   0  0  0  0  0  0  0  0  0  0  0  0
    7.4567   -6.9464   27.2858 C   0  0  0  0  0  0  0  0  0  0  0  0
    0.1921   -5.7592   27.1123 C   0  0  0  0  0  0  0  0  0  0  0  0
    3.5517   -7.7407   25.9711 C   0  0  0  0  0  0  0  0  0  0  0  0
  1  4  4  0
  1 22  4  0
  2 20  4  0
  2 27  4  0
  3 12  4  0
  3 23  4  0
  4 25  4  0
  4 28  1  0
  5  8  4  0
  5 17  4  0
  6  7  4  0
  6 16  4  0
  7 18  4  0
  8 27  4  0
  9 13  4  0
  9 23  4  0
 10 11  1  0
 11 14  2  0
 11 27  1  0
 12 19  1  0
 12 24  4  0
 13 24  4  0
 15 18  1  0
 16 25  4  0
 16 26  4  0
 17 20  4  0
 17 28  1  0
 18 21  4  0
 21 26  4  0
 22 26  4  0
M  END
$$$$

 Created by Python create_sdf_string function

 28 30  0  0  0  0  0  0  0  0999 V2000
    5.7174   -8.4529   26.7190 C   0  0  0  0  0  0  0  0  0  0  0  0
    0.3974   -7.0711   27.5149 C   0  0  0  0  0  0  0  0  0  0  0  0
    2.5338   -7.6891   16.0102 C   0  0  0  0  0  0  0  0  0  0  0  0
    4.8690   -7.4380   26.4151 C   0  0  0  0  0  0  0  0  0  0  0  0
    2.3021   -5.6726   26.0378 C   0  0  0  0  0  0  0  0  0  0  0  0
    7.0880   -4.6163   27.0010 C   0  0  0  0  0  0  0  0  0  0  0  0
    8.3117   -4.3698   27.4436 C   0  0  0  0  0  0  0  0  0  0  0  0
    1.1339   -5.0515   26.3541 C   0  0  0  0  0  0  0  0  0  0  0  0
    4.8080   -8.0362   16.7101 C   0  0  0  0  0  0  0  0  0  0  0  0
   -1.2173   -3.9294   26.9717 O   0  0  0  0  0  0  0  0  0  0  0  0
   -1.0025   -5.0942   27.4586 C   0  0  0  0  0  0  0  0  0  0  0  0
    2.2474   -8.9123   16.6273 C   0  0  0  0  0  0  0  0  0  0  0  0
    4.4957   -9.2636   17.3041 C   0  0  0  0  0  0  0  0  0  0  0  0
   -1.8070   -5.6086   28.1920 O   0  0  0  0  0  0  0  0  0  0  0  0
   10.4296   -5.1799   28.3140 C   0  0  0  0  0  0  0  0  0  0  0  0
    6.6017   -5.9004   26.9187 C   0  0  0  0  0  0  0  0  0  0  0  0
    2.4761   -6.9940   26.4111 N   0  0  0  0  0  0  0  0  0  0  0  0
    9.1353   -5.4053   27.8239 C   0  0  0  0  0  0  0  0  0  0  0  0
    0.9922   -9.3232   16.5995 O   0  0  0  0  0  0  0  0  0  0  0  0
    1.5232   -7.6869   27.1182 C   0  0  0  0  0  0  0  0  0  0  0  0
    8.6878   -6.6715   27.7262 N   0  0  0  0  0  0  0  0  0  0  0  0
    6.9911   -8.2423   27.1808 C   0  0  0  0  0  0  0  0  0  0  0  0
    3.8436   -7.2758   16.0578 C   0  0  0  0  0  0  0  0  0  0  0  0
    3.1882   -9.7190   17.2566 C   0  0  0  0  0  0  0  0  0  0  0  0
    5.3488   -6.1737   26.5092 C   0  0  0  0  0  0  0  0  0  0  0  0
    7.4567   -6.9464   27.2858 C   0  0  0  0  0  0  0  0  0  0  0  0
    0.1921   -5.7592   27.1123 C   0  0  0  0  0  0  0  0  0  0  0  0
    3.5517   -7.7407   25.9711 C   0  0  0  0  0  0  0  0  0  0  0  0
  1  4  4  0
  1 22  4  0
  2 20  4  0
  2 27  4  0
  3 12  4  0
  3 23  4  0
  4 25  4  0
  4 28  1  0
  5  8  4  0
  5 17  4  0
  6  7  4  0
  6 16  4  0
  7 18  4  0
  8 27  4  0
  9 13  4  0
  9 23  4  0
 10 11  1  0
 11 14  2  0
 11 27  1  0
 12 19  1  0
 12 24  4  0
 13 24  4  0
 15 18  1  0
 16 25  4  0
 16 26  4  0
 17 20  4  0
 17 28  1  0
 18 21  4  0
 21 26  4  0
 22 26  4  0
M  END
$$$$

 Created by Python create_sdf_string function

 28 30  0  0  0  0  0  0  0  0999 V2000
    5.7174   -8.4529   26.7190 C   0  0  0  0  0  0  0  0  0  0  0  0
    0.3974   -7.0711   27.5149 C   0  0  0  0  0  0  0  0  0  0  0  0
    2.5338   -7.6891   16.0102 C   0  0  0  0  0  0  0  0  0  0  0  0
    4.8690   -7.4380   26.4151 C   0  0  0  0  0  0  0  0  0  0  0  0
    2.3021   -5.6726   26.0378 C   0  0  0  0  0  0  0  0  0  0  0  0
    7.0880   -4.6163   27.0010 C   0  0  0  0  0  0  0  0  0  0  0  0
    8.3117   -4.3698   27.4436 C   0  0  0  0  0  0  0  0  0  0  0  0
    1.1339   -5.0515   26.3541 C   0  0  0  0  0  0  0  0  0  0  0  0
    4.8080   -8.0362   16.7101 C   0  0  0  0  0  0  0  0  0  0  0  0
   -1.2173   -3.9294   26.9717 O   0  0  0  0  0  0  0  0  0  0  0  0
   -1.0025   -5.0942   27.4586 C   0  0  0  0  0  0  0  0  0  0  0  0
    2.2474   -8.9123   16.6273 C   0  0  0  0  0  0  0  0  0  0  0  0
    4.4957   -9.2636   17.3041 C   0  0  0  0  0  0  0  0  0  0  0  0
   -1.8070   -5.6086   28.1920 O   0  0  0  0  0  0  0  0  0  0  0  0
   10.4296   -5.1799   28.3140 C   0  0  0  0  0  0  0  0  0  0  0  0
    6.6017   -5.9004   26.9187 C   0  0  0  0  0  0  0  0  0  0  0  0
    2.4761   -6.9940   26.4111 N   0  0  0  0  0  0  0  0  0  0  0  0
    9.1353   -5.4053   27.8239 C   0  0  0  0  0  0  0  0  0  0  0  0
    0.9922   -9.3232   16.5995 O   0  0  0  0  0  0  0  0  0  0  0  0
    1.5232   -7.6869   27.1182 C   0  0  0  0  0  0  0  0  0  0  0  0
    8.6878   -6.6715   27.7262 N   0  0  0  0  0  0  0  0  0  0  0  0
    6.9911   -8.2423   27.1808 C   0  0  0  0  0  0  0  0  0  0  0  0
    3.8436   -7.2758   16.0578 C   0  0  0  0  0  0  0  0  0  0  0  0
    3.1882   -9.7190   17.2566 C   0  0  0  0  0  0  0  0  0  0  0  0
    5.3488   -6.1737   26.5092 C   0  0  0  0  0  0  0  0  0  0  0  0
    7.4567   -6.9464   27.2858 C   0  0  0  0  0  0  0  0  0  0  0  0
    0.1921   -5.7592   27.1123 C   0  0  0  0  0  0  0  0  0  0  0  0
    3.5517   -7.7407   25.9711 C   0  0  0  0  0  0  0  0  0  0  0  0
  1  4  4  0
  1 22  4  0
  2 20  4  0
  2 27  4  0
  3 12  4  0
  3 23  4  0
  4 25  4  0
  4 28  1  0
  5  8  4  0
  5 17  4  0
  6  7  4  0
  6 16  4  0
  7 18  4  0
  8 27  4  0
  9 13  4  0
  9 23  4  0
 10 11  1  0
 11 14  2  0
 11 27  1  0
 12 19  1  0
 12 24  4  0
 13 24  4  0
 15 18  1  0
 16 25  4  0
 16 26  4  0
 17 20  4  0
 17 28  1  0
 18 21  4  0
 21 26  4  0
 22 26  4  0
M  END
$$$$

 Created by Python create_sdf_string function

 28 30  0  0  0  0  0  0  0  0999 V2000
    5.7174   -8.4529   26.7190 C   0  0  0  0  0  0  0  0  0  0  0  0
    0.3974   -7.0711   27.5149 C   0  0  0  0  0  0  0  0  0  0  0  0
    2.5338   -7.6891   16.0102 C   0  0  0  0  0  0  0  0  0  0  0  0
    4.8690   -7.4380   26.4151 C   0  0  0  0  0  0  0  0  0  0  0  0
    2.3021   -5.6726   26.0378 C   0  0  0  0  0  0  0  0  0  0  0  0
    7.0880   -4.6163   27.0010 C   0  0  0  0  0  0  0  0  0  0  0  0
    8.3117   -4.3698   27.4436 C   0  0  0  0  0  0  0  0  0  0  0  0
    1.1339   -5.0515   26.3541 C   0  0  0  0  0  0  0  0  0  0  0  0
    4.8080   -8.0362   16.7101 C   0  0  0  0  0  0  0  0  0  0  0  0
   -1.2173   -3.9294   26.9717 O   0  0  0  0  0  0  0  0  0  0  0  0
   -1.0025   -5.0942   27.4586 C   0  0  0  0  0  0  0  0  0  0  0  0
    2.2474   -8.9123   16.6273 C   0  0  0  0  0  0  0  0  0  0  0  0
    4.4957   -9.2636   17.3041 C   0  0  0  0  0  0  0  0  0  0  0  0
   -1.8070   -5.6086   28.1920 O   0  0  0  0  0  0  0  0  0  0  0  0
   10.4296   -5.1799   28.3140 C   0  0  0  0  0  0  0  0  0  0  0  0
    6.6017   -5.9004   26.9187 C   0  0  0  0  0  0  0  0  0  0  0  0
    2.4761   -6.9940   26.4111 N   0  0  0  0  0  0  0  0  0  0  0  0
    9.1353   -5.4053   27.8239 C   0  0  0  0  0  0  0  0  0  0  0  0
    0.9922   -9.3232   16.5995 O   0  0  0  0  0  0  0  0  0  0  0  0
    1.5232   -7.6869   27.1182 C   0  0  0  0  0  0  0  0  0  0  0  0
    8.6878   -6.6715   27.7262 N   0  0  0  0  0  0  0  0  0  0  0  0
    6.9911   -8.2423   27.1808 C   0  0  0  0  0  0  0  0  0  0  0  0
    3.8436   -7.2758   16.0578 C   0  0  0  0  0  0  0  0  0  0  0  0
    3.1882   -9.7190   17.2566 C   0  0  0  0  0  0  0  0  0  0  0  0
    5.3488   -6.1737   26.5092 C   0  0  0  0  0  0  0  0  0  0  0  0
    7.4567   -6.9464   27.2858 C   0  0  0  0  0  0  0  0  0  0  0  0
    0.1921   -5.7592   27.1123 C   0  0  0  0  0  0  0  0  0  0  0  0
    3.5517   -7.7407   25.9711 C   0  0  0  0  0  0  0  0  0  0  0  0
  1  4  4  0
  1 22  4  0
  2 20  4  0
  2 27  4  0
  3 12  4  0
  3 23  4  0
  4 25  4  0
  4 28  1  0
  5  8  4  0
  5 17  4  0
  6  7  4  0
  6 16  4  0
  7 18  4  0
  8 27  4  0
  9 13  4  0
  9 23  4  0
 10 11  1  0
 11 14  2  0
 11 27  1  0
 12 19  1  0
 12 24  4  0
 13 24  4  0
 15 18  1  0
 16 25  4  0
 16 26  4  0
 17 20  4  0
 17 28  1  0
 18 21  4  0
 21 26  4  0
 22 26  4  0
M  END
$$$$

 Created by Python create_sdf_string function

 28 30  0  0  0  0  0  0  0  0999 V2000
    5.7174   -8.4529   26.7190 C   0  0  0  0  0  0  0  0  0  0  0  0
    0.3974   -7.0711   27.5149 C   0  0  0  0  0  0  0  0  0  0  0  0
    2.5338   -7.6891   16.0102 C   0  0  0  0  0  0  0  0  0  0  0  0
    4.8690   -7.4380   26.4151 C   0  0  0  0  0  0  0  0  0  0  0  0
    2.3021   -5.6726   26.0378 C   0  0  0  0  0  0  0  0  0  0  0  0
    7.0880   -4.6163   27.0010 C   0  0  0  0  0  0  0  0  0  0  0  0
    8.3117   -4.3698   27.4436 C   0  0  0  0  0  0  0  0  0  0  0  0
    1.1339   -5.0515   26.3541 C   0  0  0  0  0  0  0  0  0  0  0  0
    4.8080   -8.0362   16.7101 C   0  0  0  0  0  0  0  0  0  0  0  0
   -1.2173   -3.9294   26.9717 O   0  0  0  0  0  0  0  0  0  0  0  0
   -1.0025   -5.0942   27.4586 C   0  0  0  0  0  0  0  0  0  0  0  0
    2.2474   -8.9123   16.6273 C   0  0  0  0  0  0  0  0  0  0  0  0
    4.4957   -9.2636   17.3041 C   0  0  0  0  0  0  0  0  0  0  0  0
   -1.8070   -5.6086   28.1920 O   0  0  0  0  0  0  0  0  0  0  0  0
   10.4296   -5.1799   28.3140 C   0  0  0  0  0  0  0  0  0  0  0  0
    6.6017   -5.9004   26.9187 C   0  0  0  0  0  0  0  0  0  0  0  0
    2.4761   -6.9940   26.4111 N   0  0  0  0  0  0  0  0  0  0  0  0
    9.1353   -5.4053   27.8239 C   0  0  0  0  0  0  0  0  0  0  0  0
    0.9922   -9.3232   16.5995 O   0  0  0  0  0  0  0  0  0  0  0  0
    1.5232   -7.6869   27.1182 C   0  0  0  0  0  0  0  0  0  0  0  0
    8.6878   -6.6715   27.7262 N   0  0  0  0  0  0  0  0  0  0  0  0
    6.9911   -8.2423   27.1808 C   0  0  0  0  0  0  0  0  0  0  0  0
    3.8436   -7.2758   16.0578 C   0  0  0  0  0  0  0  0  0  0  0  0
    3.1882   -9.7190   17.2566 C   0  0  0  0  0  0  0  0  0  0  0  0
    5.3488   -6.1737   26.5092 C   0  0  0  0  0  0  0  0  0  0  0  0
    7.4567   -6.9464   27.2858 C   0  0  0  0  0  0  0  0  0  0  0  0
    0.1921   -5.7592   27.1123 C   0  0  0  0  0  0  0  0  0  0  0  0
    3.5517   -7.7407   25.9711 C   0  0  0  0  0  0  0  0  0  0  0  0
  1  4  4  0
  1 22  4  0
  2 20  4  0
  2 27  4  0
  3 12  4  0
  3 23  4  0
  4 25  4  0
  4 28  1  0
  5  8  4  0
  5 17  4  0
  6  7  4  0
  6 16  4  0
  7 18  4  0
  8 27  4  0
  9 13  4  0
  9 23  4  0
 10 11  1  0
 11 14  2  0
 11 27  1  0
 12 19  1  0
 12 24  4  0
 13 24  4  0
 15 18  1  0
 16 25  4  0
 16 26  4  0
 17 20  4  0
 17 28  1  0
 18 21  4  0
 21 26  4  0
 22 26  4  0
M  END
$$$$

 Created by Python create_sdf_string function

 28 30  0  0  0  0  0  0  0  0999 V2000
    5.7174   -8.4529   26.7190 C   0  0  0  0  0  0  0  0  0  0  0  0
    0.3974   -7.0711   27.5149 C   0  0  0  0  0  0  0  0  0  0  0  0
    2.5338   -7.6891   16.0102 C   0  0  0  0  0  0  0  0  0  0  0  0
    4.8690   -7.4380   26.4151 C   0  0  0  0  0  0  0  0  0  0  0  0
    2.3021   -5.6726   26.0378 C   0  0  0  0  0  0  0  0  0  0  0  0
    7.0880   -4.6163   27.0010 C   0  0  0  0  0  0  0  0  0  0  0  0
    8.3117   -4.3698   27.4436 C   0  0  0  0  0  0  0  0  0  0  0  0
    1.1339   -5.0515   26.3541 C   0  0  0  0  0  0  0  0  0  0  0  0
    4.8080   -8.0362   16.7101 C   0  0  0  0  0  0  0  0  0  0  0  0
   -1.2173   -3.9294   26.9717 O   0  0  0  0  0  0  0  0  0  0  0  0
   -1.0025   -5.0942   27.4586 C   0  0  0  0  0  0  0  0  0  0  0  0
    2.2474   -8.9123   16.6273 C   0  0  0  0  0  0  0  0  0  0  0  0
    4.4957   -9.2636   17.3041 C   0  0  0  0  0  0  0  0  0  0  0  0
   -1.8070   -5.6086   28.1920 O   0  0  0  0  0  0  0  0  0  0  0  0
   10.4296   -5.1799   28.3140 C   0  0  0  0  0  0  0  0  0  0  0  0
    6.6017   -5.9004   26.9187 C   0  0  0  0  0  0  0  0  0  0  0  0
    2.4761   -6.9940   26.4111 N   0  0  0  0  0  0  0  0  0  0  0  0
    9.1353   -5.4053   27.8239 C   0  0  0  0  0  0  0  0  0  0  0  0
    0.9922   -9.3232   16.5995 O   0  0  0  0  0  0  0  0  0  0  0  0
    1.5232   -7.6869   27.1182 C   0  0  0  0  0  0  0  0  0  0  0  0
    8.6878   -6.6715   27.7262 N   0  0  0  0  0  0  0  0  0  0  0  0
    6.9911   -8.2423   27.1808 C   0  0  0  0  0  0  0  0  0  0  0  0
    3.8436   -7.2758   16.0578 C   0  0  0  0  0  0  0  0  0  0  0  0
    3.1882   -9.7190   17.2566 C   0  0  0  0  0  0  0  0  0  0  0  0
    5.3488   -6.1737   26.5092 C   0  0  0  0  0  0  0  0  0  0  0  0
    7.4567   -6.9464   27.2858 C   0  0  0  0  0  0  0  0  0  0  0  0
    0.1921   -5.7592   27.1123 C   0  0  0  0  0  0  0  0  0  0  0  0
    3.5517   -7.7407   25.9711 C   0  0  0  0  0  0  0  0  0  0  0  0
  1  4  4  0
  1 22  4  0
  2 20  4  0
  2 27  4  0
  3 12  4  0
  3 23  4  0
  4 25  4  0
  4 28  1  0
  5  8  4  0
  5 17  4  0
  6  7  4  0
  6 16  4  0
  7 18  4  0
  8 27  4  0
  9 13  4  0
  9 23  4  0
 10 11  1  0
 11 14  2  0
 11 27  1  0
 12 19  1  0
 12 24  4  0
 13 24  4  0
 15 18  1  0
 16 25  4  0
 16 26  4  0
 17 20  4  0
 17 28  1  0
 18 21  4  0
 21 26  4  0
 22 26  4  0
M  END
$$$$

 Created by Python create_sdf_string function

 28 30  0  0  0  0  0  0  0  0999 V2000
    5.7174   -8.4529   26.7190 C   0  0  0  0  0  0  0  0  0  0  0  0
    0.3974   -7.0711   27.5149 C   0  0  0  0  0  0  0  0  0  0  0  0
    2.5338   -7.6891   16.0102 C   0  0  0  0  0  0  0  0  0  0  0  0
    4.8690   -7.4380   26.4151 C   0  0  0  0  0  0  0  0  0  0  0  0
    2.3021   -5.6726   26.0378 C   0  0  0  0  0  0  0  0  0  0  0  0
    7.0880   -4.6163   27.0010 C   0  0  0  0  0  0  0  0  0  0  0  0
    8.3117   -4.3698   27.4436 C   0  0  0  0  0  0  0  0  0  0  0  0
    1.1339   -5.0515   26.3541 C   0  0  0  0  0  0  0  0  0  0  0  0
    4.8080   -8.0362   16.7101 C   0  0  0  0  0  0  0  0  0  0  0  0
   -1.2173   -3.9294   26.9717 O   0  0  0  0  0  0  0  0  0  0  0  0
   -1.0025   -5.0942   27.4586 C   0  0  0  0  0  0  0  0  0  0  0  0
    2.2474   -8.9123   16.6273 C   0  0  0  0  0  0  0  0  0  0  0  0
    4.4957   -9.2636   17.3041 C   0  0  0  0  0  0  0  0  0  0  0  0
   -1.8070   -5.6086   28.1920 O   0  0  0  0  0  0  0  0  0  0  0  0
   10.4296   -5.1799   28.3140 C   0  0  0  0  0  0  0  0  0  0  0  0
    6.6017   -5.9004   26.9187 C   0  0  0  0  0  0  0  0  0  0  0  0
    2.4761   -6.9940   26.4111 N   0  0  0  0  0  0  0  0  0  0  0  0
    9.1353   -5.4053   27.8239 C   0  0  0  0  0  0  0  0  0  0  0  0
    0.9922   -9.3232   16.5995 O   0  0  0  0  0  0  0  0  0  0  0  0
    1.5232   -7.6869   27.1182 C   0  0  0  0  0  0  0  0  0  0  0  0
    8.6878   -6.6715   27.7262 N   0  0  0  0  0  0  0  0  0  0  0  0
    6.9911   -8.2423   27.1808 C   0  0  0  0  0  0  0  0  0  0  0  0
    3.8436   -7.2758   16.0578 C   0  0  0  0  0  0  0  0  0  0  0  0
    3.1882   -9.7190   17.2566 C   0  0  0  0  0  0  0  0  0  0  0  0
    5.3488   -6.1737   26.5092 C   0  0  0  0  0  0  0  0  0  0  0  0
    7.4567   -6.9464   27.2858 C   0  0  0  0  0  0  0  0  0  0  0  0
    0.1921   -5.7592   27.1123 C   0  0  0  0  0  0  0  0  0  0  0  0
    3.5517   -7.7407   25.9711 C   0  0  0  0  0  0  0  0  0  0  0  0
  1  4  4  0
  1 22  4  0
  2 20  4  0
  2 27  4  0
  3 12  4  0
  3 23  4  0
  4 25  4  0
  4 28  1  0
  5  8  4  0
  5 17  4  0
  6  7  4  0
  6 16  4  0
  7 18  4  0
  8 27  4  0
  9 13  4  0
  9 23  4  0
 10 11  1  0
 11 14  2  0
 11 27  1  0
 12 19  1  0
 12 24  4  0
 13 24  4  0
 15 18  1  0
 16 25  4  0
 16 26  4  0
 17 20  4  0
 17 28  1  0
 18 21  4  0
 21 26  4  0
 22 26  4  0
M  END
$$$$

 Created by Python create_sdf_string function

 28 30  0  0  0  0  0  0  0  0999 V2000
    5.7174   -8.4529   26.7190 C   0  0  0  0  0  0  0  0  0  0  0  0
    0.3974   -7.0711   27.5149 C   0  0  0  0  0  0  0  0  0  0  0  0
    2.5338   -7.6891   16.0102 C   0  0  0  0  0  0  0  0  0  0  0  0
    4.8690   -7.4380   26.4151 C   0  0  0  0  0  0  0  0  0  0  0  0
    2.3021   -5.6726   26.0378 C   0  0  0  0  0  0  0  0  0  0  0  0
    7.0880   -4.6163   27.0010 C   0  0  0  0  0  0  0  0  0  0  0  0
    8.3117   -4.3698   27.4436 C   0  0  0  0  0  0  0  0  0  0  0  0
    1.1339   -5.0515   26.3541 C   0  0  0  0  0  0  0  0  0  0  0  0
    4.8080   -8.0362   16.7101 C   0  0  0  0  0  0  0  0  0  0  0  0
   -1.2173   -3.9294   26.9717 O   0  0  0  0  0  0  0  0  0  0  0  0
   -1.0025   -5.0942   27.4586 C   0  0  0  0  0  0  0  0  0  0  0  0
    2.2474   -8.9123   16.6273 C   0  0  0  0  0  0  0  0  0  0  0  0
    4.4957   -9.2636   17.3041 C   0  0  0  0  0  0  0  0  0  0  0  0
   -1.8070   -5.6086   28.1920 O   0  0  0  0  0  0  0  0  0  0  0  0
   10.4296   -5.1799   28.3140 C   0  0  0  0  0  0  0  0  0  0  0  0
    6.6017   -5.9004   26.9187 C   0  0  0  0  0  0  0  0  0  0  0  0
    2.4761   -6.9940   26.4111 N   0  0  0  0  0  0  0  0  0  0  0  0
    9.1353   -5.4053   27.8239 C   0  0  0  0  0  0  0  0  0  0  0  0
    0.9922   -9.3232   16.5995 O   0  0  0  0  0  0  0  0  0  0  0  0
    1.5232   -7.6869   27.1182 C   0  0  0  0  0  0  0  0  0  0  0  0
    8.6878   -6.6715   27.7262 N   0  0  0  0  0  0  0  0  0  0  0  0
    6.9911   -8.2423   27.1808 C   0  0  0  0  0  0  0  0  0  0  0  0
    3.8436   -7.2758   16.0578 C   0  0  0  0  0  0  0  0  0  0  0  0
    3.1882   -9.7190   17.2566 C   0  0  0  0  0  0  0  0  0  0  0  0
    5.3488   -6.1737   26.5092 C   0  0  0  0  0  0  0  0  0  0  0  0
    7.4567   -6.9464   27.2858 C   0  0  0  0  0  0  0  0  0  0  0  0
    0.1921   -5.7592   27.1123 C   0  0  0  0  0  0  0  0  0  0  0  0
    3.5517   -7.7407   25.9711 C   0  0  0  0  0  0  0  0  0  0  0  0
  1  4  4  0
  1 22  4  0
  2 20  4  0
  2 27  4  0
  3 12  4  0
  3 23  4  0
  4 25  4  0
  4 28  1  0
  5  8  4  0
  5 17  4  0
  6  7  4  0
  6 16  4  0
  7 18  4  0
  8 27  4  0
  9 13  4  0
  9 23  4  0
 10 11  1  0
 11 14  2  0
 11 27  1  0
 12 19  1  0
 12 24  4  0
 13 24  4  0
 15 18  1  0
 16 25  4  0
 16 26  4  0
 17 20  4  0
 17 28  1  0
 18 21  4  0
 21 26  4  0
 22 26  4  0
M  END
$$$$

 Created by Python create_sdf_string function

 28 30  0  0  0  0  0  0  0  0999 V2000
    5.7174   -8.4529   26.7190 C   0  0  0  0  0  0  0  0  0  0  0  0
    0.3974   -7.0711   27.5149 C   0  0  0  0  0  0  0  0  0  0  0  0
    2.5338   -7.6891   16.0102 C   0  0  0  0  0  0  0  0  0  0  0  0
    4.8690   -7.4380   26.4151 C   0  0  0  0  0  0  0  0  0  0  0  0
    2.3021   -5.6726   26.0378 C   0  0  0  0  0  0  0  0  0  0  0  0
    7.0880   -4.6163   27.0010 C   0  0  0  0  0  0  0  0  0  0  0  0
    8.3117   -4.3698   27.4436 C   0  0  0  0  0  0  0  0  0  0  0  0
    1.1339   -5.0515   26.3541 C   0  0  0  0  0  0  0  0  0  0  0  0
    4.8080   -8.0362   16.7101 C   0  0  0  0  0  0  0  0  0  0  0  0
   -1.2173   -3.9294   26.9717 O   0  0  0  0  0  0  0  0  0  0  0  0
   -1.0025   -5.0942   27.4586 C   0  0  0  0  0  0  0  0  0  0  0  0
    2.2474   -8.9123   16.6273 C   0  0  0  0  0  0  0  0  0  0  0  0
    4.4957   -9.2636   17.3041 C   0  0  0  0  0  0  0  0  0  0  0  0
   -1.8070   -5.6086   28.1920 O   0  0  0  0  0  0  0  0  0  0  0  0
   10.4296   -5.1799   28.3140 C   0  0  0  0  0  0  0  0  0  0  0  0
    6.6017   -5.9004   26.9187 C   0  0  0  0  0  0  0  0  0  0  0  0
    2.4761   -6.9940   26.4111 N   0  0  0  0  0  0  0  0  0  0  0  0
    9.1353   -5.4053   27.8239 C   0  0  0  0  0  0  0  0  0  0  0  0
    0.9922   -9.3232   16.5995 O   0  0  0  0  0  0  0  0  0  0  0  0
    1.5232   -7.6869   27.1182 C   0  0  0  0  0  0  0  0  0  0  0  0
    8.6878   -6.6715   27.7262 N   0  0  0  0  0  0  0  0  0  0  0  0
    6.9911   -8.2423   27.1808 C   0  0  0  0  0  0  0  0  0  0  0  0
    3.8436   -7.2758   16.0578 C   0  0  0  0  0  0  0  0  0  0  0  0
    3.1882   -9.7190   17.2566 C   0  0  0  0  0  0  0  0  0  0  0  0
    5.3488   -6.1737   26.5092 C   0  0  0  0  0  0  0  0  0  0  0  0
    7.4567   -6.9464   27.2858 C   0  0  0  0  0  0  0  0  0  0  0  0
    0.1921   -5.7592   27.1123 C   0  0  0  0  0  0  0  0  0  0  0  0
    3.5517   -7.7407   25.9711 C   0  0  0  0  0  0  0  0  0  0  0  0
  1  4  4  0
  1 22  4  0
  2 20  4  0
  2 27  4  0
  3 12  4  0
  3 23  4  0
  4 25  4  0
  4 28  1  0
  5  8  4  0
  5 17  4  0
  6  7  4  0
  6 16  4  0
  7 18  4  0
  8 27  4  0
  9 13  4  0
  9 23  4  0
 10 11  1  0
 11 14  2  0
 11 27  1  0
 12 19  1  0
 12 24  4  0
 13 24  4  0
 15 18  1  0
 16 25  4  0
 16 26  4  0
 17 20  4  0
 17 28  1  0
 18 21  4  0
 21 26  4  0
 22 26  4  0
M  END
$$$$

 Created by Python create_sdf_string function

 28 30  0  0  0  0  0  0  0  0999 V2000
    5.7174   -8.4529   26.7190 C   0  0  0  0  0  0  0  0  0  0  0  0
    0.3974   -7.0711   27.5149 C   0  0  0  0  0  0  0  0  0  0  0  0
    2.5338   -7.6891   16.0102 C   0  0  0  0  0  0  0  0  0  0  0  0
    4.8690   -7.4380   26.4151 C   0  0  0  0  0  0  0  0  0  0  0  0
    2.3021   -5.6726   26.0378 C   0  0  0  0  0  0  0  0  0  0  0  0
    7.0880   -4.6163   27.0010 C   0  0  0  0  0  0  0  0  0  0  0  0
    8.3117   -4.3698   27.4436 C   0  0  0  0  0  0  0  0  0  0  0  0
    1.1339   -5.0515   26.3541 C   0  0  0  0  0  0  0  0  0  0  0  0
    4.8080   -8.0362   16.7101 C   0  0  0  0  0  0  0  0  0  0  0  0
   -1.2173   -3.9294   26.9717 O   0  0  0  0  0  0  0  0  0  0  0  0
   -1.0025   -5.0942   27.4586 C   0  0  0  0  0  0  0  0  0  0  0  0
    2.2474   -8.9123   16.6273 C   0  0  0  0  0  0  0  0  0  0  0  0
    4.4957   -9.2636   17.3041 C   0  0  0  0  0  0  0  0  0  0  0  0
   -1.8070   -5.6086   28.1920 O   0  0  0  0  0  0  0  0  0  0  0  0
   10.4296   -5.1799   28.3140 C   0  0  0  0  0  0  0  0  0  0  0  0
    6.6017   -5.9004   26.9187 C   0  0  0  0  0  0  0  0  0  0  0  0
    2.4761   -6.9940   26.4111 N   0  0  0  0  0  0  0  0  0  0  0  0
    9.1353   -5.4053   27.8239 C   0  0  0  0  0  0  0  0  0  0  0  0
    0.9922   -9.3232   16.5995 O   0  0  0  0  0  0  0  0  0  0  0  0
    1.5232   -7.6869   27.1182 C   0  0  0  0  0  0  0  0  0  0  0  0
    8.6878   -6.6715   27.7262 N   0  0  0  0  0  0  0  0  0  0  0  0
    6.9911   -8.2423   27.1808 C   0  0  0  0  0  0  0  0  0  0  0  0
    3.8436   -7.2758   16.0578 C   0  0  0  0  0  0  0  0  0  0  0  0
    3.1882   -9.7190   17.2566 C   0  0  0  0  0  0  0  0  0  0  0  0
    5.3488   -6.1737   26.5092 C   0  0  0  0  0  0  0  0  0  0  0  0
    7.4567   -6.9464   27.2858 C   0  0  0  0  0  0  0  0  0  0  0  0
    0.1921   -5.7592   27.1123 C   0  0  0  0  0  0  0  0  0  0  0  0
    3.5517   -7.7407   25.9711 C   0  0  0  0  0  0  0  0  0  0  0  0
  1  4  4  0
  1 22  4  0
  2 20  4  0
  2 27  4  0
  3 12  4  0
  3 23  4  0
  4 25  4  0
  4 28  1  0
  5  8  4  0
  5 17  4  0
  6  7  4  0
  6 16  4  0
  7 18  4  0
  8 27  4  0
  9 13  4  0
  9 23  4  0
 10 11  1  0
 11 14  2  0
 11 27  1  0
 12 19  1  0
 12 24  4  0
 13 24  4  0
 15 18  1  0
 16 25  4  0
 16 26  4  0
 17 20  4  0
 17 28  1  0
 18 21  4  0
 21 26  4  0
 22 26  4  0
M  END
$$$$

 Created by Python create_sdf_string function

 28 30  0  0  0  0  0  0  0  0999 V2000
    5.7174   -8.4529   26.7190 C   0  0  0  0  0  0  0  0  0  0  0  0
    0.3974   -7.0711   27.5149 C   0  0  0  0  0  0  0  0  0  0  0  0
    2.5338   -7.6891   16.0102 C   0  0  0  0  0  0  0  0  0  0  0  0
    4.8690   -7.4380   26.4151 C   0  0  0  0  0  0  0  0  0  0  0  0
    2.3021   -5.6726   26.0378 C   0  0  0  0  0  0  0  0  0  0  0  0
    7.0880   -4.6163   27.0010 C   0  0  0  0  0  0  0  0  0  0  0  0
    8.3117   -4.3698   27.4436 C   0  0  0  0  0  0  0  0  0  0  0  0
    1.1339   -5.0515   26.3541 C   0  0  0  0  0  0  0  0  0  0  0  0
    4.8080   -8.0362   16.7101 C   0  0  0  0  0  0  0  0  0  0  0  0
   -1.2173   -3.9294   26.9717 O   0  0  0  0  0  0  0  0  0  0  0  0
   -1.0025   -5.0942   27.4586 C   0  0  0  0  0  0  0  0  0  0  0  0
    2.2474   -8.9123   16.6273 C   0  0  0  0  0  0  0  0  0  0  0  0
    4.4957   -9.2636   17.3041 C   0  0  0  0  0  0  0  0  0  0  0  0
   -1.8070   -5.6086   28.1920 O   0  0  0  0  0  0  0  0  0  0  0  0
   10.4296   -5.1799   28.3140 C   0  0  0  0  0  0  0  0  0  0  0  0
    6.6017   -5.9004   26.9187 C   0  0  0  0  0  0  0  0  0  0  0  0
    2.4761   -6.9940   26.4111 N   0  0  0  0  0  0  0  0  0  0  0  0
    9.1353   -5.4053   27.8239 C   0  0  0  0  0  0  0  0  0  0  0  0
    0.9922   -9.3232   16.5995 O   0  0  0  0  0  0  0  0  0  0  0  0
    1.5232   -7.6869   27.1182 C   0  0  0  0  0  0  0  0  0  0  0  0
    8.6878   -6.6715   27.7262 N   0  0  0  0  0  0  0  0  0  0  0  0
    6.9911   -8.2423   27.1808 C   0  0  0  0  0  0  0  0  0  0  0  0
    3.8436   -7.2758   16.0578 C   0  0  0  0  0  0  0  0  0  0  0  0
    3.1882   -9.7190   17.2566 C   0  0  0  0  0  0  0  0  0  0  0  0
    5.3488   -6.1737   26.5092 C   0  0  0  0  0  0  0  0  0  0  0  0
    7.4567   -6.9464   27.2858 C   0  0  0  0  0  0  0  0  0  0  0  0
    0.1921   -5.7592   27.1123 C   0  0  0  0  0  0  0  0  0  0  0  0
    3.5517   -7.7407   25.9711 C   0  0  0  0  0  0  0  0  0  0  0  0
  1  4  4  0
  1 22  4  0
  2 20  4  0
  2 27  4  0
  3 12  4  0
  3 23  4  0
  4 25  4  0
  4 28  1  0
  5  8  4  0
  5 17  4  0
  6  7  4  0
  6 16  4  0
  7 18  4  0
  8 27  4  0
  9 13  4  0
  9 23  4  0
 10 11  1  0
 11 14  2  0
 11 27  1  0
 12 19  1  0
 12 24  4  0
 13 24  4  0
 15 18  1  0
 16 25  4  0
 16 26  4  0
 17 20  4  0
 17 28  1  0
 18 21  4  0
 21 26  4  0
 22 26  4  0
M  END
$$$$

 Created by Python create_sdf_string function

 28 30  0  0  0  0  0  0  0  0999 V2000
    5.7174   -8.4529   26.7190 C   0  0  0  0  0  0  0  0  0  0  0  0
    0.3974   -7.0711   27.5149 C   0  0  0  0  0  0  0  0  0  0  0  0
    2.5338   -7.6891   16.0102 C   0  0  0  0  0  0  0  0  0  0  0  0
    4.8690   -7.4380   26.4151 C   0  0  0  0  0  0  0  0  0  0  0  0
    2.3021   -5.6726   26.0378 C   0  0  0  0  0  0  0  0  0  0  0  0
    7.0880   -4.6163   27.0010 C   0  0  0  0  0  0  0  0  0  0  0  0
    8.3117   -4.3698   27.4436 C   0  0  0  0  0  0  0  0  0  0  0  0
    1.1339   -5.0515   26.3541 C   0  0  0  0  0  0  0  0  0  0  0  0
    4.8080   -8.0362   16.7101 C   0  0  0  0  0  0  0  0  0  0  0  0
   -1.2173   -3.9294   26.9717 O   0  0  0  0  0  0  0  0  0  0  0  0
   -1.0025   -5.0942   27.4586 C   0  0  0  0  0  0  0  0  0  0  0  0
    2.2474   -8.9123   16.6273 C   0  0  0  0  0  0  0  0  0  0  0  0
    4.4957   -9.2636   17.3041 C   0  0  0  0  0  0  0  0  0  0  0  0
   -1.8070   -5.6086   28.1920 O   0  0  0  0  0  0  0  0  0  0  0  0
   10.4296   -5.1799   28.3140 C   0  0  0  0  0  0  0  0  0  0  0  0
    6.6017   -5.9004   26.9187 C   0  0  0  0  0  0  0  0  0  0  0  0
    2.4761   -6.9940   26.4111 N   0  0  0  0  0  0  0  0  0  0  0  0
    9.1353   -5.4053   27.8239 C   0  0  0  0  0  0  0  0  0  0  0  0
    0.9922   -9.3232   16.5995 O   0  0  0  0  0  0  0  0  0  0  0  0
    1.5232   -7.6869   27.1182 C   0  0  0  0  0  0  0  0  0  0  0  0
    8.6878   -6.6715   27.7262 N   0  0  0  0  0  0  0  0  0  0  0  0
    6.9911   -8.2423   27.1808 C   0  0  0  0  0  0  0  0  0  0  0  0
    3.8436   -7.2758   16.0578 C   0  0  0  0  0  0  0  0  0  0  0  0
    3.1882   -9.7190   17.2566 C   0  0  0  0  0  0  0  0  0  0  0  0
    5.3488   -6.1737   26.5092 C   0  0  0  0  0  0  0  0  0  0  0  0
    7.4567   -6.9464   27.2858 C   0  0  0  0  0  0  0  0  0  0  0  0
    0.1921   -5.7592   27.1123 C   0  0  0  0  0  0  0  0  0  0  0  0
    3.5517   -7.7407   25.9711 C   0  0  0  0  0  0  0  0  0  0  0  0
  1  4  4  0
  1 22  4  0
  2 20  4  0
  2 27  4  0
  3 12  4  0
  3 23  4  0
  4 25  4  0
  4 28  1  0
  5  8  4  0
  5 17  4  0
  6  7  4  0
  6 16  4  0
  7 18  4  0
  8 27  4  0
  9 13  4  0
  9 23  4  0
 10 11  1  0
 11 14  2  0
 11 27  1  0
 12 19  1  0
 12 24  4  0
 13 24  4  0
 15 18  1  0
 16 25  4  0
 16 26  4  0
 17 20  4  0
 17 28  1  0
 18 21  4  0
 21 26  4  0
 22 26  4  0
M  END
$$$$

 Created by Python create_sdf_string function

 28 30  0  0  0  0  0  0  0  0999 V2000
    5.7174   -8.4529   26.7190 C   0  0  0  0  0  0  0  0  0  0  0  0
    0.3974   -7.0711   27.5149 C   0  0  0  0  0  0  0  0  0  0  0  0
    2.5338   -7.6891   16.0102 C   0  0  0  0  0  0  0  0  0  0  0  0
    4.8690   -7.4380   26.4151 C   0  0  0  0  0  0  0  0  0  0  0  0
    2.3021   -5.6726   26.0378 C   0  0  0  0  0  0  0  0  0  0  0  0
    7.0880   -4.6163   27.0010 C   0  0  0  0  0  0  0  0  0  0  0  0
    8.3117   -4.3698   27.4436 C   0  0  0  0  0  0  0  0  0  0  0  0
    1.1339   -5.0515   26.3541 C   0  0  0  0  0  0  0  0  0  0  0  0
    4.8080   -8.0362   16.7101 C   0  0  0  0  0  0  0  0  0  0  0  0
   -1.2173   -3.9294   26.9717 O   0  0  0  0  0  0  0  0  0  0  0  0
   -1.0025   -5.0942   27.4586 C   0  0  0  0  0  0  0  0  0  0  0  0
    2.2474   -8.9123   16.6273 C   0  0  0  0  0  0  0  0  0  0  0  0
    4.4957   -9.2636   17.3041 C   0  0  0  0  0  0  0  0  0  0  0  0
   -1.8070   -5.6086   28.1920 O   0  0  0  0  0  0  0  0  0  0  0  0
   10.4296   -5.1799   28.3140 C   0  0  0  0  0  0  0  0  0  0  0  0
    6.6017   -5.9004   26.9187 C   0  0  0  0  0  0  0  0  0  0  0  0
    2.4761   -6.9940   26.4111 N   0  0  0  0  0  0  0  0  0  0  0  0
    9.1353   -5.4053   27.8239 C   0  0  0  0  0  0  0  0  0  0  0  0
    0.9922   -9.3232   16.5995 O   0  0  0  0  0  0  0  0  0  0  0  0
    1.5232   -7.6869   27.1182 C   0  0  0  0  0  0  0  0  0  0  0  0
    8.6878   -6.6715   27.7262 N   0  0  0  0  0  0  0  0  0  0  0  0
    6.9911   -8.2423   27.1808 C   0  0  0  0  0  0  0  0  0  0  0  0
    3.8436   -7.2758   16.0578 C   0  0  0  0  0  0  0  0  0  0  0  0
    3.1882   -9.7190   17.2566 C   0  0  0  0  0  0  0  0  0  0  0  0
    5.3488   -6.1737   26.5092 C   0  0  0  0  0  0  0  0  0  0  0  0
    7.4567   -6.9464   27.2858 C   0  0  0  0  0  0  0  0  0  0  0  0
    0.1921   -5.7592   27.1123 C   0  0  0  0  0  0  0  0  0  0  0  0
    3.5517   -7.7407   25.9711 C   0  0  0  0  0  0  0  0  0  0  0  0
  1  4  4  0
  1 22  4  0
  2 20  4  0
  2 27  4  0
  3 12  4  0
  3 23  4  0
  4 25  4  0
  4 28  1  0
  5  8  4  0
  5 17  4  0
  6  7  4  0
  6 16  4  0
  7 18  4  0
  8 27  4  0
  9 13  4  0
  9 23  4  0
 10 11  1  0
 11 14  2  0
 11 27  1  0
 12 19  1  0
 12 24  4  0
 13 24  4  0
 15 18  1  0
 16 25  4  0
 16 26  4  0
 17 20  4  0
 17 28  1  0
 18 21  4  0
 21 26  4  0
 22 26  4  0
M  END
$$$$

 Created by Python create_sdf_string function

 28 30  0  0  0  0  0  0  0  0999 V2000
    5.7174   -8.4529   26.7190 C   0  0  0  0  0  0  0  0  0  0  0  0
    0.3974   -7.0711   27.5149 C   0  0  0  0  0  0  0  0  0  0  0  0
    2.5338   -7.6891   16.0102 C   0  0  0  0  0  0  0  0  0  0  0  0
    4.8690   -7.4380   26.4151 C   0  0  0  0  0  0  0  0  0  0  0  0
    2.3021   -5.6726   26.0378 C   0  0  0  0  0  0  0  0  0  0  0  0
    7.0880   -4.6163   27.0010 C   0  0  0  0  0  0  0  0  0  0  0  0
    8.3117   -4.3698   27.4436 C   0  0  0  0  0  0  0  0  0  0  0  0
    1.1339   -5.0515   26.3541 C   0  0  0  0  0  0  0  0  0  0  0  0
    4.8080   -8.0362   16.7101 C   0  0  0  0  0  0  0  0  0  0  0  0
   -1.2173   -3.9294   26.9717 O   0  0  0  0  0  0  0  0  0  0  0  0
   -1.0025   -5.0942   27.4586 C   0  0  0  0  0  0  0  0  0  0  0  0
    2.2474   -8.9123   16.6273 C   0  0  0  0  0  0  0  0  0  0  0  0
    4.4957   -9.2636   17.3041 C   0  0  0  0  0  0  0  0  0  0  0  0
   -1.8070   -5.6086   28.1920 O   0  0  0  0  0  0  0  0  0  0  0  0
   10.4296   -5.1799   28.3140 C   0  0  0  0  0  0  0  0  0  0  0  0
    6.6017   -5.9004   26.9187 C   0  0  0  0  0  0  0  0  0  0  0  0
    2.4761   -6.9940   26.4111 N   0  0  0  0  0  0  0  0  0  0  0  0
    9.1353   -5.4053   27.8239 C   0  0  0  0  0  0  0  0  0  0  0  0
    0.9922   -9.3232   16.5995 O   0  0  0  0  0  0  0  0  0  0  0  0
    1.5232   -7.6869   27.1182 C   0  0  0  0  0  0  0  0  0  0  0  0
    8.6878   -6.6715   27.7262 N   0  0  0  0  0  0  0  0  0  0  0  0
    6.9911   -8.2423   27.1808 C   0  0  0  0  0  0  0  0  0  0  0  0
    3.8436   -7.2758   16.0578 C   0  0  0  0  0  0  0  0  0  0  0  0
    3.1882   -9.7190   17.2566 C   0  0  0  0  0  0  0  0  0  0  0  0
    5.3488   -6.1737   26.5092 C   0  0  0  0  0  0  0  0  0  0  0  0
    7.4567   -6.9464   27.2858 C   0  0  0  0  0  0  0  0  0  0  0  0
    0.1921   -5.7592   27.1123 C   0  0  0  0  0  0  0  0  0  0  0  0
    3.5517   -7.7407   25.9711 C   0  0  0  0  0  0  0  0  0  0  0  0
  1  4  4  0
  1 22  4  0
  2 20  4  0
  2 27  4  0
  3 12  4  0
  3 23  4  0
  4 25  4  0
  4 28  1  0
  5  8  4  0
  5 17  4  0
  6  7  4  0
  6 16  4  0
  7 18  4  0
  8 27  4  0
  9 13  4  0
  9 23  4  0
 10 11  1  0
 11 14  2  0
 11 27  1  0
 12 19  1  0
 12 24  4  0
 13 24  4  0
 15 18  1  0
 16 25  4  0
 16 26  4  0
 17 20  4  0
 17 28  1  0
 18 21  4  0
 21 26  4  0
 22 26  4  0
M  END
$$$$

 Created by Python create_sdf_string function

 28 30  0  0  0  0  0  0  0  0999 V2000
    5.7174   -8.4529   26.7190 C   0  0  0  0  0  0  0  0  0  0  0  0
    0.3974   -7.0711   27.5149 C   0  0  0  0  0  0  0  0  0  0  0  0
    2.5338   -7.6891   16.0102 C   0  0  0  0  0  0  0  0  0  0  0  0
    4.8690   -7.4380   26.4151 C   0  0  0  0  0  0  0  0  0  0  0  0
    2.3021   -5.6726   26.0378 C   0  0  0  0  0  0  0  0  0  0  0  0
    7.0880   -4.6163   27.0010 C   0  0  0  0  0  0  0  0  0  0  0  0
    8.3117   -4.3698   27.4436 C   0  0  0  0  0  0  0  0  0  0  0  0
    1.1339   -5.0515   26.3541 C   0  0  0  0  0  0  0  0  0  0  0  0
    4.8080   -8.0362   16.7101 C   0  0  0  0  0  0  0  0  0  0  0  0
   -1.2173   -3.9294   26.9717 O   0  0  0  0  0  0  0  0  0  0  0  0
   -1.0025   -5.0942   27.4586 C   0  0  0  0  0  0  0  0  0  0  0  0
    2.2474   -8.9123   16.6273 C   0  0  0  0  0  0  0  0  0  0  0  0
    4.4957   -9.2636   17.3041 C   0  0  0  0  0  0  0  0  0  0  0  0
   -1.8070   -5.6086   28.1920 O   0  0  0  0  0  0  0  0  0  0  0  0
   10.4296   -5.1799   28.3140 C   0  0  0  0  0  0  0  0  0  0  0  0
    6.6017   -5.9004   26.9187 C   0  0  0  0  0  0  0  0  0  0  0  0
    2.4761   -6.9940   26.4111 N   0  0  0  0  0  0  0  0  0  0  0  0
    9.1353   -5.4053   27.8239 C   0  0  0  0  0  0  0  0  0  0  0  0
    0.9922   -9.3232   16.5995 O   0  0  0  0  0  0  0  0  0  0  0  0
    1.5232   -7.6869   27.1182 C   0  0  0  0  0  0  0  0  0  0  0  0
    8.6878   -6.6715   27.7262 N   0  0  0  0  0  0  0  0  0  0  0  0
    6.9911   -8.2423   27.1808 C   0  0  0  0  0  0  0  0  0  0  0  0
    3.8436   -7.2758   16.0578 C   0  0  0  0  0  0  0  0  0  0  0  0
    3.1882   -9.7190   17.2566 C   0  0  0  0  0  0  0  0  0  0  0  0
    5.3488   -6.1737   26.5092 C   0  0  0  0  0  0  0  0  0  0  0  0
    7.4567   -6.9464   27.2858 C   0  0  0  0  0  0  0  0  0  0  0  0
    0.1921   -5.7592   27.1123 C   0  0  0  0  0  0  0  0  0  0  0  0
    3.5517   -7.7407   25.9711 C   0  0  0  0  0  0  0  0  0  0  0  0
  1  4  4  0
  1 22  4  0
  2 20  4  0
  2 27  4  0
  3 12  4  0
  3 23  4  0
  4 25  4  0
  4 28  1  0
  5  8  4  0
  5 17  4  0
  6  7  4  0
  6 16  4  0
  7 18  4  0
  8 27  4  0
  9 13  4  0
  9 23  4  0
 10 11  1  0
 11 14  2  0
 11 27  1  0
 12 19  1  0
 12 24  4  0
 13 24  4  0
 15 18  1  0
 16 25  4  0
 16 26  4  0
 17 20  4  0
 17 28  1  0
 18 21  4  0
 21 26  4  0
 22 26  4  0
M  END
$$$$

 Created by Python create_sdf_string function

 28 30  0  0  0  0  0  0  0  0999 V2000
    5.7174   -8.4529   26.7190 C   0  0  0  0  0  0  0  0  0  0  0  0
    0.3974   -7.0711   27.5149 C   0  0  0  0  0  0  0  0  0  0  0  0
    2.5338   -7.6891   16.0102 C   0  0  0  0  0  0  0  0  0  0  0  0
    4.8690   -7.4380   26.4151 C   0  0  0  0  0  0  0  0  0  0  0  0
    2.3021   -5.6726   26.0378 C   0  0  0  0  0  0  0  0  0  0  0  0
    7.0880   -4.6163   27.0010 C   0  0  0  0  0  0  0  0  0  0  0  0
    8.3117   -4.3698   27.4436 C   0  0  0  0  0  0  0  0  0  0  0  0
    1.1339   -5.0515   26.3541 C   0  0  0  0  0  0  0  0  0  0  0  0
    4.8080   -8.0362   16.7101 C   0  0  0  0  0  0  0  0  0  0  0  0
   -1.2173   -3.9294   26.9717 O   0  0  0  0  0  0  0  0  0  0  0  0
   -1.0025   -5.0942   27.4586 C   0  0  0  0  0  0  0  0  0  0  0  0
    2.2474   -8.9123   16.6273 C   0  0  0  0  0  0  0  0  0  0  0  0
    4.4957   -9.2636   17.3041 C   0  0  0  0  0  0  0  0  0  0  0  0
   -1.8070   -5.6086   28.1920 O   0  0  0  0  0  0  0  0  0  0  0  0
   10.4296   -5.1799   28.3140 C   0  0  0  0  0  0  0  0  0  0  0  0
    6.6017   -5.9004   26.9187 C   0  0  0  0  0  0  0  0  0  0  0  0
    2.4761   -6.9940   26.4111 N   0  0  0  0  0  0  0  0  0  0  0  0
    9.1353   -5.4053   27.8239 C   0  0  0  0  0  0  0  0  0  0  0  0
    0.9922   -9.3232   16.5995 O   0  0  0  0  0  0  0  0  0  0  0  0
    1.5232   -7.6869   27.1182 C   0  0  0  0  0  0  0  0  0  0  0  0
    8.6878   -6.6715   27.7262 N   0  0  0  0  0  0  0  0  0  0  0  0
    6.9911   -8.2423   27.1808 C   0  0  0  0  0  0  0  0  0  0  0  0
    3.8436   -7.2758   16.0578 C   0  0  0  0  0  0  0  0  0  0  0  0
    3.1882   -9.7190   17.2566 C   0  0  0  0  0  0  0  0  0  0  0  0
    5.3488   -6.1737   26.5092 C   0  0  0  0  0  0  0  0  0  0  0  0
    7.4567   -6.9464   27.2858 C   0  0  0  0  0  0  0  0  0  0  0  0
    0.1921   -5.7592   27.1123 C   0  0  0  0  0  0  0  0  0  0  0  0
    3.5517   -7.7407   25.9711 C   0  0  0  0  0  0  0  0  0  0  0  0
  1  4  4  0
  1 22  4  0
  2 20  4  0
  2 27  4  0
  3 12  4  0
  3 23  4  0
  4 25  4  0
  4 28  1  0
  5  8  4  0
  5 17  4  0
  6  7  4  0
  6 16  4  0
  7 18  4  0
  8 27  4  0
  9 13  4  0
  9 23  4  0
 10 11  1  0
 11 14  2  0
 11 27  1  0
 12 19  1  0
 12 24  4  0
 13 24  4  0
 15 18  1  0
 16 25  4  0
 16 26  4  0
 17 20  4  0
 17 28  1  0
 18 21  4  0
 21 26  4  0
 22 26  4  0
M  END
$$$$

 Created by Python create_sdf_string function

 28 30  0  0  0  0  0  0  0  0999 V2000
    5.7174   -8.4529   26.7190 C   0  0  0  0  0  0  0  0  0  0  0  0
    0.3974   -7.0711   27.5149 C   0  0  0  0  0  0  0  0  0  0  0  0
    2.5338   -7.6891   16.0102 C   0  0  0  0  0  0  0  0  0  0  0  0
    4.8690   -7.4380   26.4151 C   0  0  0  0  0  0  0  0  0  0  0  0
    2.3021   -5.6726   26.0378 C   0  0  0  0  0  0  0  0  0  0  0  0
    7.0880   -4.6163   27.0010 C   0  0  0  0  0  0  0  0  0  0  0  0
    8.3117   -4.3698   27.4436 C   0  0  0  0  0  0  0  0  0  0  0  0
    1.1339   -5.0515   26.3541 C   0  0  0  0  0  0  0  0  0  0  0  0
    4.8080   -8.0362   16.7101 C   0  0  0  0  0  0  0  0  0  0  0  0
   -1.2173   -3.9294   26.9717 O   0  0  0  0  0  0  0  0  0  0  0  0
   -1.0025   -5.0942   27.4586 C   0  0  0  0  0  0  0  0  0  0  0  0
    2.2474   -8.9123   16.6273 C   0  0  0  0  0  0  0  0  0  0  0  0
    4.4957   -9.2636   17.3041 C   0  0  0  0  0  0  0  0  0  0  0  0
   -1.8070   -5.6086   28.1920 O   0  0  0  0  0  0  0  0  0  0  0  0
   10.4296   -5.1799   28.3140 C   0  0  0  0  0  0  0  0  0  0  0  0
    6.6017   -5.9004   26.9187 C   0  0  0  0  0  0  0  0  0  0  0  0
    2.4761   -6.9940   26.4111 N   0  0  0  0  0  0  0  0  0  0  0  0
    9.1353   -5.4053   27.8239 C   0  0  0  0  0  0  0  0  0  0  0  0
    0.9922   -9.3232   16.5995 O   0  0  0  0  0  0  0  0  0  0  0  0
    1.5232   -7.6869   27.1182 C   0  0  0  0  0  0  0  0  0  0  0  0
    8.6878   -6.6715   27.7262 N   0  0  0  0  0  0  0  0  0  0  0  0
    6.9911   -8.2423   27.1808 C   0  0  0  0  0  0  0  0  0  0  0  0
    3.8436   -7.2758   16.0578 C   0  0  0  0  0  0  0  0  0  0  0  0
    3.1882   -9.7190   17.2566 C   0  0  0  0  0  0  0  0  0  0  0  0
    5.3488   -6.1737   26.5092 C   0  0  0  0  0  0  0  0  0  0  0  0
    7.4567   -6.9464   27.2858 C   0  0  0  0  0  0  0  0  0  0  0  0
    0.1921   -5.7592   27.1123 C   0  0  0  0  0  0  0  0  0  0  0  0
    3.5517   -7.7407   25.9711 C   0  0  0  0  0  0  0  0  0  0  0  0
  1  4  4  0
  1 22  4  0
  2 20  4  0
  2 27  4  0
  3 12  4  0
  3 23  4  0
  4 25  4  0
  4 28  1  0
  5  8  4  0
  5 17  4  0
  6  7  4  0
  6 16  4  0
  7 18  4  0
  8 27  4  0
  9 13  4  0
  9 23  4  0
 10 11  1  0
 11 14  2  0
 11 27  1  0
 12 19  1  0
 12 24  4  0
 13 24  4  0
 15 18  1  0
 16 25  4  0
 16 26  4  0
 17 20  4  0
 17 28  1  0
 18 21  4  0
 21 26  4  0
 22 26  4  0
M  END
$$$$

 Created by Python create_sdf_string function

 28 30  0  0  0  0  0  0  0  0999 V2000
    5.7174   -8.4529   26.7190 C   0  0  0  0  0  0  0  0  0  0  0  0
    0.3974   -7.0711   27.5149 C   0  0  0  0  0  0  0  0  0  0  0  0
    2.5338   -7.6891   16.0102 C   0  0  0  0  0  0  0  0  0  0  0  0
    4.8690   -7.4380   26.4151 C   0  0  0  0  0  0  0  0  0  0  0  0
    2.3021   -5.6726   26.0378 C   0  0  0  0  0  0  0  0  0  0  0  0
    7.0880   -4.6163   27.0010 C   0  0  0  0  0  0  0  0  0  0  0  0
    8.3117   -4.3698   27.4436 C   0  0  0  0  0  0  0  0  0  0  0  0
    1.1339   -5.0515   26.3541 C   0  0  0  0  0  0  0  0  0  0  0  0
    4.8080   -8.0362   16.7101 C   0  0  0  0  0  0  0  0  0  0  0  0
   -1.2173   -3.9294   26.9717 O   0  0  0  0  0  0  0  0  0  0  0  0
   -1.0025   -5.0942   27.4586 C   0  0  0  0  0  0  0  0  0  0  0  0
    2.2474   -8.9123   16.6273 C   0  0  0  0  0  0  0  0  0  0  0  0
    4.4957   -9.2636   17.3041 C   0  0  0  0  0  0  0  0  0  0  0  0
   -1.8070   -5.6086   28.1920 O   0  0  0  0  0  0  0  0  0  0  0  0
   10.4296   -5.1799   28.3140 C   0  0  0  0  0  0  0  0  0  0  0  0
    6.6017   -5.9004   26.9187 C   0  0  0  0  0  0  0  0  0  0  0  0
    2.4761   -6.9940   26.4111 N   0  0  0  0  0  0  0  0  0  0  0  0
    9.1353   -5.4053   27.8239 C   0  0  0  0  0  0  0  0  0  0  0  0
    0.9922   -9.3232   16.5995 O   0  0  0  0  0  0  0  0  0  0  0  0
    1.5232   -7.6869   27.1182 C   0  0  0  0  0  0  0  0  0  0  0  0
    8.6878   -6.6715   27.7262 N   0  0  0  0  0  0  0  0  0  0  0  0
    6.9911   -8.2423   27.1808 C   0  0  0  0  0  0  0  0  0  0  0  0
    3.8436   -7.2758   16.0578 C   0  0  0  0  0  0  0  0  0  0  0  0
    3.1882   -9.7190   17.2566 C   0  0  0  0  0  0  0  0  0  0  0  0
    5.3488   -6.1737   26.5092 C   0  0  0  0  0  0  0  0  0  0  0  0
    7.4567   -6.9464   27.2858 C   0  0  0  0  0  0  0  0  0  0  0  0
    0.1921   -5.7592   27.1123 C   0  0  0  0  0  0  0  0  0  0  0  0
    3.5517   -7.7407   25.9711 C   0  0  0  0  0  0  0  0  0  0  0  0
  1  4  4  0
  1 22  4  0
  2 20  4  0
  2 27  4  0
  3 12  4  0
  3 23  4  0
  4 25  4  0
  4 28  1  0
  5  8  4  0
  5 17  4  0
  6  7  4  0
  6 16  4  0
  7 18  4  0
  8 27  4  0
  9 13  4  0
  9 23  4  0
 10 11  1  0
 11 14  2  0
 11 27  1  0
 12 19  1  0
 12 24  4  0
 13 24  4  0
 15 18  1  0
 16 25  4  0
 16 26  4  0
 17 20  4  0
 17 28  1  0
 18 21  4  0
 21 26  4  0
 22 26  4  0
M  END
$$$$

 Created by Python create_sdf_string function

 28 30  0  0  0  0  0  0  0  0999 V2000
    5.7174   -8.4529   26.7190 C   0  0  0  0  0  0  0  0  0  0  0  0
    0.3974   -7.0711   27.5149 C   0  0  0  0  0  0  0  0  0  0  0  0
    2.5338   -7.6891   16.0102 C   0  0  0  0  0  0  0  0  0  0  0  0
    4.8690   -7.4380   26.4151 C   0  0  0  0  0  0  0  0  0  0  0  0
    2.3021   -5.6726   26.0378 C   0  0  0  0  0  0  0  0  0  0  0  0
    7.0880   -4.6163   27.0010 C   0  0  0  0  0  0  0  0  0  0  0  0
    8.3117   -4.3698   27.4436 C   0  0  0  0  0  0  0  0  0  0  0  0
    1.1339   -5.0515   26.3541 C   0  0  0  0  0  0  0  0  0  0  0  0
    4.8080   -8.0362   16.7101 C   0  0  0  0  0  0  0  0  0  0  0  0
   -1.2173   -3.9294   26.9717 O   0  0  0  0  0  0  0  0  0  0  0  0
   -1.0025   -5.0942   27.4586 C   0  0  0  0  0  0  0  0  0  0  0  0
    2.2474   -8.9123   16.6273 C   0  0  0  0  0  0  0  0  0  0  0  0
    4.4957   -9.2636   17.3041 C   0  0  0  0  0  0  0  0  0  0  0  0
   -1.8070   -5.6086   28.1920 O   0  0  0  0  0  0  0  0  0  0  0  0
   10.4296   -5.1799   28.3140 C   0  0  0  0  0  0  0  0  0  0  0  0
    6.6017   -5.9004   26.9187 C   0  0  0  0  0  0  0  0  0  0  0  0
    2.4761   -6.9940   26.4111 N   0  0  0  0  0  0  0  0  0  0  0  0
    9.1353   -5.4053   27.8239 C   0  0  0  0  0  0  0  0  0  0  0  0
    0.9922   -9.3232   16.5995 O   0  0  0  0  0  0  0  0  0  0  0  0
    1.5232   -7.6869   27.1182 C   0  0  0  0  0  0  0  0  0  0  0  0
    8.6878   -6.6715   27.7262 N   0  0  0  0  0  0  0  0  0  0  0  0
    6.9911   -8.2423   27.1808 C   0  0  0  0  0  0  0  0  0  0  0  0
    3.8436   -7.2758   16.0578 C   0  0  0  0  0  0  0  0  0  0  0  0
    3.1882   -9.7190   17.2566 C   0  0  0  0  0  0  0  0  0  0  0  0
    5.3488   -6.1737   26.5092 C   0  0  0  0  0  0  0  0  0  0  0  0
    7.4567   -6.9464   27.2858 C   0  0  0  0  0  0  0  0  0  0  0  0
    0.1921   -5.7592   27.1123 C   0  0  0  0  0  0  0  0  0  0  0  0
    3.5517   -7.7407   25.9711 C   0  0  0  0  0  0  0  0  0  0  0  0
  1  4  4  0
  1 22  4  0
  2 20  4  0
  2 27  4  0
  3 12  4  0
  3 23  4  0
  4 25  4  0
  4 28  1  0
  5  8  4  0
  5 17  4  0
  6  7  4  0
  6 16  4  0
  7 18  4  0
  8 27  4  0
  9 13  4  0
  9 23  4  0
 10 11  1  0
 11 14  2  0
 11 27  1  0
 12 19  1  0
 12 24  4  0
 13 24  4  0
 15 18  1  0
 16 25  4  0
 16 26  4  0
 17 20  4  0
 17 28  1  0
 18 21  4  0
 21 26  4  0
 22 26  4  0
M  END
$$$$

 Created by Python create_sdf_string function

 28 30  0  0  0  0  0  0  0  0999 V2000
    5.7174   -8.4529   26.7190 C   0  0  0  0  0  0  0  0  0  0  0  0
    0.3974   -7.0711   27.5149 C   0  0  0  0  0  0  0  0  0  0  0  0
    2.5338   -7.6891   16.0102 C   0  0  0  0  0  0  0  0  0  0  0  0
    4.8690   -7.4380   26.4151 C   0  0  0  0  0  0  0  0  0  0  0  0
    2.3021   -5.6726   26.0378 C   0  0  0  0  0  0  0  0  0  0  0  0
    7.0880   -4.6163   27.0010 C   0  0  0  0  0  0  0  0  0  0  0  0
    8.3117   -4.3698   27.4436 C   0  0  0  0  0  0  0  0  0  0  0  0
    1.1339   -5.0515   26.3541 C   0  0  0  0  0  0  0  0  0  0  0  0
    4.8080   -8.0362   16.7101 C   0  0  0  0  0  0  0  0  0  0  0  0
   -1.2173   -3.9294   26.9717 O   0  0  0  0  0  0  0  0  0  0  0  0
   -1.0025   -5.0942   27.4586 C   0  0  0  0  0  0  0  0  0  0  0  0
    2.2474   -8.9123   16.6273 C   0  0  0  0  0  0  0  0  0  0  0  0
    4.4957   -9.2636   17.3041 C   0  0  0  0  0  0  0  0  0  0  0  0
   -1.8070   -5.6086   28.1920 O   0  0  0  0  0  0  0  0  0  0  0  0
   10.4296   -5.1799   28.3140 C   0  0  0  0  0  0  0  0  0  0  0  0
    6.6017   -5.9004   26.9187 C   0  0  0  0  0  0  0  0  0  0  0  0
    2.4761   -6.9940   26.4111 N   0  0  0  0  0  0  0  0  0  0  0  0
    9.1353   -5.4053   27.8239 C   0  0  0  0  0  0  0  0  0  0  0  0
    0.9922   -9.3232   16.5995 O   0  0  0  0  0  0  0  0  0  0  0  0
    1.5232   -7.6869   27.1182 C   0  0  0  0  0  0  0  0  0  0  0  0
    8.6878   -6.6715   27.7262 N   0  0  0  0  0  0  0  0  0  0  0  0
    6.9911   -8.2423   27.1808 C   0  0  0  0  0  0  0  0  0  0  0  0
    3.8436   -7.2758   16.0578 C   0  0  0  0  0  0  0  0  0  0  0  0
    3.1882   -9.7190   17.2566 C   0  0  0  0  0  0  0  0  0  0  0  0
    5.3488   -6.1737   26.5092 C   0  0  0  0  0  0  0  0  0  0  0  0
    7.4567   -6.9464   27.2858 C   0  0  0  0  0  0  0  0  0  0  0  0
    0.1921   -5.7592   27.1123 C   0  0  0  0  0  0  0  0  0  0  0  0
    3.5517   -7.7407   25.9711 C   0  0  0  0  0  0  0  0  0  0  0  0
  1  4  4  0
  1 22  4  0
  2 20  4  0
  2 27  4  0
  3 12  4  0
  3 23  4  0
  4 25  4  0
  4 28  1  0
  5  8  4  0
  5 17  4  0
  6  7  4  0
  6 16  4  0
  7 18  4  0
  8 27  4  0
  9 13  4  0
  9 23  4  0
 10 11  1  0
 11 14  2  0
 11 27  1  0
 12 19  1  0
 12 24  4  0
 13 24  4  0
 15 18  1  0
 16 25  4  0
 16 26  4  0
 17 20  4  0
 17 28  1  0
 18 21  4  0
 21 26  4  0
 22 26  4  0
M  END
$$$$

 Created by Python create_sdf_string function

 28 30  0  0  0  0  0  0  0  0999 V2000
    5.7174   -8.4529   26.7190 C   0  0  0  0  0  0  0  0  0  0  0  0
    0.3974   -7.0711   27.5149 C   0  0  0  0  0  0  0  0  0  0  0  0
    2.5338   -7.6891   16.0102 C   0  0  0  0  0  0  0  0  0  0  0  0
    4.8690   -7.4380   26.4151 C   0  0  0  0  0  0  0  0  0  0  0  0
    2.3021   -5.6726   26.0378 C   0  0  0  0  0  0  0  0  0  0  0  0
    7.0880   -4.6163   27.0010 C   0  0  0  0  0  0  0  0  0  0  0  0
    8.3117   -4.3698   27.4436 C   0  0  0  0  0  0  0  0  0  0  0  0
    1.1339   -5.0515   26.3541 C   0  0  0  0  0  0  0  0  0  0  0  0
    4.8080   -8.0362   16.7101 C   0  0  0  0  0  0  0  0  0  0  0  0
   -1.2173   -3.9294   26.9717 O   0  0  0  0  0  0  0  0  0  0  0  0
   -1.0025   -5.0942   27.4586 C   0  0  0  0  0  0  0  0  0  0  0  0
    2.2474   -8.9123   16.6273 C   0  0  0  0  0  0  0  0  0  0  0  0
    4.4957   -9.2636   17.3041 C   0  0  0  0  0  0  0  0  0  0  0  0
   -1.8070   -5.6086   28.1920 O   0  0  0  0  0  0  0  0  0  0  0  0
   10.4296   -5.1799   28.3140 C   0  0  0  0  0  0  0  0  0  0  0  0
    6.6017   -5.9004   26.9187 C   0  0  0  0  0  0  0  0  0  0  0  0
    2.4761   -6.9940   26.4111 N   0  0  0  0  0  0  0  0  0  0  0  0
    9.1353   -5.4053   27.8239 C   0  0  0  0  0  0  0  0  0  0  0  0
    0.9922   -9.3232   16.5995 O   0  0  0  0  0  0  0  0  0  0  0  0
    1.5232   -7.6869   27.1182 C   0  0  0  0  0  0  0  0  0  0  0  0
    8.6878   -6.6715   27.7262 N   0  0  0  0  0  0  0  0  0  0  0  0
    6.9911   -8.2423   27.1808 C   0  0  0  0  0  0  0  0  0  0  0  0
    3.8436   -7.2758   16.0578 C   0  0  0  0  0  0  0  0  0  0  0  0
    3.1882   -9.7190   17.2566 C   0  0  0  0  0  0  0  0  0  0  0  0
    5.3488   -6.1737   26.5092 C   0  0  0  0  0  0  0  0  0  0  0  0
    7.4567   -6.9464   27.2858 C   0  0  0  0  0  0  0  0  0  0  0  0
    0.1921   -5.7592   27.1123 C   0  0  0  0  0  0  0  0  0  0  0  0
    3.5517   -7.7407   25.9711 C   0  0  0  0  0  0  0  0  0  0  0  0
  1  4  4  0
  1 22  4  0
  2 20  4  0
  2 27  4  0
  3 12  4  0
  3 23  4  0
  4 25  4  0
  4 28  1  0
  5  8  4  0
  5 17  4  0
  6  7  4  0
  6 16  4  0
  7 18  4  0
  8 27  4  0
  9 13  4  0
  9 23  4  0
 10 11  1  0
 11 14  2  0
 11 27  1  0
 12 19  1  0
 12 24  4  0
 13 24  4  0
 15 18  1  0
 16 25  4  0
 16 26  4  0
 17 20  4  0
 17 28  1  0
 18 21  4  0
 21 26  4  0
 22 26  4  0
M  END
$$$$

 Created by Python create_sdf_string function

 28 30  0  0  0  0  0  0  0  0999 V2000
    5.7174   -8.4529   26.7190 C   0  0  0  0  0  0  0  0  0  0  0  0
    0.3974   -7.0711   27.5149 C   0  0  0  0  0  0  0  0  0  0  0  0
    2.5338   -7.6891   16.0102 C   0  0  0  0  0  0  0  0  0  0  0  0
    4.8690   -7.4380   26.4151 C   0  0  0  0  0  0  0  0  0  0  0  0
    2.3021   -5.6726   26.0378 C   0  0  0  0  0  0  0  0  0  0  0  0
    7.0880   -4.6163   27.0010 C   0  0  0  0  0  0  0  0  0  0  0  0
    8.3117   -4.3698   27.4436 C   0  0  0  0  0  0  0  0  0  0  0  0
    1.1339   -5.0515   26.3541 C   0  0  0  0  0  0  0  0  0  0  0  0
    4.8080   -8.0362   16.7101 C   0  0  0  0  0  0  0  0  0  0  0  0
   -1.2173   -3.9294   26.9717 O   0  0  0  0  0  0  0  0  0  0  0  0
   -1.0025   -5.0942   27.4586 C   0  0  0  0  0  0  0  0  0  0  0  0
    2.2474   -8.9123   16.6273 C   0  0  0  0  0  0  0  0  0  0  0  0
    4.4957   -9.2636   17.3041 C   0  0  0  0  0  0  0  0  0  0  0  0
   -1.8070   -5.6086   28.1920 O   0  0  0  0  0  0  0  0  0  0  0  0
   10.4296   -5.1799   28.3140 C   0  0  0  0  0  0  0  0  0  0  0  0
    6.6017   -5.9004   26.9187 C   0  0  0  0  0  0  0  0  0  0  0  0
    2.4761   -6.9940   26.4111 N   0  0  0  0  0  0  0  0  0  0  0  0
    9.1353   -5.4053   27.8239 C   0  0  0  0  0  0  0  0  0  0  0  0
    0.9922   -9.3232   16.5995 O   0  0  0  0  0  0  0  0  0  0  0  0
    1.5232   -7.6869   27.1182 C   0  0  0  0  0  0  0  0  0  0  0  0
    8.6878   -6.6715   27.7262 N   0  0  0  0  0  0  0  0  0  0  0  0
    6.9911   -8.2423   27.1808 C   0  0  0  0  0  0  0  0  0  0  0  0
    3.8436   -7.2758   16.0578 C   0  0  0  0  0  0  0  0  0  0  0  0
    3.1882   -9.7190   17.2566 C   0  0  0  0  0  0  0  0  0  0  0  0
    5.3488   -6.1737   26.5092 C   0  0  0  0  0  0  0  0  0  0  0  0
    7.4567   -6.9464   27.2858 C   0  0  0  0  0  0  0  0  0  0  0  0
    0.1921   -5.7592   27.1123 C   0  0  0  0  0  0  0  0  0  0  0  0
    3.5517   -7.7407   25.9711 C   0  0  0  0  0  0  0  0  0  0  0  0
  1  4  4  0
  1 22  4  0
  2 20  4  0
  2 27  4  0
  3 12  4  0
  3 23  4  0
  4 25  4  0
  4 28  1  0
  5  8  4  0
  5 17  4  0
  6  7  4  0
  6 16  4  0
  7 18  4  0
  8 27  4  0
  9 13  4  0
  9 23  4  0
 10 11  1  0
 11 14  2  0
 11 27  1  0
 12 19  1  0
 12 24  4  0
 13 24  4  0
 15 18  1  0
 16 25  4  0
 16 26  4  0
 17 20  4  0
 17 28  1  0
 18 21  4  0
 21 26  4  0
 22 26  4  0
M  END
$$$$

 Created by Python create_sdf_string function

 28 30  0  0  0  0  0  0  0  0999 V2000
    5.7174   -8.4529   26.7190 C   0  0  0  0  0  0  0  0  0  0  0  0
    0.3974   -7.0711   27.5149 C   0  0  0  0  0  0  0  0  0  0  0  0
    2.5338   -7.6891   16.0102 C   0  0  0  0  0  0  0  0  0  0  0  0
    4.8690   -7.4380   26.4151 C   0  0  0  0  0  0  0  0  0  0  0  0
    2.3021   -5.6726   26.0378 C   0  0  0  0  0  0  0  0  0  0  0  0
    7.0880   -4.6163   27.0010 C   0  0  0  0  0  0  0  0  0  0  0  0
    8.3117   -4.3698   27.4436 C   0  0  0  0  0  0  0  0  0  0  0  0
    1.1339   -5.0515   26.3541 C   0  0  0  0  0  0  0  0  0  0  0  0
    4.8080   -8.0362   16.7101 C   0  0  0  0  0  0  0  0  0  0  0  0
   -1.2173   -3.9294   26.9717 O   0  0  0  0  0  0  0  0  0  0  0  0
   -1.0025   -5.0942   27.4586 C   0  0  0  0  0  0  0  0  0  0  0  0
    2.2474   -8.9123   16.6273 C   0  0  0  0  0  0  0  0  0  0  0  0
    4.4957   -9.2636   17.3041 C   0  0  0  0  0  0  0  0  0  0  0  0
   -1.8070   -5.6086   28.1920 O   0  0  0  0  0  0  0  0  0  0  0  0
   10.4296   -5.1799   28.3140 C   0  0  0  0  0  0  0  0  0  0  0  0
    6.6017   -5.9004   26.9187 C   0  0  0  0  0  0  0  0  0  0  0  0
    2.4761   -6.9940   26.4111 N   0  0  0  0  0  0  0  0  0  0  0  0
    9.1353   -5.4053   27.8239 C   0  0  0  0  0  0  0  0  0  0  0  0
    0.9922   -9.3232   16.5995 O   0  0  0  0  0  0  0  0  0  0  0  0
    1.5232   -7.6869   27.1182 C   0  0  0  0  0  0  0  0  0  0  0  0
    8.6878   -6.6715   27.7262 N   0  0  0  0  0  0  0  0  0  0  0  0
    6.9911   -8.2423   27.1808 C   0  0  0  0  0  0  0  0  0  0  0  0
    3.8436   -7.2758   16.0578 C   0  0  0  0  0  0  0  0  0  0  0  0
    3.1882   -9.7190   17.2566 C   0  0  0  0  0  0  0  0  0  0  0  0
    5.3488   -6.1737   26.5092 C   0  0  0  0  0  0  0  0  0  0  0  0
    7.4567   -6.9464   27.2858 C   0  0  0  0  0  0  0  0  0  0  0  0
    0.1921   -5.7592   27.1123 C   0  0  0  0  0  0  0  0  0  0  0  0
    3.5517   -7.7407   25.9711 C   0  0  0  0  0  0  0  0  0  0  0  0
  1  4  4  0
  1 22  4  0
  2 20  4  0
  2 27  4  0
  3 12  4  0
  3 23  4  0
  4 25  4  0
  4 28  1  0
  5  8  4  0
  5 17  4  0
  6  7  4  0
  6 16  4  0
  7 18  4  0
  8 27  4  0
  9 13  4  0
  9 23  4  0
 10 11  1  0
 11 14  2  0
 11 27  1  0
 12 19  1  0
 12 24  4  0
 13 24  4  0
 15 18  1  0
 16 25  4  0
 16 26  4  0
 17 20  4  0
 17 28  1  0
 18 21  4  0
 21 26  4  0
 22 26  4  0
M  END
$$$$

 Created by Python create_sdf_string function

 28 30  0  0  0  0  0  0  0  0999 V2000
    5.7174   -8.4529   26.7190 C   0  0  0  0  0  0  0  0  0  0  0  0
    0.3974   -7.0711   27.5149 C   0  0  0  0  0  0  0  0  0  0  0  0
    2.5338   -7.6891   16.0102 C   0  0  0  0  0  0  0  0  0  0  0  0
    4.8690   -7.4380   26.4151 C   0  0  0  0  0  0  0  0  0  0  0  0
    2.3021   -5.6726   26.0378 C   0  0  0  0  0  0  0  0  0  0  0  0
    7.0880   -4.6163   27.0010 C   0  0  0  0  0  0  0  0  0  0  0  0
    8.3117   -4.3698   27.4436 C   0  0  0  0  0  0  0  0  0  0  0  0
    1.1339   -5.0515   26.3541 C   0  0  0  0  0  0  0  0  0  0  0  0
    4.8080   -8.0362   16.7101 C   0  0  0  0  0  0  0  0  0  0  0  0
   -1.2173   -3.9294   26.9717 O   0  0  0  0  0  0  0  0  0  0  0  0
   -1.0025   -5.0942   27.4586 C   0  0  0  0  0  0  0  0  0  0  0  0
    2.2474   -8.9123   16.6273 C   0  0  0  0  0  0  0  0  0  0  0  0
    4.4957   -9.2636   17.3041 C   0  0  0  0  0  0  0  0  0  0  0  0
   -1.8070   -5.6086   28.1920 O   0  0  0  0  0  0  0  0  0  0  0  0
   10.4296   -5.1799   28.3140 C   0  0  0  0  0  0  0  0  0  0  0  0
    6.6017   -5.9004   26.9187 C   0  0  0  0  0  0  0  0  0  0  0  0
    2.4761   -6.9940   26.4111 N   0  0  0  0  0  0  0  0  0  0  0  0
    9.1353   -5.4053   27.8239 C   0  0  0  0  0  0  0  0  0  0  0  0
    0.9922   -9.3232   16.5995 O   0  0  0  0  0  0  0  0  0  0  0  0
    1.5232   -7.6869   27.1182 C   0  0  0  0  0  0  0  0  0  0  0  0
    8.6878   -6.6715   27.7262 N   0  0  0  0  0  0  0  0  0  0  0  0
    6.9911   -8.2423   27.1808 C   0  0  0  0  0  0  0  0  0  0  0  0
    3.8436   -7.2758   16.0578 C   0  0  0  0  0  0  0  0  0  0  0  0
    3.1882   -9.7190   17.2566 C   0  0  0  0  0  0  0  0  0  0  0  0
    5.3488   -6.1737   26.5092 C   0  0  0  0  0  0  0  0  0  0  0  0
    7.4567   -6.9464   27.2858 C   0  0  0  0  0  0  0  0  0  0  0  0
    0.1921   -5.7592   27.1123 C   0  0  0  0  0  0  0  0  0  0  0  0
    3.5517   -7.7407   25.9711 C   0  0  0  0  0  0  0  0  0  0  0  0
  1  4  4  0
  1 22  4  0
  2 20  4  0
  2 27  4  0
  3 12  4  0
  3 23  4  0
  4 25  4  0
  4 28  1  0
  5  8  4  0
  5 17  4  0
  6  7  4  0
  6 16  4  0
  7 18  4  0
  8 27  4  0
  9 13  4  0
  9 23  4  0
 10 11  1  0
 11 14  2  0
 11 27  1  0
 12 19  1  0
 12 24  4  0
 13 24  4  0
 15 18  1  0
 16 25  4  0
 16 26  4  0
 17 20  4  0
 17 28  1  0
 18 21  4  0
 21 26  4  0
 22 26  4  0
M  END
$$$$

 Created by Python create_sdf_string function

 28 30  0  0  0  0  0  0  0  0999 V2000
    5.7174   -8.4529   26.7190 C   0  0  0  0  0  0  0  0  0  0  0  0
    0.3974   -7.0711   27.5149 C   0  0  0  0  0  0  0  0  0  0  0  0
    2.5338   -7.6891   16.0102 C   0  0  0  0  0  0  0  0  0  0  0  0
    4.8690   -7.4380   26.4151 C   0  0  0  0  0  0  0  0  0  0  0  0
    2.3021   -5.6726   26.0378 C   0  0  0  0  0  0  0  0  0  0  0  0
    7.0880   -4.6163   27.0010 C   0  0  0  0  0  0  0  0  0  0  0  0
    8.3117   -4.3698   27.4436 C   0  0  0  0  0  0  0  0  0  0  0  0
    1.1339   -5.0515   26.3541 C   0  0  0  0  0  0  0  0  0  0  0  0
    4.8080   -8.0362   16.7101 C   0  0  0  0  0  0  0  0  0  0  0  0
   -1.2173   -3.9294   26.9717 O   0  0  0  0  0  0  0  0  0  0  0  0
   -1.0025   -5.0942   27.4586 C   0  0  0  0  0  0  0  0  0  0  0  0
    2.2474   -8.9123   16.6273 C   0  0  0  0  0  0  0  0  0  0  0  0
    4.4957   -9.2636   17.3041 C   0  0  0  0  0  0  0  0  0  0  0  0
   -1.8070   -5.6086   28.1920 O   0  0  0  0  0  0  0  0  0  0  0  0
   10.4296   -5.1799   28.3140 C   0  0  0  0  0  0  0  0  0  0  0  0
    6.6017   -5.9004   26.9187 C   0  0  0  0  0  0  0  0  0  0  0  0
    2.4761   -6.9940   26.4111 N   0  0  0  0  0  0  0  0  0  0  0  0
    9.1353   -5.4053   27.8239 C   0  0  0  0  0  0  0  0  0  0  0  0
    0.9922   -9.3232   16.5995 O   0  0  0  0  0  0  0  0  0  0  0  0
    1.5232   -7.6869   27.1182 C   0  0  0  0  0  0  0  0  0  0  0  0
    8.6878   -6.6715   27.7262 N   0  0  0  0  0  0  0  0  0  0  0  0
    6.9911   -8.2423   27.1808 C   0  0  0  0  0  0  0  0  0  0  0  0
    3.8436   -7.2758   16.0578 C   0  0  0  0  0  0  0  0  0  0  0  0
    3.1882   -9.7190   17.2566 C   0  0  0  0  0  0  0  0  0  0  0  0
    5.3488   -6.1737   26.5092 C   0  0  0  0  0  0  0  0  0  0  0  0
    7.4567   -6.9464   27.2858 C   0  0  0  0  0  0  0  0  0  0  0  0
    0.1921   -5.7592   27.1123 C   0  0  0  0  0  0  0  0  0  0  0  0
    3.5517   -7.7407   25.9711 C   0  0  0  0  0  0  0  0  0  0  0  0
  1  4  4  0
  1 22  4  0
  2 20  4  0
  2 27  4  0
  3 12  4  0
  3 23  4  0
  4 25  4  0
  4 28  1  0
  5  8  4  0
  5 17  4  0
  6  7  4  0
  6 16  4  0
  7 18  4  0
  8 27  4  0
  9 13  4  0
  9 23  4  0
 10 11  1  0
 11 14  2  0
 11 27  1  0
 12 19  1  0
 12 24  4  0
 13 24  4  0
 15 18  1  0
 16 25  4  0
 16 26  4  0
 17 20  4  0
 17 28  1  0
 18 21  4  0
 21 26  4  0
 22 26  4  0
M  END
$$$$

 Created by Python create_sdf_string function

 28 30  0  0  0  0  0  0  0  0999 V2000
    5.7174   -8.4529   26.7190 C   0  0  0  0  0  0  0  0  0  0  0  0
    0.3974   -7.0711   27.5149 C   0  0  0  0  0  0  0  0  0  0  0  0
    2.5338   -7.6891   16.0102 C   0  0  0  0  0  0  0  0  0  0  0  0
    4.8690   -7.4380   26.4151 C   0  0  0  0  0  0  0  0  0  0  0  0
    2.3021   -5.6726   26.0378 C   0  0  0  0  0  0  0  0  0  0  0  0
    7.0880   -4.6163   27.0010 C   0  0  0  0  0  0  0  0  0  0  0  0
    8.3117   -4.3698   27.4436 C   0  0  0  0  0  0  0  0  0  0  0  0
    1.1339   -5.0515   26.3541 C   0  0  0  0  0  0  0  0  0  0  0  0
    4.8080   -8.0362   16.7101 C   0  0  0  0  0  0  0  0  0  0  0  0
   -1.2173   -3.9294   26.9717 O   0  0  0  0  0  0  0  0  0  0  0  0
   -1.0025   -5.0942   27.4586 C   0  0  0  0  0  0  0  0  0  0  0  0
    2.2474   -8.9123   16.6273 C   0  0  0  0  0  0  0  0  0  0  0  0
    4.4957   -9.2636   17.3041 C   0  0  0  0  0  0  0  0  0  0  0  0
   -1.8070   -5.6086   28.1920 O   0  0  0  0  0  0  0  0  0  0  0  0
   10.4296   -5.1799   28.3140 C   0  0  0  0  0  0  0  0  0  0  0  0
    6.6017   -5.9004   26.9187 C   0  0  0  0  0  0  0  0  0  0  0  0
    2.4761   -6.9940   26.4111 N   0  0  0  0  0  0  0  0  0  0  0  0
    9.1353   -5.4053   27.8239 C   0  0  0  0  0  0  0  0  0  0  0  0
    0.9922   -9.3232   16.5995 O   0  0  0  0  0  0  0  0  0  0  0  0
    1.5232   -7.6869   27.1182 C   0  0  0  0  0  0  0  0  0  0  0  0
    8.6878   -6.6715   27.7262 N   0  0  0  0  0  0  0  0  0  0  0  0
    6.9911   -8.2423   27.1808 C   0  0  0  0  0  0  0  0  0  0  0  0
    3.8436   -7.2758   16.0578 C   0  0  0  0  0  0  0  0  0  0  0  0
    3.1882   -9.7190   17.2566 C   0  0  0  0  0  0  0  0  0  0  0  0
    5.3488   -6.1737   26.5092 C   0  0  0  0  0  0  0  0  0  0  0  0
    7.4567   -6.9464   27.2858 C   0  0  0  0  0  0  0  0  0  0  0  0
    0.1921   -5.7592   27.1123 C   0  0  0  0  0  0  0  0  0  0  0  0
    3.5517   -7.7407   25.9711 C   0  0  0  0  0  0  0  0  0  0  0  0
  1  4  4  0
  1 22  4  0
  2 20  4  0
  2 27  4  0
  3 12  4  0
  3 23  4  0
  4 25  4  0
  4 28  1  0
  5  8  4  0
  5 17  4  0
  6  7  4  0
  6 16  4  0
  7 18  4  0
  8 27  4  0
  9 13  4  0
  9 23  4  0
 10 11  1  0
 11 14  2  0
 11 27  1  0
 12 19  1  0
 12 24  4  0
 13 24  4  0
 15 18  1  0
 16 25  4  0
 16 26  4  0
 17 20  4  0
 17 28  1  0
 18 21  4  0
 21 26  4  0
 22 26  4  0
M  END
$$$$

 Created by Python create_sdf_string function

 28 30  0  0  0  0  0  0  0  0999 V2000
    5.7174   -8.4529   26.7190 C   0  0  0  0  0  0  0  0  0  0  0  0
    0.3974   -7.0711   27.5149 C   0  0  0  0  0  0  0  0  0  0  0  0
    2.5338   -7.6891   16.0102 C   0  0  0  0  0  0  0  0  0  0  0  0
    4.8690   -7.4380   26.4151 C   0  0  0  0  0  0  0  0  0  0  0  0
    2.3021   -5.6726   26.0378 C   0  0  0  0  0  0  0  0  0  0  0  0
    7.0880   -4.6163   27.0010 C   0  0  0  0  0  0  0  0  0  0  0  0
    8.3117   -4.3698   27.4436 C   0  0  0  0  0  0  0  0  0  0  0  0
    1.1339   -5.0515   26.3541 C   0  0  0  0  0  0  0  0  0  0  0  0
    4.8080   -8.0362   16.7101 C   0  0  0  0  0  0  0  0  0  0  0  0
   -1.2173   -3.9294   26.9717 O   0  0  0  0  0  0  0  0  0  0  0  0
   -1.0025   -5.0942   27.4586 C   0  0  0  0  0  0  0  0  0  0  0  0
    2.2474   -8.9123   16.6273 C   0  0  0  0  0  0  0  0  0  0  0  0
    4.4957   -9.2636   17.3041 C   0  0  0  0  0  0  0  0  0  0  0  0
   -1.8070   -5.6086   28.1920 O   0  0  0  0  0  0  0  0  0  0  0  0
   10.4296   -5.1799   28.3140 C   0  0  0  0  0  0  0  0  0  0  0  0
    6.6017   -5.9004   26.9187 C   0  0  0  0  0  0  0  0  0  0  0  0
    2.4761   -6.9940   26.4111 N   0  0  0  0  0  0  0  0  0  0  0  0
    9.1353   -5.4053   27.8239 C   0  0  0  0  0  0  0  0  0  0  0  0
    0.9922   -9.3232   16.5995 O   0  0  0  0  0  0  0  0  0  0  0  0
    1.5232   -7.6869   27.1182 C   0  0  0  0  0  0  0  0  0  0  0  0
    8.6878   -6.6715   27.7262 N   0  0  0  0  0  0  0  0  0  0  0  0
    6.9911   -8.2423   27.1808 C   0  0  0  0  0  0  0  0  0  0  0  0
    3.8436   -7.2758   16.0578 C   0  0  0  0  0  0  0  0  0  0  0  0
    3.1882   -9.7190   17.2566 C   0  0  0  0  0  0  0  0  0  0  0  0
    5.3488   -6.1737   26.5092 C   0  0  0  0  0  0  0  0  0  0  0  0
    7.4567   -6.9464   27.2858 C   0  0  0  0  0  0  0  0  0  0  0  0
    0.1921   -5.7592   27.1123 C   0  0  0  0  0  0  0  0  0  0  0  0
    3.5517   -7.7407   25.9711 C   0  0  0  0  0  0  0  0  0  0  0  0
  1  4  4  0
  1 22  4  0
  2 20  4  0
  2 27  4  0
  3 12  4  0
  3 23  4  0
  4 25  4  0
  4 28  1  0
  5  8  4  0
  5 17  4  0
  6  7  4  0
  6 16  4  0
  7 18  4  0
  8 27  4  0
  9 13  4  0
  9 23  4  0
 10 11  1  0
 11 14  2  0
 11 27  1  0
 12 19  1  0
 12 24  4  0
 13 24  4  0
 15 18  1  0
 16 25  4  0
 16 26  4  0
 17 20  4  0
 17 28  1  0
 18 21  4  0
 21 26  4  0
 22 26  4  0
M  END
$$$$

 Created by Python create_sdf_string function

 28 30  0  0  0  0  0  0  0  0999 V2000
    5.7174   -8.4529   26.7190 C   0  0  0  0  0  0  0  0  0  0  0  0
    0.3974   -7.0711   27.5149 C   0  0  0  0  0  0  0  0  0  0  0  0
    2.5338   -7.6891   16.0102 C   0  0  0  0  0  0  0  0  0  0  0  0
    4.8690   -7.4380   26.4151 C   0  0  0  0  0  0  0  0  0  0  0  0
    2.3021   -5.6726   26.0378 C   0  0  0  0  0  0  0  0  0  0  0  0
    7.0880   -4.6163   27.0010 C   0  0  0  0  0  0  0  0  0  0  0  0
    8.3117   -4.3698   27.4436 C   0  0  0  0  0  0  0  0  0  0  0  0
    1.1339   -5.0515   26.3541 C   0  0  0  0  0  0  0  0  0  0  0  0
    4.8080   -8.0362   16.7101 C   0  0  0  0  0  0  0  0  0  0  0  0
   -1.2173   -3.9294   26.9717 O   0  0  0  0  0  0  0  0  0  0  0  0
   -1.0025   -5.0942   27.4586 C   0  0  0  0  0  0  0  0  0  0  0  0
    2.2474   -8.9123   16.6273 C   0  0  0  0  0  0  0  0  0  0  0  0
    4.4957   -9.2636   17.3041 C   0  0  0  0  0  0  0  0  0  0  0  0
   -1.8070   -5.6086   28.1920 O   0  0  0  0  0  0  0  0  0  0  0  0
   10.4296   -5.1799   28.3140 C   0  0  0  0  0  0  0  0  0  0  0  0
    6.6017   -5.9004   26.9187 C   0  0  0  0  0  0  0  0  0  0  0  0
    2.4761   -6.9940   26.4111 N   0  0  0  0  0  0  0  0  0  0  0  0
    9.1353   -5.4053   27.8239 C   0  0  0  0  0  0  0  0  0  0  0  0
    0.9922   -9.3232   16.5995 O   0  0  0  0  0  0  0  0  0  0  0  0
    1.5232   -7.6869   27.1182 C   0  0  0  0  0  0  0  0  0  0  0  0
    8.6878   -6.6715   27.7262 N   0  0  0  0  0  0  0  0  0  0  0  0
    6.9911   -8.2423   27.1808 C   0  0  0  0  0  0  0  0  0  0  0  0
    3.8436   -7.2758   16.0578 C   0  0  0  0  0  0  0  0  0  0  0  0
    3.1882   -9.7190   17.2566 C   0  0  0  0  0  0  0  0  0  0  0  0
    5.3488   -6.1737   26.5092 C   0  0  0  0  0  0  0  0  0  0  0  0
    7.4567   -6.9464   27.2858 C   0  0  0  0  0  0  0  0  0  0  0  0
    0.1921   -5.7592   27.1123 C   0  0  0  0  0  0  0  0  0  0  0  0
    3.5517   -7.7407   25.9711 C   0  0  0  0  0  0  0  0  0  0  0  0
  1  4  4  0
  1 22  4  0
  2 20  4  0
  2 27  4  0
  3 12  4  0
  3 23  4  0
  4 25  4  0
  4 28  1  0
  5  8  4  0
  5 17  4  0
  6  7  4  0
  6 16  4  0
  7 18  4  0
  8 27  4  0
  9 13  4  0
  9 23  4  0
 10 11  1  0
 11 14  2  0
 11 27  1  0
 12 19  1  0
 12 24  4  0
 13 24  4  0
 15 18  1  0
 16 25  4  0
 16 26  4  0
 17 20  4  0
 17 28  1  0
 18 21  4  0
 21 26  4  0
 22 26  4  0
M  END
$$$$

 Created by Python create_sdf_string function

 28 30  0  0  0  0  0  0  0  0999 V2000
    5.7174   -8.4529   26.7190 C   0  0  0  0  0  0  0  0  0  0  0  0
    0.3974   -7.0711   27.5149 C   0  0  0  0  0  0  0  0  0  0  0  0
    2.5338   -7.6891   16.0102 C   0  0  0  0  0  0  0  0  0  0  0  0
    4.8690   -7.4380   26.4151 C   0  0  0  0  0  0  0  0  0  0  0  0
    2.3021   -5.6726   26.0378 C   0  0  0  0  0  0  0  0  0  0  0  0
    7.0880   -4.6163   27.0010 C   0  0  0  0  0  0  0  0  0  0  0  0
    8.3117   -4.3698   27.4436 C   0  0  0  0  0  0  0  0  0  0  0  0
    1.1339   -5.0515   26.3541 C   0  0  0  0  0  0  0  0  0  0  0  0
    4.8080   -8.0362   16.7101 C   0  0  0  0  0  0  0  0  0  0  0  0
   -1.2173   -3.9294   26.9717 O   0  0  0  0  0  0  0  0  0  0  0  0
   -1.0025   -5.0942   27.4586 C   0  0  0  0  0  0  0  0  0  0  0  0
    2.2474   -8.9123   16.6273 C   0  0  0  0  0  0  0  0  0  0  0  0
    4.4957   -9.2636   17.3041 C   0  0  0  0  0  0  0  0  0  0  0  0
   -1.8070   -5.6086   28.1920 O   0  0  0  0  0  0  0  0  0  0  0  0
   10.4296   -5.1799   28.3140 C   0  0  0  0  0  0  0  0  0  0  0  0
    6.6017   -5.9004   26.9187 C   0  0  0  0  0  0  0  0  0  0  0  0
    2.4761   -6.9940   26.4111 N   0  0  0  0  0  0  0  0  0  0  0  0
    9.1353   -5.4053   27.8239 C   0  0  0  0  0  0  0  0  0  0  0  0
    0.9922   -9.3232   16.5995 O   0  0  0  0  0  0  0  0  0  0  0  0
    1.5232   -7.6869   27.1182 C   0  0  0  0  0  0  0  0  0  0  0  0
    8.6878   -6.6715   27.7262 N   0  0  0  0  0  0  0  0  0  0  0  0
    6.9911   -8.2423   27.1808 C   0  0  0  0  0  0  0  0  0  0  0  0
    3.8436   -7.2758   16.0578 C   0  0  0  0  0  0  0  0  0  0  0  0
    3.1882   -9.7190   17.2566 C   0  0  0  0  0  0  0  0  0  0  0  0
    5.3488   -6.1737   26.5092 C   0  0  0  0  0  0  0  0  0  0  0  0
    7.4567   -6.9464   27.2858 C   0  0  0  0  0  0  0  0  0  0  0  0
    0.1921   -5.7592   27.1123 C   0  0  0  0  0  0  0  0  0  0  0  0
    3.5517   -7.7407   25.9711 C   0  0  0  0  0  0  0  0  0  0  0  0
  1  4  4  0
  1 22  4  0
  2 20  4  0
  2 27  4  0
  3 12  4  0
  3 23  4  0
  4 25  4  0
  4 28  1  0
  5  8  4  0
  5 17  4  0
  6  7  4  0
  6 16  4  0
  7 18  4  0
  8 27  4  0
  9 13  4  0
  9 23  4  0
 10 11  1  0
 11 14  2  0
 11 27  1  0
 12 19  1  0
 12 24  4  0
 13 24  4  0
 15 18  1  0
 16 25  4  0
 16 26  4  0
 17 20  4  0
 17 28  1  0
 18 21  4  0
 21 26  4  0
 22 26  4  0
M  END
$$$$

 Created by Python create_sdf_string function

 28 30  0  0  0  0  0  0  0  0999 V2000
    5.7174   -8.4529   26.7190 C   0  0  0  0  0  0  0  0  0  0  0  0
    0.3974   -7.0711   27.5149 C   0  0  0  0  0  0  0  0  0  0  0  0
    2.5338   -7.6891   16.0102 C   0  0  0  0  0  0  0  0  0  0  0  0
    4.8690   -7.4380   26.4151 C   0  0  0  0  0  0  0  0  0  0  0  0
    2.3021   -5.6726   26.0378 C   0  0  0  0  0  0  0  0  0  0  0  0
    7.0880   -4.6163   27.0010 C   0  0  0  0  0  0  0  0  0  0  0  0
    8.3117   -4.3698   27.4436 C   0  0  0  0  0  0  0  0  0  0  0  0
    1.1339   -5.0515   26.3541 C   0  0  0  0  0  0  0  0  0  0  0  0
    4.8080   -8.0362   16.7101 C   0  0  0  0  0  0  0  0  0  0  0  0
   -1.2173   -3.9294   26.9717 O   0  0  0  0  0  0  0  0  0  0  0  0
   -1.0025   -5.0942   27.4586 C   0  0  0  0  0  0  0  0  0  0  0  0
    2.2474   -8.9123   16.6273 C   0  0  0  0  0  0  0  0  0  0  0  0
    4.4957   -9.2636   17.3041 C   0  0  0  0  0  0  0  0  0  0  0  0
   -1.8070   -5.6086   28.1920 O   0  0  0  0  0  0  0  0  0  0  0  0
   10.4296   -5.1799   28.3140 C   0  0  0  0  0  0  0  0  0  0  0  0
    6.6017   -5.9004   26.9187 C   0  0  0  0  0  0  0  0  0  0  0  0
    2.4761   -6.9940   26.4111 N   0  0  0  0  0  0  0  0  0  0  0  0
    9.1353   -5.4053   27.8239 C   0  0  0  0  0  0  0  0  0  0  0  0
    0.9922   -9.3232   16.5995 O   0  0  0  0  0  0  0  0  0  0  0  0
    1.5232   -7.6869   27.1182 C   0  0  0  0  0  0  0  0  0  0  0  0
    8.6878   -6.6715   27.7262 N   0  0  0  0  0  0  0  0  0  0  0  0
    6.9911   -8.2423   27.1808 C   0  0  0  0  0  0  0  0  0  0  0  0
    3.8436   -7.2758   16.0578 C   0  0  0  0  0  0  0  0  0  0  0  0
    3.1882   -9.7190   17.2566 C   0  0  0  0  0  0  0  0  0  0  0  0
    5.3488   -6.1737   26.5092 C   0  0  0  0  0  0  0  0  0  0  0  0
    7.4567   -6.9464   27.2858 C   0  0  0  0  0  0  0  0  0  0  0  0
    0.1921   -5.7592   27.1123 C   0  0  0  0  0  0  0  0  0  0  0  0
    3.5517   -7.7407   25.9711 C   0  0  0  0  0  0  0  0  0  0  0  0
  1  4  4  0
  1 22  4  0
  2 20  4  0
  2 27  4  0
  3 12  4  0
  3 23  4  0
  4 25  4  0
  4 28  1  0
  5  8  4  0
  5 17  4  0
  6  7  4  0
  6 16  4  0
  7 18  4  0
  8 27  4  0
  9 13  4  0
  9 23  4  0
 10 11  1  0
 11 14  2  0
 11 27  1  0
 12 19  1  0
 12 24  4  0
 13 24  4  0
 15 18  1  0
 16 25  4  0
 16 26  4  0
 17 20  4  0
 17 28  1  0
 18 21  4  0
 21 26  4  0
 22 26  4  0
M  END
$$$$

 Created by Python create_sdf_string function

 28 30  0  0  0  0  0  0  0  0999 V2000
    5.7174   -8.4529   26.7190 C   0  0  0  0  0  0  0  0  0  0  0  0
    0.3974   -7.0711   27.5149 C   0  0  0  0  0  0  0  0  0  0  0  0
    2.5338   -7.6891   16.0102 C   0  0  0  0  0  0  0  0  0  0  0  0
    4.8690   -7.4380   26.4151 C   0  0  0  0  0  0  0  0  0  0  0  0
    2.3021   -5.6726   26.0378 C   0  0  0  0  0  0  0  0  0  0  0  0
    7.0880   -4.6163   27.0010 C   0  0  0  0  0  0  0  0  0  0  0  0
    8.3117   -4.3698   27.4436 C   0  0  0  0  0  0  0  0  0  0  0  0
    1.1339   -5.0515   26.3541 C   0  0  0  0  0  0  0  0  0  0  0  0
    4.8080   -8.0362   16.7101 C   0  0  0  0  0  0  0  0  0  0  0  0
   -1.2173   -3.9294   26.9717 O   0  0  0  0  0  0  0  0  0  0  0  0
   -1.0025   -5.0942   27.4586 C   0  0  0  0  0  0  0  0  0  0  0  0
    2.2474   -8.9123   16.6273 C   0  0  0  0  0  0  0  0  0  0  0  0
    4.4957   -9.2636   17.3041 C   0  0  0  0  0  0  0  0  0  0  0  0
   -1.8070   -5.6086   28.1920 O   0  0  0  0  0  0  0  0  0  0  0  0
   10.4296   -5.1799   28.3140 C   0  0  0  0  0  0  0  0  0  0  0  0
    6.6017   -5.9004   26.9187 C   0  0  0  0  0  0  0  0  0  0  0  0
    2.4761   -6.9940   26.4111 N   0  0  0  0  0  0  0  0  0  0  0  0
    9.1353   -5.4053   27.8239 C   0  0  0  0  0  0  0  0  0  0  0  0
    0.9922   -9.3232   16.5995 O   0  0  0  0  0  0  0  0  0  0  0  0
    1.5232   -7.6869   27.1182 C   0  0  0  0  0  0  0  0  0  0  0  0
    8.6878   -6.6715   27.7262 N   0  0  0  0  0  0  0  0  0  0  0  0
    6.9911   -8.2423   27.1808 C   0  0  0  0  0  0  0  0  0  0  0  0
    3.8436   -7.2758   16.0578 C   0  0  0  0  0  0  0  0  0  0  0  0
    3.1882   -9.7190   17.2566 C   0  0  0  0  0  0  0  0  0  0  0  0
    5.3488   -6.1737   26.5092 C   0  0  0  0  0  0  0  0  0  0  0  0
    7.4567   -6.9464   27.2858 C   0  0  0  0  0  0  0  0  0  0  0  0
    0.1921   -5.7592   27.1123 C   0  0  0  0  0  0  0  0  0  0  0  0
    3.5517   -7.7407   25.9711 C   0  0  0  0  0  0  0  0  0  0  0  0
  1  4  4  0
  1 22  4  0
  2 20  4  0
  2 27  4  0
  3 12  4  0
  3 23  4  0
  4 25  4  0
  4 28  1  0
  5  8  4  0
  5 17  4  0
  6  7  4  0
  6 16  4  0
  7 18  4  0
  8 27  4  0
  9 13  4  0
  9 23  4  0
 10 11  1  0
 11 14  2  0
 11 27  1  0
 12 19  1  0
 12 24  4  0
 13 24  4  0
 15 18  1  0
 16 25  4  0
 16 26  4  0
 17 20  4  0
 17 28  1  0
 18 21  4  0
 21 26  4  0
 22 26  4  0
M  END
$$$$

 Created by Python create_sdf_string function

 28 30  0  0  0  0  0  0  0  0999 V2000
    5.7174   -8.4529   26.7190 C   0  0  0  0  0  0  0  0  0  0  0  0
    0.3974   -7.0711   27.5149 C   0  0  0  0  0  0  0  0  0  0  0  0
    2.5338   -7.6891   16.0102 C   0  0  0  0  0  0  0  0  0  0  0  0
    4.8690   -7.4380   26.4151 C   0  0  0  0  0  0  0  0  0  0  0  0
    2.3021   -5.6726   26.0378 C   0  0  0  0  0  0  0  0  0  0  0  0
    7.0880   -4.6163   27.0010 C   0  0  0  0  0  0  0  0  0  0  0  0
    8.3117   -4.3698   27.4436 C   0  0  0  0  0  0  0  0  0  0  0  0
    1.1339   -5.0515   26.3541 C   0  0  0  0  0  0  0  0  0  0  0  0
    4.8080   -8.0362   16.7101 C   0  0  0  0  0  0  0  0  0  0  0  0
   -1.2173   -3.9294   26.9717 O   0  0  0  0  0  0  0  0  0  0  0  0
   -1.0025   -5.0942   27.4586 C   0  0  0  0  0  0  0  0  0  0  0  0
    2.2474   -8.9123   16.6273 C   0  0  0  0  0  0  0  0  0  0  0  0
    4.4957   -9.2636   17.3041 C   0  0  0  0  0  0  0  0  0  0  0  0
   -1.8070   -5.6086   28.1920 O   0  0  0  0  0  0  0  0  0  0  0  0
   10.4296   -5.1799   28.3140 C   0  0  0  0  0  0  0  0  0  0  0  0
    6.6017   -5.9004   26.9187 C   0  0  0  0  0  0  0  0  0  0  0  0
    2.4761   -6.9940   26.4111 N   0  0  0  0  0  0  0  0  0  0  0  0
    9.1353   -5.4053   27.8239 C   0  0  0  0  0  0  0  0  0  0  0  0
    0.9922   -9.3232   16.5995 O   0  0  0  0  0  0  0  0  0  0  0  0
    1.5232   -7.6869   27.1182 C   0  0  0  0  0  0  0  0  0  0  0  0
    8.6878   -6.6715   27.7262 N   0  0  0  0  0  0  0  0  0  0  0  0
    6.9911   -8.2423   27.1808 C   0  0  0  0  0  0  0  0  0  0  0  0
    3.8436   -7.2758   16.0578 C   0  0  0  0  0  0  0  0  0  0  0  0
    3.1882   -9.7190   17.2566 C   0  0  0  0  0  0  0  0  0  0  0  0
    5.3488   -6.1737   26.5092 C   0  0  0  0  0  0  0  0  0  0  0  0
    7.4567   -6.9464   27.2858 C   0  0  0  0  0  0  0  0  0  0  0  0
    0.1921   -5.7592   27.1123 C   0  0  0  0  0  0  0  0  0  0  0  0
    3.5517   -7.7407   25.9711 C   0  0  0  0  0  0  0  0  0  0  0  0
  1  4  4  0
  1 22  4  0
  2 20  4  0
  2 27  4  0
  3 12  4  0
  3 23  4  0
  4 25  4  0
  4 28  1  0
  5  8  4  0
  5 17  4  0
  6  7  4  0
  6 16  4  0
  7 18  4  0
  8 27  4  0
  9 13  4  0
  9 23  4  0
 10 11  1  0
 11 14  2  0
 11 27  1  0
 12 19  1  0
 12 24  4  0
 13 24  4  0
 15 18  1  0
 16 25  4  0
 16 26  4  0
 17 20  4  0
 17 28  1  0
 18 21  4  0
 21 26  4  0
 22 26  4  0
M  END
$$$$

 Created by Python create_sdf_string function

 28 30  0  0  0  0  0  0  0  0999 V2000
    5.7174   -8.4529   26.7190 C   0  0  0  0  0  0  0  0  0  0  0  0
    0.3974   -7.0711   27.5149 C   0  0  0  0  0  0  0  0  0  0  0  0
    2.5338   -7.6891   16.0102 C   0  0  0  0  0  0  0  0  0  0  0  0
    4.8690   -7.4380   26.4151 C   0  0  0  0  0  0  0  0  0  0  0  0
    2.3021   -5.6726   26.0378 C   0  0  0  0  0  0  0  0  0  0  0  0
    7.0880   -4.6163   27.0010 C   0  0  0  0  0  0  0  0  0  0  0  0
    8.3117   -4.3698   27.4436 C   0  0  0  0  0  0  0  0  0  0  0  0
    1.1339   -5.0515   26.3541 C   0  0  0  0  0  0  0  0  0  0  0  0
    4.8080   -8.0362   16.7101 C   0  0  0  0  0  0  0  0  0  0  0  0
   -1.2173   -3.9294   26.9717 O   0  0  0  0  0  0  0  0  0  0  0  0
   -1.0025   -5.0942   27.4586 C   0  0  0  0  0  0  0  0  0  0  0  0
    2.2474   -8.9123   16.6273 C   0  0  0  0  0  0  0  0  0  0  0  0
    4.4957   -9.2636   17.3041 C   0  0  0  0  0  0  0  0  0  0  0  0
   -1.8070   -5.6086   28.1920 O   0  0  0  0  0  0  0  0  0  0  0  0
   10.4296   -5.1799   28.3140 C   0  0  0  0  0  0  0  0  0  0  0  0
    6.6017   -5.9004   26.9187 C   0  0  0  0  0  0  0  0  0  0  0  0
    2.4761   -6.9940   26.4111 N   0  0  0  0  0  0  0  0  0  0  0  0
    9.1353   -5.4053   27.8239 C   0  0  0  0  0  0  0  0  0  0  0  0
    0.9922   -9.3232   16.5995 O   0  0  0  0  0  0  0  0  0  0  0  0
    1.5232   -7.6869   27.1182 C   0  0  0  0  0  0  0  0  0  0  0  0
    8.6878   -6.6715   27.7262 N   0  0  0  0  0  0  0  0  0  0  0  0
    6.9911   -8.2423   27.1808 C   0  0  0  0  0  0  0  0  0  0  0  0
    3.8436   -7.2758   16.0578 C   0  0  0  0  0  0  0  0  0  0  0  0
    3.1882   -9.7190   17.2566 C   0  0  0  0  0  0  0  0  0  0  0  0
    5.3488   -6.1737   26.5092 C   0  0  0  0  0  0  0  0  0  0  0  0
    7.4567   -6.9464   27.2858 C   0  0  0  0  0  0  0  0  0  0  0  0
    0.1921   -5.7592   27.1123 C   0  0  0  0  0  0  0  0  0  0  0  0
    3.5517   -7.7407   25.9711 C   0  0  0  0  0  0  0  0  0  0  0  0
  1  4  4  0
  1 22  4  0
  2 20  4  0
  2 27  4  0
  3 12  4  0
  3 23  4  0
  4 25  4  0
  4 28  1  0
  5  8  4  0
  5 17  4  0
  6  7  4  0
  6 16  4  0
  7 18  4  0
  8 27  4  0
  9 13  4  0
  9 23  4  0
 10 11  1  0
 11 14  2  0
 11 27  1  0
 12 19  1  0
 12 24  4  0
 13 24  4  0
 15 18  1  0
 16 25  4  0
 16 26  4  0
 17 20  4  0
 17 28  1  0
 18 21  4  0
 21 26  4  0
 22 26  4  0
M  END
$$$$

 Created by Python create_sdf_string function

 28 30  0  0  0  0  0  0  0  0999 V2000
    5.7174   -8.4529   26.7190 C   0  0  0  0  0  0  0  0  0  0  0  0
    0.3974   -7.0711   27.5149 C   0  0  0  0  0  0  0  0  0  0  0  0
    2.5338   -7.6891   16.0102 C   0  0  0  0  0  0  0  0  0  0  0  0
    4.8690   -7.4380   26.4151 C   0  0  0  0  0  0  0  0  0  0  0  0
    2.3021   -5.6726   26.0378 C   0  0  0  0  0  0  0  0  0  0  0  0
    7.0880   -4.6163   27.0010 C   0  0  0  0  0  0  0  0  0  0  0  0
    8.3117   -4.3698   27.4436 C   0  0  0  0  0  0  0  0  0  0  0  0
    1.1339   -5.0515   26.3541 C   0  0  0  0  0  0  0  0  0  0  0  0
    4.8080   -8.0362   16.7101 C   0  0  0  0  0  0  0  0  0  0  0  0
   -1.2173   -3.9294   26.9717 O   0  0  0  0  0  0  0  0  0  0  0  0
   -1.0025   -5.0942   27.4586 C   0  0  0  0  0  0  0  0  0  0  0  0
    2.2474   -8.9123   16.6273 C   0  0  0  0  0  0  0  0  0  0  0  0
    4.4957   -9.2636   17.3041 C   0  0  0  0  0  0  0  0  0  0  0  0
   -1.8070   -5.6086   28.1920 O   0  0  0  0  0  0  0  0  0  0  0  0
   10.4296   -5.1799   28.3140 C   0  0  0  0  0  0  0  0  0  0  0  0
    6.6017   -5.9004   26.9187 C   0  0  0  0  0  0  0  0  0  0  0  0
    2.4761   -6.9940   26.4111 N   0  0  0  0  0  0  0  0  0  0  0  0
    9.1353   -5.4053   27.8239 C   0  0  0  0  0  0  0  0  0  0  0  0
    0.9922   -9.3232   16.5995 O   0  0  0  0  0  0  0  0  0  0  0  0
    1.5232   -7.6869   27.1182 C   0  0  0  0  0  0  0  0  0  0  0  0
    8.6878   -6.6715   27.7262 N   0  0  0  0  0  0  0  0  0  0  0  0
    6.9911   -8.2423   27.1808 C   0  0  0  0  0  0  0  0  0  0  0  0
    3.8436   -7.2758   16.0578 C   0  0  0  0  0  0  0  0  0  0  0  0
    3.1882   -9.7190   17.2566 C   0  0  0  0  0  0  0  0  0  0  0  0
    5.3488   -6.1737   26.5092 C   0  0  0  0  0  0  0  0  0  0  0  0
    7.4567   -6.9464   27.2858 C   0  0  0  0  0  0  0  0  0  0  0  0
    0.1921   -5.7592   27.1123 C   0  0  0  0  0  0  0  0  0  0  0  0
    3.5517   -7.7407   25.9711 C   0  0  0  0  0  0  0  0  0  0  0  0
  1  4  4  0
  1 22  4  0
  2 20  4  0
  2 27  4  0
  3 12  4  0
  3 23  4  0
  4 25  4  0
  4 28  1  0
  5  8  4  0
  5 17  4  0
  6  7  4  0
  6 16  4  0
  7 18  4  0
  8 27  4  0
  9 13  4  0
  9 23  4  0
 10 11  1  0
 11 14  2  0
 11 27  1  0
 12 19  1  0
 12 24  4  0
 13 24  4  0
 15 18  1  0
 16 25  4  0
 16 26  4  0
 17 20  4  0
 17 28  1  0
 18 21  4  0
 21 26  4  0
 22 26  4  0
M  END
$$$$

 Created by Python create_sdf_string function

 28 30  0  0  0  0  0  0  0  0999 V2000
    5.7174   -8.4529   26.7190 C   0  0  0  0  0  0  0  0  0  0  0  0
    0.3974   -7.0711   27.5149 C   0  0  0  0  0  0  0  0  0  0  0  0
    2.5338   -7.6891   16.0102 C   0  0  0  0  0  0  0  0  0  0  0  0
    4.8690   -7.4380   26.4151 C   0  0  0  0  0  0  0  0  0  0  0  0
    2.3021   -5.6726   26.0378 C   0  0  0  0  0  0  0  0  0  0  0  0
    7.0880   -4.6163   27.0010 C   0  0  0  0  0  0  0  0  0  0  0  0
    8.3117   -4.3698   27.4436 C   0  0  0  0  0  0  0  0  0  0  0  0
    1.1339   -5.0515   26.3541 C   0  0  0  0  0  0  0  0  0  0  0  0
    4.8080   -8.0362   16.7101 C   0  0  0  0  0  0  0  0  0  0  0  0
   -1.2173   -3.9294   26.9717 O   0  0  0  0  0  0  0  0  0  0  0  0
   -1.0025   -5.0942   27.4586 C   0  0  0  0  0  0  0  0  0  0  0  0
    2.2474   -8.9123   16.6273 C   0  0  0  0  0  0  0  0  0  0  0  0
    4.4957   -9.2636   17.3041 C   0  0  0  0  0  0  0  0  0  0  0  0
   -1.8070   -5.6086   28.1920 O   0  0  0  0  0  0  0  0  0  0  0  0
   10.4296   -5.1799   28.3140 C   0  0  0  0  0  0  0  0  0  0  0  0
    6.6017   -5.9004   26.9187 C   0  0  0  0  0  0  0  0  0  0  0  0
    2.4761   -6.9940   26.4111 N   0  0  0  0  0  0  0  0  0  0  0  0
    9.1353   -5.4053   27.8239 C   0  0  0  0  0  0  0  0  0  0  0  0
    0.9922   -9.3232   16.5995 O   0  0  0  0  0  0  0  0  0  0  0  0
    1.5232   -7.6869   27.1182 C   0  0  0  0  0  0  0  0  0  0  0  0
    8.6878   -6.6715   27.7262 N   0  0  0  0  0  0  0  0  0  0  0  0
    6.9911   -8.2423   27.1808 C   0  0  0  0  0  0  0  0  0  0  0  0
    3.8436   -7.2758   16.0578 C   0  0  0  0  0  0  0  0  0  0  0  0
    3.1882   -9.7190   17.2566 C   0  0  0  0  0  0  0  0  0  0  0  0
    5.3488   -6.1737   26.5092 C   0  0  0  0  0  0  0  0  0  0  0  0
    7.4567   -6.9464   27.2858 C   0  0  0  0  0  0  0  0  0  0  0  0
    0.1921   -5.7592   27.1123 C   0  0  0  0  0  0  0  0  0  0  0  0
    3.5517   -7.7407   25.9711 C   0  0  0  0  0  0  0  0  0  0  0  0
  1  4  4  0
  1 22  4  0
  2 20  4  0
  2 27  4  0
  3 12  4  0
  3 23  4  0
  4 25  4  0
  4 28  1  0
  5  8  4  0
  5 17  4  0
  6  7  4  0
  6 16  4  0
  7 18  4  0
  8 27  4  0
  9 13  4  0
  9 23  4  0
 10 11  1  0
 11 14  2  0
 11 27  1  0
 12 19  1  0
 12 24  4  0
 13 24  4  0
 15 18  1  0
 16 25  4  0
 16 26  4  0
 17 20  4  0
 17 28  1  0
 18 21  4  0
 21 26  4  0
 22 26  4  0
M  END
$$$$

 Created by Python create_sdf_string function

 28 30  0  0  0  0  0  0  0  0999 V2000
    5.7174   -8.4529   26.7190 C   0  0  0  0  0  0  0  0  0  0  0  0
    0.3974   -7.0711   27.5149 C   0  0  0  0  0  0  0  0  0  0  0  0
    2.5338   -7.6891   16.0102 C   0  0  0  0  0  0  0  0  0  0  0  0
    4.8690   -7.4380   26.4151 C   0  0  0  0  0  0  0  0  0  0  0  0
    2.3021   -5.6726   26.0378 C   0  0  0  0  0  0  0  0  0  0  0  0
    7.0880   -4.6163   27.0010 C   0  0  0  0  0  0  0  0  0  0  0  0
    8.3117   -4.3698   27.4436 C   0  0  0  0  0  0  0  0  0  0  0  0
    1.1339   -5.0515   26.3541 C   0  0  0  0  0  0  0  0  0  0  0  0
    4.8080   -8.0362   16.7101 C   0  0  0  0  0  0  0  0  0  0  0  0
   -1.2173   -3.9294   26.9717 O   0  0  0  0  0  0  0  0  0  0  0  0
   -1.0025   -5.0942   27.4586 C   0  0  0  0  0  0  0  0  0  0  0  0
    2.2474   -8.9123   16.6273 C   0  0  0  0  0  0  0  0  0  0  0  0
    4.4957   -9.2636   17.3041 C   0  0  0  0  0  0  0  0  0  0  0  0
   -1.8070   -5.6086   28.1920 O   0  0  0  0  0  0  0  0  0  0  0  0
   10.4296   -5.1799   28.3140 C   0  0  0  0  0  0  0  0  0  0  0  0
    6.6017   -5.9004   26.9187 C   0  0  0  0  0  0  0  0  0  0  0  0
    2.4761   -6.9940   26.4111 N   0  0  0  0  0  0  0  0  0  0  0  0
    9.1353   -5.4053   27.8239 C   0  0  0  0  0  0  0  0  0  0  0  0
    0.9922   -9.3232   16.5995 O   0  0  0  0  0  0  0  0  0  0  0  0
    1.5232   -7.6869   27.1182 C   0  0  0  0  0  0  0  0  0  0  0  0
    8.6878   -6.6715   27.7262 N   0  0  0  0  0  0  0  0  0  0  0  0
    6.9911   -8.2423   27.1808 C   0  0  0  0  0  0  0  0  0  0  0  0
    3.8436   -7.2758   16.0578 C   0  0  0  0  0  0  0  0  0  0  0  0
    3.1882   -9.7190   17.2566 C   0  0  0  0  0  0  0  0  0  0  0  0
    5.3488   -6.1737   26.5092 C   0  0  0  0  0  0  0  0  0  0  0  0
    7.4567   -6.9464   27.2858 C   0  0  0  0  0  0  0  0  0  0  0  0
    0.1921   -5.7592   27.1123 C   0  0  0  0  0  0  0  0  0  0  0  0
    3.5517   -7.7407   25.9711 C   0  0  0  0  0  0  0  0  0  0  0  0
  1  4  4  0
  1 22  4  0
  2 20  4  0
  2 27  4  0
  3 12  4  0
  3 23  4  0
  4 25  4  0
  4 28  1  0
  5  8  4  0
  5 17  4  0
  6  7  4  0
  6 16  4  0
  7 18  4  0
  8 27  4  0
  9 13  4  0
  9 23  4  0
 10 11  1  0
 11 14  2  0
 11 27  1  0
 12 19  1  0
 12 24  4  0
 13 24  4  0
 15 18  1  0
 16 25  4  0
 16 26  4  0
 17 20  4  0
 17 28  1  0
 18 21  4  0
 21 26  4  0
 22 26  4  0
M  END
$$$$

 Created by Python create_sdf_string function

 28 30  0  0  0  0  0  0  0  0999 V2000
    5.7174   -8.4529   26.7190 C   0  0  0  0  0  0  0  0  0  0  0  0
    0.3974   -7.0711   27.5149 C   0  0  0  0  0  0  0  0  0  0  0  0
    2.5338   -7.6891   16.0102 C   0  0  0  0  0  0  0  0  0  0  0  0
    4.8690   -7.4380   26.4151 C   0  0  0  0  0  0  0  0  0  0  0  0
    2.3021   -5.6726   26.0378 C   0  0  0  0  0  0  0  0  0  0  0  0
    7.0880   -4.6163   27.0010 C   0  0  0  0  0  0  0  0  0  0  0  0
    8.3117   -4.3698   27.4436 C   0  0  0  0  0  0  0  0  0  0  0  0
    1.1339   -5.0515   26.3541 C   0  0  0  0  0  0  0  0  0  0  0  0
    4.8080   -8.0362   16.7101 C   0  0  0  0  0  0  0  0  0  0  0  0
   -1.2173   -3.9294   26.9717 O   0  0  0  0  0  0  0  0  0  0  0  0
   -1.0025   -5.0942   27.4586 C   0  0  0  0  0  0  0  0  0  0  0  0
    2.2474   -8.9123   16.6273 C   0  0  0  0  0  0  0  0  0  0  0  0
    4.4957   -9.2636   17.3041 C   0  0  0  0  0  0  0  0  0  0  0  0
   -1.8070   -5.6086   28.1920 O   0  0  0  0  0  0  0  0  0  0  0  0
   10.4296   -5.1799   28.3140 C   0  0  0  0  0  0  0  0  0  0  0  0
    6.6017   -5.9004   26.9187 C   0  0  0  0  0  0  0  0  0  0  0  0
    2.4761   -6.9940   26.4111 N   0  0  0  0  0  0  0  0  0  0  0  0
    9.1353   -5.4053   27.8239 C   0  0  0  0  0  0  0  0  0  0  0  0
    0.9922   -9.3232   16.5995 O   0  0  0  0  0  0  0  0  0  0  0  0
    1.5232   -7.6869   27.1182 C   0  0  0  0  0  0  0  0  0  0  0  0
    8.6878   -6.6715   27.7262 N   0  0  0  0  0  0  0  0  0  0  0  0
    6.9911   -8.2423   27.1808 C   0  0  0  0  0  0  0  0  0  0  0  0
    3.8436   -7.2758   16.0578 C   0  0  0  0  0  0  0  0  0  0  0  0
    3.1882   -9.7190   17.2566 C   0  0  0  0  0  0  0  0  0  0  0  0
    5.3488   -6.1737   26.5092 C   0  0  0  0  0  0  0  0  0  0  0  0
    7.4567   -6.9464   27.2858 C   0  0  0  0  0  0  0  0  0  0  0  0
    0.1921   -5.7592   27.1123 C   0  0  0  0  0  0  0  0  0  0  0  0
    3.5517   -7.7407   25.9711 C   0  0  0  0  0  0  0  0  0  0  0  0
  1  4  4  0
  1 22  4  0
  2 20  4  0
  2 27  4  0
  3 12  4  0
  3 23  4  0
  4 25  4  0
  4 28  1  0
  5  8  4  0
  5 17  4  0
  6  7  4  0
  6 16  4  0
  7 18  4  0
  8 27  4  0
  9 13  4  0
  9 23  4  0
 10 11  1  0
 11 14  2  0
 11 27  1  0
 12 19  1  0
 12 24  4  0
 13 24  4  0
 15 18  1  0
 16 25  4  0
 16 26  4  0
 17 20  4  0
 17 28  1  0
 18 21  4  0
 21 26  4  0
 22 26  4  0
M  END
$$$$

 Created by Python create_sdf_string function

 28 30  0  0  0  0  0  0  0  0999 V2000
    5.7174   -8.4529   26.7190 C   0  0  0  0  0  0  0  0  0  0  0  0
    0.3974   -7.0711   27.5149 C   0  0  0  0  0  0  0  0  0  0  0  0
    2.5338   -7.6891   16.0102 C   0  0  0  0  0  0  0  0  0  0  0  0
    4.8690   -7.4380   26.4151 C   0  0  0  0  0  0  0  0  0  0  0  0
    2.3021   -5.6726   26.0378 C   0  0  0  0  0  0  0  0  0  0  0  0
    7.0880   -4.6163   27.0010 C   0  0  0  0  0  0  0  0  0  0  0  0
    8.3117   -4.3698   27.4436 C   0  0  0  0  0  0  0  0  0  0  0  0
    1.1339   -5.0515   26.3541 C   0  0  0  0  0  0  0  0  0  0  0  0
    4.8080   -8.0362   16.7101 C   0  0  0  0  0  0  0  0  0  0  0  0
   -1.2173   -3.9294   26.9717 O   0  0  0  0  0  0  0  0  0  0  0  0
   -1.0025   -5.0942   27.4586 C   0  0  0  0  0  0  0  0  0  0  0  0
    2.2474   -8.9123   16.6273 C   0  0  0  0  0  0  0  0  0  0  0  0
    4.4957   -9.2636   17.3041 C   0  0  0  0  0  0  0  0  0  0  0  0
   -1.8070   -5.6086   28.1920 O   0  0  0  0  0  0  0  0  0  0  0  0
   10.4296   -5.1799   28.3140 C   0  0  0  0  0  0  0  0  0  0  0  0
    6.6017   -5.9004   26.9187 C   0  0  0  0  0  0  0  0  0  0  0  0
    2.4761   -6.9940   26.4111 N   0  0  0  0  0  0  0  0  0  0  0  0
    9.1353   -5.4053   27.8239 C   0  0  0  0  0  0  0  0  0  0  0  0
    0.9922   -9.3232   16.5995 O   0  0  0  0  0  0  0  0  0  0  0  0
    1.5232   -7.6869   27.1182 C   0  0  0  0  0  0  0  0  0  0  0  0
    8.6878   -6.6715   27.7262 N   0  0  0  0  0  0  0  0  0  0  0  0
    6.9911   -8.2423   27.1808 C   0  0  0  0  0  0  0  0  0  0  0  0
    3.8436   -7.2758   16.0578 C   0  0  0  0  0  0  0  0  0  0  0  0
    3.1882   -9.7190   17.2566 C   0  0  0  0  0  0  0  0  0  0  0  0
    5.3488   -6.1737   26.5092 C   0  0  0  0  0  0  0  0  0  0  0  0
    7.4567   -6.9464   27.2858 C   0  0  0  0  0  0  0  0  0  0  0  0
    0.1921   -5.7592   27.1123 C   0  0  0  0  0  0  0  0  0  0  0  0
    3.5517   -7.7407   25.9711 C   0  0  0  0  0  0  0  0  0  0  0  0
  1  4  4  0
  1 22  4  0
  2 20  4  0
  2 27  4  0
  3 12  4  0
  3 23  4  0
  4 25  4  0
  4 28  1  0
  5  8  4  0
  5 17  4  0
  6  7  4  0
  6 16  4  0
  7 18  4  0
  8 27  4  0
  9 13  4  0
  9 23  4  0
 10 11  1  0
 11 14  2  0
 11 27  1  0
 12 19  1  0
 12 24  4  0
 13 24  4  0
 15 18  1  0
 16 25  4  0
 16 26  4  0
 17 20  4  0
 17 28  1  0
 18 21  4  0
 21 26  4  0
 22 26  4  0
M  END
$$$$

 Created by Python create_sdf_string function

 28 30  0  0  0  0  0  0  0  0999 V2000
    5.7174   -8.4529   26.7190 C   0  0  0  0  0  0  0  0  0  0  0  0
    0.3974   -7.0711   27.5149 C   0  0  0  0  0  0  0  0  0  0  0  0
    2.5338   -7.6891   16.0102 C   0  0  0  0  0  0  0  0  0  0  0  0
    4.8690   -7.4380   26.4151 C   0  0  0  0  0  0  0  0  0  0  0  0
    2.3021   -5.6726   26.0378 C   0  0  0  0  0  0  0  0  0  0  0  0
    7.0880   -4.6163   27.0010 C   0  0  0  0  0  0  0  0  0  0  0  0
    8.3117   -4.3698   27.4436 C   0  0  0  0  0  0  0  0  0  0  0  0
    1.1339   -5.0515   26.3541 C   0  0  0  0  0  0  0  0  0  0  0  0
    4.8080   -8.0362   16.7101 C   0  0  0  0  0  0  0  0  0  0  0  0
   -1.2173   -3.9294   26.9717 O   0  0  0  0  0  0  0  0  0  0  0  0
   -1.0025   -5.0942   27.4586 C   0  0  0  0  0  0  0  0  0  0  0  0
    2.2474   -8.9123   16.6273 C   0  0  0  0  0  0  0  0  0  0  0  0
    4.4957   -9.2636   17.3041 C   0  0  0  0  0  0  0  0  0  0  0  0
   -1.8070   -5.6086   28.1920 O   0  0  0  0  0  0  0  0  0  0  0  0
   10.4296   -5.1799   28.3140 C   0  0  0  0  0  0  0  0  0  0  0  0
    6.6017   -5.9004   26.9187 C   0  0  0  0  0  0  0  0  0  0  0  0
    2.4761   -6.9940   26.4111 N   0  0  0  0  0  0  0  0  0  0  0  0
    9.1353   -5.4053   27.8239 C   0  0  0  0  0  0  0  0  0  0  0  0
    0.9922   -9.3232   16.5995 O   0  0  0  0  0  0  0  0  0  0  0  0
    1.5232   -7.6869   27.1182 C   0  0  0  0  0  0  0  0  0  0  0  0
    8.6878   -6.6715   27.7262 N   0  0  0  0  0  0  0  0  0  0  0  0
    6.9911   -8.2423   27.1808 C   0  0  0  0  0  0  0  0  0  0  0  0
    3.8436   -7.2758   16.0578 C   0  0  0  0  0  0  0  0  0  0  0  0
    3.1882   -9.7190   17.2566 C   0  0  0  0  0  0  0  0  0  0  0  0
    5.3488   -6.1737   26.5092 C   0  0  0  0  0  0  0  0  0  0  0  0
    7.4567   -6.9464   27.2858 C   0  0  0  0  0  0  0  0  0  0  0  0
    0.1921   -5.7592   27.1123 C   0  0  0  0  0  0  0  0  0  0  0  0
    3.5517   -7.7407   25.9711 C   0  0  0  0  0  0  0  0  0  0  0  0
  1  4  4  0
  1 22  4  0
  2 20  4  0
  2 27  4  0
  3 12  4  0
  3 23  4  0
  4 25  4  0
  4 28  1  0
  5  8  4  0
  5 17  4  0
  6  7  4  0
  6 16  4  0
  7 18  4  0
  8 27  4  0
  9 13  4  0
  9 23  4  0
 10 11  1  0
 11 14  2  0
 11 27  1  0
 12 19  1  0
 12 24  4  0
 13 24  4  0
 15 18  1  0
 16 25  4  0
 16 26  4  0
 17 20  4  0
 17 28  1  0
 18 21  4  0
 21 26  4  0
 22 26  4  0
M  END
$$$$

 Created by Python create_sdf_string function

 28 30  0  0  0  0  0  0  0  0999 V2000
    5.7174   -8.4529   26.7190 C   0  0  0  0  0  0  0  0  0  0  0  0
    0.3974   -7.0711   27.5149 C   0  0  0  0  0  0  0  0  0  0  0  0
    2.5338   -7.6891   16.0102 C   0  0  0  0  0  0  0  0  0  0  0  0
    4.8690   -7.4380   26.4151 C   0  0  0  0  0  0  0  0  0  0  0  0
    2.3021   -5.6726   26.0378 C   0  0  0  0  0  0  0  0  0  0  0  0
    7.0880   -4.6163   27.0010 C   0  0  0  0  0  0  0  0  0  0  0  0
    8.3117   -4.3698   27.4436 C   0  0  0  0  0  0  0  0  0  0  0  0
    1.1339   -5.0515   26.3541 C   0  0  0  0  0  0  0  0  0  0  0  0
    4.8080   -8.0362   16.7101 C   0  0  0  0  0  0  0  0  0  0  0  0
   -1.2173   -3.9294   26.9717 O   0  0  0  0  0  0  0  0  0  0  0  0
   -1.0025   -5.0942   27.4586 C   0  0  0  0  0  0  0  0  0  0  0  0
    2.2474   -8.9123   16.6273 C   0  0  0  0  0  0  0  0  0  0  0  0
    4.4957   -9.2636   17.3041 C   0  0  0  0  0  0  0  0  0  0  0  0
   -1.8070   -5.6086   28.1920 O   0  0  0  0  0  0  0  0  0  0  0  0
   10.4296   -5.1799   28.3140 C   0  0  0  0  0  0  0  0  0  0  0  0
    6.6017   -5.9004   26.9187 C   0  0  0  0  0  0  0  0  0  0  0  0
    2.4761   -6.9940   26.4111 N   0  0  0  0  0  0  0  0  0  0  0  0
    9.1353   -5.4053   27.8239 C   0  0  0  0  0  0  0  0  0  0  0  0
    0.9922   -9.3232   16.5995 O   0  0  0  0  0  0  0  0  0  0  0  0
    1.5232   -7.6869   27.1182 C   0  0  0  0  0  0  0  0  0  0  0  0
    8.6878   -6.6715   27.7262 N   0  0  0  0  0  0  0  0  0  0  0  0
    6.9911   -8.2423   27.1808 C   0  0  0  0  0  0  0  0  0  0  0  0
    3.8436   -7.2758   16.0578 C   0  0  0  0  0  0  0  0  0  0  0  0
    3.1882   -9.7190   17.2566 C   0  0  0  0  0  0  0  0  0  0  0  0
    5.3488   -6.1737   26.5092 C   0  0  0  0  0  0  0  0  0  0  0  0
    7.4567   -6.9464   27.2858 C   0  0  0  0  0  0  0  0  0  0  0  0
    0.1921   -5.7592   27.1123 C   0  0  0  0  0  0  0  0  0  0  0  0
    3.5517   -7.7407   25.9711 C   0  0  0  0  0  0  0  0  0  0  0  0
  1  4  4  0
  1 22  4  0
  2 20  4  0
  2 27  4  0
  3 12  4  0
  3 23  4  0
  4 25  4  0
  4 28  1  0
  5  8  4  0
  5 17  4  0
  6  7  4  0
  6 16  4  0
  7 18  4  0
  8 27  4  0
  9 13  4  0
  9 23  4  0
 10 11  1  0
 11 14  2  0
 11 27  1  0
 12 19  1  0
 12 24  4  0
 13 24  4  0
 15 18  1  0
 16 25  4  0
 16 26  4  0
 17 20  4  0
 17 28  1  0
 18 21  4  0
 21 26  4  0
 22 26  4  0
M  END
$$$$

 Created by Python create_sdf_string function

 28 30  0  0  0  0  0  0  0  0999 V2000
    5.7174   -8.4529   26.7190 C   0  0  0  0  0  0  0  0  0  0  0  0
    0.3974   -7.0711   27.5149 C   0  0  0  0  0  0  0  0  0  0  0  0
    2.5338   -7.6891   16.0102 C   0  0  0  0  0  0  0  0  0  0  0  0
    4.8690   -7.4380   26.4151 C   0  0  0  0  0  0  0  0  0  0  0  0
    2.3021   -5.6726   26.0378 C   0  0  0  0  0  0  0  0  0  0  0  0
    7.0880   -4.6163   27.0010 C   0  0  0  0  0  0  0  0  0  0  0  0
    8.3117   -4.3698   27.4436 C   0  0  0  0  0  0  0  0  0  0  0  0
    1.1339   -5.0515   26.3541 C   0  0  0  0  0  0  0  0  0  0  0  0
    4.8080   -8.0362   16.7101 C   0  0  0  0  0  0  0  0  0  0  0  0
   -1.2173   -3.9294   26.9717 O   0  0  0  0  0  0  0  0  0  0  0  0
   -1.0025   -5.0942   27.4586 C   0  0  0  0  0  0  0  0  0  0  0  0
    2.2474   -8.9123   16.6273 C   0  0  0  0  0  0  0  0  0  0  0  0
    4.4957   -9.2636   17.3041 C   0  0  0  0  0  0  0  0  0  0  0  0
   -1.8070   -5.6086   28.1920 O   0  0  0  0  0  0  0  0  0  0  0  0
   10.4296   -5.1799   28.3140 C   0  0  0  0  0  0  0  0  0  0  0  0
    6.6017   -5.9004   26.9187 C   0  0  0  0  0  0  0  0  0  0  0  0
    2.4761   -6.9940   26.4111 N   0  0  0  0  0  0  0  0  0  0  0  0
    9.1353   -5.4053   27.8239 C   0  0  0  0  0  0  0  0  0  0  0  0
    0.9922   -9.3232   16.5995 O   0  0  0  0  0  0  0  0  0  0  0  0
    1.5232   -7.6869   27.1182 C   0  0  0  0  0  0  0  0  0  0  0  0
    8.6878   -6.6715   27.7262 N   0  0  0  0  0  0  0  0  0  0  0  0
    6.9911   -8.2423   27.1808 C   0  0  0  0  0  0  0  0  0  0  0  0
    3.8436   -7.2758   16.0578 C   0  0  0  0  0  0  0  0  0  0  0  0
    3.1882   -9.7190   17.2566 C   0  0  0  0  0  0  0  0  0  0  0  0
    5.3488   -6.1737   26.5092 C   0  0  0  0  0  0  0  0  0  0  0  0
    7.4567   -6.9464   27.2858 C   0  0  0  0  0  0  0  0  0  0  0  0
    0.1921   -5.7592   27.1123 C   0  0  0  0  0  0  0  0  0  0  0  0
    3.5517   -7.7407   25.9711 C   0  0  0  0  0  0  0  0  0  0  0  0
  1  4  4  0
  1 22  4  0
  2 20  4  0
  2 27  4  0
  3 12  4  0
  3 23  4  0
  4 25  4  0
  4 28  1  0
  5  8  4  0
  5 17  4  0
  6  7  4  0
  6 16  4  0
  7 18  4  0
  8 27  4  0
  9 13  4  0
  9 23  4  0
 10 11  1  0
 11 14  2  0
 11 27  1  0
 12 19  1  0
 12 24  4  0
 13 24  4  0
 15 18  1  0
 16 25  4  0
 16 26  4  0
 17 20  4  0
 17 28  1  0
 18 21  4  0
 21 26  4  0
 22 26  4  0
M  END
$$$$

 Created by Python create_sdf_string function

 28 30  0  0  0  0  0  0  0  0999 V2000
    5.7174   -8.4529   26.7190 C   0  0  0  0  0  0  0  0  0  0  0  0
    0.3974   -7.0711   27.5149 C   0  0  0  0  0  0  0  0  0  0  0  0
    2.5338   -7.6891   16.0102 C   0  0  0  0  0  0  0  0  0  0  0  0
    4.8690   -7.4380   26.4151 C   0  0  0  0  0  0  0  0  0  0  0  0
    2.3021   -5.6726   26.0378 C   0  0  0  0  0  0  0  0  0  0  0  0
    7.0880   -4.6163   27.0010 C   0  0  0  0  0  0  0  0  0  0  0  0
    8.3117   -4.3698   27.4436 C   0  0  0  0  0  0  0  0  0  0  0  0
    1.1339   -5.0515   26.3541 C   0  0  0  0  0  0  0  0  0  0  0  0
    4.8080   -8.0362   16.7101 C   0  0  0  0  0  0  0  0  0  0  0  0
   -1.2173   -3.9294   26.9717 O   0  0  0  0  0  0  0  0  0  0  0  0
   -1.0025   -5.0942   27.4586 C   0  0  0  0  0  0  0  0  0  0  0  0
    2.2474   -8.9123   16.6273 C   0  0  0  0  0  0  0  0  0  0  0  0
    4.4957   -9.2636   17.3041 C   0  0  0  0  0  0  0  0  0  0  0  0
   -1.8070   -5.6086   28.1920 O   0  0  0  0  0  0  0  0  0  0  0  0
   10.4296   -5.1799   28.3140 C   0  0  0  0  0  0  0  0  0  0  0  0
    6.6017   -5.9004   26.9187 C   0  0  0  0  0  0  0  0  0  0  0  0
    2.4761   -6.9940   26.4111 N   0  0  0  0  0  0  0  0  0  0  0  0
    9.1353   -5.4053   27.8239 C   0  0  0  0  0  0  0  0  0  0  0  0
    0.9922   -9.3232   16.5995 O   0  0  0  0  0  0  0  0  0  0  0  0
    1.5232   -7.6869   27.1182 C   0  0  0  0  0  0  0  0  0  0  0  0
    8.6878   -6.6715   27.7262 N   0  0  0  0  0  0  0  0  0  0  0  0
    6.9911   -8.2423   27.1808 C   0  0  0  0  0  0  0  0  0  0  0  0
    3.8436   -7.2758   16.0578 C   0  0  0  0  0  0  0  0  0  0  0  0
    3.1882   -9.7190   17.2566 C   0  0  0  0  0  0  0  0  0  0  0  0
    5.3488   -6.1737   26.5092 C   0  0  0  0  0  0  0  0  0  0  0  0
    7.4567   -6.9464   27.2858 C   0  0  0  0  0  0  0  0  0  0  0  0
    0.1921   -5.7592   27.1123 C   0  0  0  0  0  0  0  0  0  0  0  0
    3.5517   -7.7407   25.9711 C   0  0  0  0  0  0  0  0  0  0  0  0
  1  4  4  0
  1 22  4  0
  2 20  4  0
  2 27  4  0
  3 12  4  0
  3 23  4  0
  4 25  4  0
  4 28  1  0
  5  8  4  0
  5 17  4  0
  6  7  4  0
  6 16  4  0
  7 18  4  0
  8 27  4  0
  9 13  4  0
  9 23  4  0
 10 11  1  0
 11 14  2  0
 11 27  1  0
 12 19  1  0
 12 24  4  0
 13 24  4  0
 15 18  1  0
 16 25  4  0
 16 26  4  0
 17 20  4  0
 17 28  1  0
 18 21  4  0
 21 26  4  0
 22 26  4  0
M  END
$$$$

 Created by Python create_sdf_string function

 28 30  0  0  0  0  0  0  0  0999 V2000
    5.7174   -8.4529   26.7190 C   0  0  0  0  0  0  0  0  0  0  0  0
    0.3974   -7.0711   27.5149 C   0  0  0  0  0  0  0  0  0  0  0  0
    2.5338   -7.6891   16.0102 C   0  0  0  0  0  0  0  0  0  0  0  0
    4.8690   -7.4380   26.4151 C   0  0  0  0  0  0  0  0  0  0  0  0
    2.3021   -5.6726   26.0378 C   0  0  0  0  0  0  0  0  0  0  0  0
    7.0880   -4.6163   27.0010 C   0  0  0  0  0  0  0  0  0  0  0  0
    8.3117   -4.3698   27.4436 C   0  0  0  0  0  0  0  0  0  0  0  0
    1.1339   -5.0515   26.3541 C   0  0  0  0  0  0  0  0  0  0  0  0
    4.8080   -8.0362   16.7101 C   0  0  0  0  0  0  0  0  0  0  0  0
   -1.2173   -3.9294   26.9717 O   0  0  0  0  0  0  0  0  0  0  0  0
   -1.0025   -5.0942   27.4586 C   0  0  0  0  0  0  0  0  0  0  0  0
    2.2474   -8.9123   16.6273 C   0  0  0  0  0  0  0  0  0  0  0  0
    4.4957   -9.2636   17.3041 C   0  0  0  0  0  0  0  0  0  0  0  0
   -1.8070   -5.6086   28.1920 O   0  0  0  0  0  0  0  0  0  0  0  0
   10.4296   -5.1799   28.3140 C   0  0  0  0  0  0  0  0  0  0  0  0
    6.6017   -5.9004   26.9187 C   0  0  0  0  0  0  0  0  0  0  0  0
    2.4761   -6.9940   26.4111 N   0  0  0  0  0  0  0  0  0  0  0  0
    9.1353   -5.4053   27.8239 C   0  0  0  0  0  0  0  0  0  0  0  0
    0.9922   -9.3232   16.5995 O   0  0  0  0  0  0  0  0  0  0  0  0
    1.5232   -7.6869   27.1182 C   0  0  0  0  0  0  0  0  0  0  0  0
    8.6878   -6.6715   27.7262 N   0  0  0  0  0  0  0  0  0  0  0  0
    6.9911   -8.2423   27.1808 C   0  0  0  0  0  0  0  0  0  0  0  0
    3.8436   -7.2758   16.0578 C   0  0  0  0  0  0  0  0  0  0  0  0
    3.1882   -9.7190   17.2566 C   0  0  0  0  0  0  0  0  0  0  0  0
    5.3488   -6.1737   26.5092 C   0  0  0  0  0  0  0  0  0  0  0  0
    7.4567   -6.9464   27.2858 C   0  0  0  0  0  0  0  0  0  0  0  0
    0.1921   -5.7592   27.1123 C   0  0  0  0  0  0  0  0  0  0  0  0
    3.5517   -7.7407   25.9711 C   0  0  0  0  0  0  0  0  0  0  0  0
  1  4  4  0
  1 22  4  0
  2 20  4  0
  2 27  4  0
  3 12  4  0
  3 23  4  0
  4 25  4  0
  4 28  1  0
  5  8  4  0
  5 17  4  0
  6  7  4  0
  6 16  4  0
  7 18  4  0
  8 27  4  0
  9 13  4  0
  9 23  4  0
 10 11  1  0
 11 14  2  0
 11 27  1  0
 12 19  1  0
 12 24  4  0
 13 24  4  0
 15 18  1  0
 16 25  4  0
 16 26  4  0
 17 20  4  0
 17 28  1  0
 18 21  4  0
 21 26  4  0
 22 26  4  0
M  END
$$$$

 Created by Python create_sdf_string function

 28 30  0  0  0  0  0  0  0  0999 V2000
    5.7174   -8.4529   26.7190 C   0  0  0  0  0  0  0  0  0  0  0  0
    0.3974   -7.0711   27.5149 C   0  0  0  0  0  0  0  0  0  0  0  0
    2.5338   -7.6891   16.0102 C   0  0  0  0  0  0  0  0  0  0  0  0
    4.8690   -7.4380   26.4151 C   0  0  0  0  0  0  0  0  0  0  0  0
    2.3021   -5.6726   26.0378 C   0  0  0  0  0  0  0  0  0  0  0  0
    7.0880   -4.6163   27.0010 C   0  0  0  0  0  0  0  0  0  0  0  0
    8.3117   -4.3698   27.4436 C   0  0  0  0  0  0  0  0  0  0  0  0
    1.1339   -5.0515   26.3541 C   0  0  0  0  0  0  0  0  0  0  0  0
    4.8080   -8.0362   16.7101 C   0  0  0  0  0  0  0  0  0  0  0  0
   -1.2173   -3.9294   26.9717 O   0  0  0  0  0  0  0  0  0  0  0  0
   -1.0025   -5.0942   27.4586 C   0  0  0  0  0  0  0  0  0  0  0  0
    2.2474   -8.9123   16.6273 C   0  0  0  0  0  0  0  0  0  0  0  0
    4.4957   -9.2636   17.3041 C   0  0  0  0  0  0  0  0  0  0  0  0
   -1.8070   -5.6086   28.1920 O   0  0  0  0  0  0  0  0  0  0  0  0
   10.4296   -5.1799   28.3140 C   0  0  0  0  0  0  0  0  0  0  0  0
    6.6017   -5.9004   26.9187 C   0  0  0  0  0  0  0  0  0  0  0  0
    2.4761   -6.9940   26.4111 N   0  0  0  0  0  0  0  0  0  0  0  0
    9.1353   -5.4053   27.8239 C   0  0  0  0  0  0  0  0  0  0  0  0
    0.9922   -9.3232   16.5995 O   0  0  0  0  0  0  0  0  0  0  0  0
    1.5232   -7.6869   27.1182 C   0  0  0  0  0  0  0  0  0  0  0  0
    8.6878   -6.6715   27.7262 N   0  0  0  0  0  0  0  0  0  0  0  0
    6.9911   -8.2423   27.1808 C   0  0  0  0  0  0  0  0  0  0  0  0
    3.8436   -7.2758   16.0578 C   0  0  0  0  0  0  0  0  0  0  0  0
    3.1882   -9.7190   17.2566 C   0  0  0  0  0  0  0  0  0  0  0  0
    5.3488   -6.1737   26.5092 C   0  0  0  0  0  0  0  0  0  0  0  0
    7.4567   -6.9464   27.2858 C   0  0  0  0  0  0  0  0  0  0  0  0
    0.1921   -5.7592   27.1123 C   0  0  0  0  0  0  0  0  0  0  0  0
    3.5517   -7.7407   25.9711 C   0  0  0  0  0  0  0  0  0  0  0  0
  1  4  4  0
  1 22  4  0
  2 20  4  0
  2 27  4  0
  3 12  4  0
  3 23  4  0
  4 25  4  0
  4 28  1  0
  5  8  4  0
  5 17  4  0
  6  7  4  0
  6 16  4  0
  7 18  4  0
  8 27  4  0
  9 13  4  0
  9 23  4  0
 10 11  1  0
 11 14  2  0
 11 27  1  0
 12 19  1  0
 12 24  4  0
 13 24  4  0
 15 18  1  0
 16 25  4  0
 16 26  4  0
 17 20  4  0
 17 28  1  0
 18 21  4  0
 21 26  4  0
 22 26  4  0
M  END
$$$$

 Created by Python create_sdf_string function

 28 30  0  0  0  0  0  0  0  0999 V2000
    5.7174   -8.4529   26.7190 C   0  0  0  0  0  0  0  0  0  0  0  0
    0.3974   -7.0711   27.5149 C   0  0  0  0  0  0  0  0  0  0  0  0
    2.5338   -7.6891   16.0102 C   0  0  0  0  0  0  0  0  0  0  0  0
    4.8690   -7.4380   26.4151 C   0  0  0  0  0  0  0  0  0  0  0  0
    2.3021   -5.6726   26.0378 C   0  0  0  0  0  0  0  0  0  0  0  0
    7.0880   -4.6163   27.0010 C   0  0  0  0  0  0  0  0  0  0  0  0
    8.3117   -4.3698   27.4436 C   0  0  0  0  0  0  0  0  0  0  0  0
    1.1339   -5.0515   26.3541 C   0  0  0  0  0  0  0  0  0  0  0  0
    4.8080   -8.0362   16.7101 C   0  0  0  0  0  0  0  0  0  0  0  0
   -1.2173   -3.9294   26.9717 O   0  0  0  0  0  0  0  0  0  0  0  0
   -1.0025   -5.0942   27.4586 C   0  0  0  0  0  0  0  0  0  0  0  0
    2.2474   -8.9123   16.6273 C   0  0  0  0  0  0  0  0  0  0  0  0
    4.4957   -9.2636   17.3041 C   0  0  0  0  0  0  0  0  0  0  0  0
   -1.8070   -5.6086   28.1920 O   0  0  0  0  0  0  0  0  0  0  0  0
   10.4296   -5.1799   28.3140 C   0  0  0  0  0  0  0  0  0  0  0  0
    6.6017   -5.9004   26.9187 C   0  0  0  0  0  0  0  0  0  0  0  0
    2.4761   -6.9940   26.4111 N   0  0  0  0  0  0  0  0  0  0  0  0
    9.1353   -5.4053   27.8239 C   0  0  0  0  0  0  0  0  0  0  0  0
    0.9922   -9.3232   16.5995 O   0  0  0  0  0  0  0  0  0  0  0  0
    1.5232   -7.6869   27.1182 C   0  0  0  0  0  0  0  0  0  0  0  0
    8.6878   -6.6715   27.7262 N   0  0  0  0  0  0  0  0  0  0  0  0
    6.9911   -8.2423   27.1808 C   0  0  0  0  0  0  0  0  0  0  0  0
    3.8436   -7.2758   16.0578 C   0  0  0  0  0  0  0  0  0  0  0  0
    3.1882   -9.7190   17.2566 C   0  0  0  0  0  0  0  0  0  0  0  0
    5.3488   -6.1737   26.5092 C   0  0  0  0  0  0  0  0  0  0  0  0
    7.4567   -6.9464   27.2858 C   0  0  0  0  0  0  0  0  0  0  0  0
    0.1921   -5.7592   27.1123 C   0  0  0  0  0  0  0  0  0  0  0  0
    3.5517   -7.7407   25.9711 C   0  0  0  0  0  0  0  0  0  0  0  0
  1  4  4  0
  1 22  4  0
  2 20  4  0
  2 27  4  0
  3 12  4  0
  3 23  4  0
  4 25  4  0
  4 28  1  0
  5  8  4  0
  5 17  4  0
  6  7  4  0
  6 16  4  0
  7 18  4  0
  8 27  4  0
  9 13  4  0
  9 23  4  0
 10 11  1  0
 11 14  2  0
 11 27  1  0
 12 19  1  0
 12 24  4  0
 13 24  4  0
 15 18  1  0
 16 25  4  0
 16 26  4  0
 17 20  4  0
 17 28  1  0
 18 21  4  0
 21 26  4  0
 22 26  4  0
M  END
$$$$

 Created by Python create_sdf_string function

 28 30  0  0  0  0  0  0  0  0999 V2000
    5.7174   -8.4529   26.7190 C   0  0  0  0  0  0  0  0  0  0  0  0
    0.3974   -7.0711   27.5149 C   0  0  0  0  0  0  0  0  0  0  0  0
    2.5338   -7.6891   16.0102 C   0  0  0  0  0  0  0  0  0  0  0  0
    4.8690   -7.4380   26.4151 C   0  0  0  0  0  0  0  0  0  0  0  0
    2.3021   -5.6726   26.0378 C   0  0  0  0  0  0  0  0  0  0  0  0
    7.0880   -4.6163   27.0010 C   0  0  0  0  0  0  0  0  0  0  0  0
    8.3117   -4.3698   27.4436 C   0  0  0  0  0  0  0  0  0  0  0  0
    1.1339   -5.0515   26.3541 C   0  0  0  0  0  0  0  0  0  0  0  0
    4.8080   -8.0362   16.7101 C   0  0  0  0  0  0  0  0  0  0  0  0
   -1.2173   -3.9294   26.9717 O   0  0  0  0  0  0  0  0  0  0  0  0
   -1.0025   -5.0942   27.4586 C   0  0  0  0  0  0  0  0  0  0  0  0
    2.2474   -8.9123   16.6273 C   0  0  0  0  0  0  0  0  0  0  0  0
    4.4957   -9.2636   17.3041 C   0  0  0  0  0  0  0  0  0  0  0  0
   -1.8070   -5.6086   28.1920 O   0  0  0  0  0  0  0  0  0  0  0  0
   10.4296   -5.1799   28.3140 C   0  0  0  0  0  0  0  0  0  0  0  0
    6.6017   -5.9004   26.9187 C   0  0  0  0  0  0  0  0  0  0  0  0
    2.4761   -6.9940   26.4111 N   0  0  0  0  0  0  0  0  0  0  0  0
    9.1353   -5.4053   27.8239 C   0  0  0  0  0  0  0  0  0  0  0  0
    0.9922   -9.3232   16.5995 O   0  0  0  0  0  0  0  0  0  0  0  0
    1.5232   -7.6869   27.1182 C   0  0  0  0  0  0  0  0  0  0  0  0
    8.6878   -6.6715   27.7262 N   0  0  0  0  0  0  0  0  0  0  0  0
    6.9911   -8.2423   27.1808 C   0  0  0  0  0  0  0  0  0  0  0  0
    3.8436   -7.2758   16.0578 C   0  0  0  0  0  0  0  0  0  0  0  0
    3.1882   -9.7190   17.2566 C   0  0  0  0  0  0  0  0  0  0  0  0
    5.3488   -6.1737   26.5092 C   0  0  0  0  0  0  0  0  0  0  0  0
    7.4567   -6.9464   27.2858 C   0  0  0  0  0  0  0  0  0  0  0  0
    0.1921   -5.7592   27.1123 C   0  0  0  0  0  0  0  0  0  0  0  0
    3.5517   -7.7407   25.9711 C   0  0  0  0  0  0  0  0  0  0  0  0
  1  4  4  0
  1 22  4  0
  2 20  4  0
  2 27  4  0
  3 12  4  0
  3 23  4  0
  4 25  4  0
  4 28  1  0
  5  8  4  0
  5 17  4  0
  6  7  4  0
  6 16  4  0
  7 18  4  0
  8 27  4  0
  9 13  4  0
  9 23  4  0
 10 11  1  0
 11 14  2  0
 11 27  1  0
 12 19  1  0
 12 24  4  0
 13 24  4  0
 15 18  1  0
 16 25  4  0
 16 26  4  0
 17 20  4  0
 17 28  1  0
 18 21  4  0
 21 26  4  0
 22 26  4  0
M  END
$$$$

 Created by Python create_sdf_string function

 28 30  0  0  0  0  0  0  0  0999 V2000
    5.7174   -8.4529   26.7190 C   0  0  0  0  0  0  0  0  0  0  0  0
    0.3974   -7.0711   27.5149 C   0  0  0  0  0  0  0  0  0  0  0  0
    2.5338   -7.6891   16.0102 C   0  0  0  0  0  0  0  0  0  0  0  0
    4.8690   -7.4380   26.4151 C   0  0  0  0  0  0  0  0  0  0  0  0
    2.3021   -5.6726   26.0378 C   0  0  0  0  0  0  0  0  0  0  0  0
    7.0880   -4.6163   27.0010 C   0  0  0  0  0  0  0  0  0  0  0  0
    8.3117   -4.3698   27.4436 C   0  0  0  0  0  0  0  0  0  0  0  0
    1.1339   -5.0515   26.3541 C   0  0  0  0  0  0  0  0  0  0  0  0
    4.8080   -8.0362   16.7101 C   0  0  0  0  0  0  0  0  0  0  0  0
   -1.2173   -3.9294   26.9717 O   0  0  0  0  0  0  0  0  0  0  0  0
   -1.0025   -5.0942   27.4586 C   0  0  0  0  0  0  0  0  0  0  0  0
    2.2474   -8.9123   16.6273 C   0  0  0  0  0  0  0  0  0  0  0  0
    4.4957   -9.2636   17.3041 C   0  0  0  0  0  0  0  0  0  0  0  0
   -1.8070   -5.6086   28.1920 O   0  0  0  0  0  0  0  0  0  0  0  0
   10.4296   -5.1799   28.3140 C   0  0  0  0  0  0  0  0  0  0  0  0
    6.6017   -5.9004   26.9187 C   0  0  0  0  0  0  0  0  0  0  0  0
    2.4761   -6.9940   26.4111 N   0  0  0  0  0  0  0  0  0  0  0  0
    9.1353   -5.4053   27.8239 C   0  0  0  0  0  0  0  0  0  0  0  0
    0.9922   -9.3232   16.5995 O   0  0  0  0  0  0  0  0  0  0  0  0
    1.5232   -7.6869   27.1182 C   0  0  0  0  0  0  0  0  0  0  0  0
    8.6878   -6.6715   27.7262 N   0  0  0  0  0  0  0  0  0  0  0  0
    6.9911   -8.2423   27.1808 C   0  0  0  0  0  0  0  0  0  0  0  0
    3.8436   -7.2758   16.0578 C   0  0  0  0  0  0  0  0  0  0  0  0
    3.1882   -9.7190   17.2566 C   0  0  0  0  0  0  0  0  0  0  0  0
    5.3488   -6.1737   26.5092 C   0  0  0  0  0  0  0  0  0  0  0  0
    7.4567   -6.9464   27.2858 C   0  0  0  0  0  0  0  0  0  0  0  0
    0.1921   -5.7592   27.1123 C   0  0  0  0  0  0  0  0  0  0  0  0
    3.5517   -7.7407   25.9711 C   0  0  0  0  0  0  0  0  0  0  0  0
  1  4  4  0
  1 22  4  0
  2 20  4  0
  2 27  4  0
  3 12  4  0
  3 23  4  0
  4 25  4  0
  4 28  1  0
  5  8  4  0
  5 17  4  0
  6  7  4  0
  6 16  4  0
  7 18  4  0
  8 27  4  0
  9 13  4  0
  9 23  4  0
 10 11  1  0
 11 14  2  0
 11 27  1  0
 12 19  1  0
 12 24  4  0
 13 24  4  0
 15 18  1  0
 16 25  4  0
 16 26  4  0
 17 20  4  0
 17 28  1  0
 18 21  4  0
 21 26  4  0
 22 26  4  0
M  END
$$$$

 Created by Python create_sdf_string function

 28 30  0  0  0  0  0  0  0  0999 V2000
    5.7174   -8.4529   26.7190 C   0  0  0  0  0  0  0  0  0  0  0  0
    0.3974   -7.0711   27.5149 C   0  0  0  0  0  0  0  0  0  0  0  0
    2.5338   -7.6891   16.0102 C   0  0  0  0  0  0  0  0  0  0  0  0
    4.8690   -7.4380   26.4151 C   0  0  0  0  0  0  0  0  0  0  0  0
    2.3021   -5.6726   26.0378 C   0  0  0  0  0  0  0  0  0  0  0  0
    7.0880   -4.6163   27.0010 C   0  0  0  0  0  0  0  0  0  0  0  0
    8.3117   -4.3698   27.4436 C   0  0  0  0  0  0  0  0  0  0  0  0
    1.1339   -5.0515   26.3541 C   0  0  0  0  0  0  0  0  0  0  0  0
    4.8080   -8.0362   16.7101 C   0  0  0  0  0  0  0  0  0  0  0  0
   -1.2173   -3.9294   26.9717 O   0  0  0  0  0  0  0  0  0  0  0  0
   -1.0025   -5.0942   27.4586 C   0  0  0  0  0  0  0  0  0  0  0  0
    2.2474   -8.9123   16.6273 C   0  0  0  0  0  0  0  0  0  0  0  0
    4.4957   -9.2636   17.3041 C   0  0  0  0  0  0  0  0  0  0  0  0
   -1.8070   -5.6086   28.1920 O   0  0  0  0  0  0  0  0  0  0  0  0
   10.4296   -5.1799   28.3140 C   0  0  0  0  0  0  0  0  0  0  0  0
    6.6017   -5.9004   26.9187 C   0  0  0  0  0  0  0  0  0  0  0  0
    2.4761   -6.9940   26.4111 N   0  0  0  0  0  0  0  0  0  0  0  0
    9.1353   -5.4053   27.8239 C   0  0  0  0  0  0  0  0  0  0  0  0
    0.9922   -9.3232   16.5995 O   0  0  0  0  0  0  0  0  0  0  0  0
    1.5232   -7.6869   27.1182 C   0  0  0  0  0  0  0  0  0  0  0  0
    8.6878   -6.6715   27.7262 N   0  0  0  0  0  0  0  0  0  0  0  0
    6.9911   -8.2423   27.1808 C   0  0  0  0  0  0  0  0  0  0  0  0
    3.8436   -7.2758   16.0578 C   0  0  0  0  0  0  0  0  0  0  0  0
    3.1882   -9.7190   17.2566 C   0  0  0  0  0  0  0  0  0  0  0  0
    5.3488   -6.1737   26.5092 C   0  0  0  0  0  0  0  0  0  0  0  0
    7.4567   -6.9464   27.2858 C   0  0  0  0  0  0  0  0  0  0  0  0
    0.1921   -5.7592   27.1123 C   0  0  0  0  0  0  0  0  0  0  0  0
    3.5517   -7.7407   25.9711 C   0  0  0  0  0  0  0  0  0  0  0  0
  1  4  4  0
  1 22  4  0
  2 20  4  0
  2 27  4  0
  3 12  4  0
  3 23  4  0
  4 25  4  0
  4 28  1  0
  5  8  4  0
  5 17  4  0
  6  7  4  0
  6 16  4  0
  7 18  4  0
  8 27  4  0
  9 13  4  0
  9 23  4  0
 10 11  1  0
 11 14  2  0
 11 27  1  0
 12 19  1  0
 12 24  4  0
 13 24  4  0
 15 18  1  0
 16 25  4  0
 16 26  4  0
 17 20  4  0
 17 28  1  0
 18 21  4  0
 21 26  4  0
 22 26  4  0
M  END
$$$$

 Created by Python create_sdf_string function

 28 30  0  0  0  0  0  0  0  0999 V2000
    5.7174   -8.4529   26.7190 C   0  0  0  0  0  0  0  0  0  0  0  0
    0.3974   -7.0711   27.5149 C   0  0  0  0  0  0  0  0  0  0  0  0
    2.5338   -7.6891   16.0102 C   0  0  0  0  0  0  0  0  0  0  0  0
    4.8690   -7.4380   26.4151 C   0  0  0  0  0  0  0  0  0  0  0  0
    2.3021   -5.6726   26.0378 C   0  0  0  0  0  0  0  0  0  0  0  0
    7.0880   -4.6163   27.0010 C   0  0  0  0  0  0  0  0  0  0  0  0
    8.3117   -4.3698   27.4436 C   0  0  0  0  0  0  0  0  0  0  0  0
    1.1339   -5.0515   26.3541 C   0  0  0  0  0  0  0  0  0  0  0  0
    4.8080   -8.0362   16.7101 C   0  0  0  0  0  0  0  0  0  0  0  0
   -1.2173   -3.9294   26.9717 O   0  0  0  0  0  0  0  0  0  0  0  0
   -1.0025   -5.0942   27.4586 C   0  0  0  0  0  0  0  0  0  0  0  0
    2.2474   -8.9123   16.6273 C   0  0  0  0  0  0  0  0  0  0  0  0
    4.4957   -9.2636   17.3041 C   0  0  0  0  0  0  0  0  0  0  0  0
   -1.8070   -5.6086   28.1920 O   0  0  0  0  0  0  0  0  0  0  0  0
   10.4296   -5.1799   28.3140 C   0  0  0  0  0  0  0  0  0  0  0  0
    6.6017   -5.9004   26.9187 C   0  0  0  0  0  0  0  0  0  0  0  0
    2.4761   -6.9940   26.4111 N   0  0  0  0  0  0  0  0  0  0  0  0
    9.1353   -5.4053   27.8239 C   0  0  0  0  0  0  0  0  0  0  0  0
    0.9922   -9.3232   16.5995 O   0  0  0  0  0  0  0  0  0  0  0  0
    1.5232   -7.6869   27.1182 C   0  0  0  0  0  0  0  0  0  0  0  0
    8.6878   -6.6715   27.7262 N   0  0  0  0  0  0  0  0  0  0  0  0
    6.9911   -8.2423   27.1808 C   0  0  0  0  0  0  0  0  0  0  0  0
    3.8436   -7.2758   16.0578 C   0  0  0  0  0  0  0  0  0  0  0  0
    3.1882   -9.7190   17.2566 C   0  0  0  0  0  0  0  0  0  0  0  0
    5.3488   -6.1737   26.5092 C   0  0  0  0  0  0  0  0  0  0  0  0
    7.4567   -6.9464   27.2858 C   0  0  0  0  0  0  0  0  0  0  0  0
    0.1921   -5.7592   27.1123 C   0  0  0  0  0  0  0  0  0  0  0  0
    3.5517   -7.7407   25.9711 C   0  0  0  0  0  0  0  0  0  0  0  0
  1  4  4  0
  1 22  4  0
  2 20  4  0
  2 27  4  0
  3 12  4  0
  3 23  4  0
  4 25  4  0
  4 28  1  0
  5  8  4  0
  5 17  4  0
  6  7  4  0
  6 16  4  0
  7 18  4  0
  8 27  4  0
  9 13  4  0
  9 23  4  0
 10 11  1  0
 11 14  2  0
 11 27  1  0
 12 19  1  0
 12 24  4  0
 13 24  4  0
 15 18  1  0
 16 25  4  0
 16 26  4  0
 17 20  4  0
 17 28  1  0
 18 21  4  0
 21 26  4  0
 22 26  4  0
M  END
$$$$

 Created by Python create_sdf_string function

 28 30  0  0  0  0  0  0  0  0999 V2000
    5.7174   -8.4529   26.7190 C   0  0  0  0  0  0  0  0  0  0  0  0
    0.3974   -7.0711   27.5149 C   0  0  0  0  0  0  0  0  0  0  0  0
    2.5338   -7.6891   16.0102 C   0  0  0  0  0  0  0  0  0  0  0  0
    4.8690   -7.4380   26.4151 C   0  0  0  0  0  0  0  0  0  0  0  0
    2.3021   -5.6726   26.0378 C   0  0  0  0  0  0  0  0  0  0  0  0
    7.0880   -4.6163   27.0010 C   0  0  0  0  0  0  0  0  0  0  0  0
    8.3117   -4.3698   27.4436 C   0  0  0  0  0  0  0  0  0  0  0  0
    1.1339   -5.0515   26.3541 C   0  0  0  0  0  0  0  0  0  0  0  0
    4.8080   -8.0362   16.7101 C   0  0  0  0  0  0  0  0  0  0  0  0
   -1.2173   -3.9294   26.9717 O   0  0  0  0  0  0  0  0  0  0  0  0
   -1.0025   -5.0942   27.4586 C   0  0  0  0  0  0  0  0  0  0  0  0
    2.2474   -8.9123   16.6273 C   0  0  0  0  0  0  0  0  0  0  0  0
    4.4957   -9.2636   17.3041 C   0  0  0  0  0  0  0  0  0  0  0  0
   -1.8070   -5.6086   28.1920 O   0  0  0  0  0  0  0  0  0  0  0  0
   10.4296   -5.1799   28.3140 C   0  0  0  0  0  0  0  0  0  0  0  0
    6.6017   -5.9004   26.9187 C   0  0  0  0  0  0  0  0  0  0  0  0
    2.4761   -6.9940   26.4111 N   0  0  0  0  0  0  0  0  0  0  0  0
    9.1353   -5.4053   27.8239 C   0  0  0  0  0  0  0  0  0  0  0  0
    0.9922   -9.3232   16.5995 O   0  0  0  0  0  0  0  0  0  0  0  0
    1.5232   -7.6869   27.1182 C   0  0  0  0  0  0  0  0  0  0  0  0
    8.6878   -6.6715   27.7262 N   0  0  0  0  0  0  0  0  0  0  0  0
    6.9911   -8.2423   27.1808 C   0  0  0  0  0  0  0  0  0  0  0  0
    3.8436   -7.2758   16.0578 C   0  0  0  0  0  0  0  0  0  0  0  0
    3.1882   -9.7190   17.2566 C   0  0  0  0  0  0  0  0  0  0  0  0
    5.3488   -6.1737   26.5092 C   0  0  0  0  0  0  0  0  0  0  0  0
    7.4567   -6.9464   27.2858 C   0  0  0  0  0  0  0  0  0  0  0  0
    0.1921   -5.7592   27.1123 C   0  0  0  0  0  0  0  0  0  0  0  0
    3.5517   -7.7407   25.9711 C   0  0  0  0  0  0  0  0  0  0  0  0
  1  4  4  0
  1 22  4  0
  2 20  4  0
  2 27  4  0
  3 12  4  0
  3 23  4  0
  4 25  4  0
  4 28  1  0
  5  8  4  0
  5 17  4  0
  6  7  4  0
  6 16  4  0
  7 18  4  0
  8 27  4  0
  9 13  4  0
  9 23  4  0
 10 11  1  0
 11 14  2  0
 11 27  1  0
 12 19  1  0
 12 24  4  0
 13 24  4  0
 15 18  1  0
 16 25  4  0
 16 26  4  0
 17 20  4  0
 17 28  1  0
 18 21  4  0
 21 26  4  0
 22 26  4  0
M  END
$$$$

 Created by Python create_sdf_string function

 28 30  0  0  0  0  0  0  0  0999 V2000
    5.7174   -8.4529   26.7190 C   0  0  0  0  0  0  0  0  0  0  0  0
    0.3974   -7.0711   27.5149 C   0  0  0  0  0  0  0  0  0  0  0  0
    2.5338   -7.6891   16.0102 C   0  0  0  0  0  0  0  0  0  0  0  0
    4.8690   -7.4380   26.4151 C   0  0  0  0  0  0  0  0  0  0  0  0
    2.3021   -5.6726   26.0378 C   0  0  0  0  0  0  0  0  0  0  0  0
    7.0880   -4.6163   27.0010 C   0  0  0  0  0  0  0  0  0  0  0  0
    8.3117   -4.3698   27.4436 C   0  0  0  0  0  0  0  0  0  0  0  0
    1.1339   -5.0515   26.3541 C   0  0  0  0  0  0  0  0  0  0  0  0
    4.8080   -8.0362   16.7101 C   0  0  0  0  0  0  0  0  0  0  0  0
   -1.2173   -3.9294   26.9717 O   0  0  0  0  0  0  0  0  0  0  0  0
   -1.0025   -5.0942   27.4586 C   0  0  0  0  0  0  0  0  0  0  0  0
    2.2474   -8.9123   16.6273 C   0  0  0  0  0  0  0  0  0  0  0  0
    4.4957   -9.2636   17.3041 C   0  0  0  0  0  0  0  0  0  0  0  0
   -1.8070   -5.6086   28.1920 O   0  0  0  0  0  0  0  0  0  0  0  0
   10.4296   -5.1799   28.3140 C   0  0  0  0  0  0  0  0  0  0  0  0
    6.6017   -5.9004   26.9187 C   0  0  0  0  0  0  0  0  0  0  0  0
    2.4761   -6.9940   26.4111 N   0  0  0  0  0  0  0  0  0  0  0  0
    9.1353   -5.4053   27.8239 C   0  0  0  0  0  0  0  0  0  0  0  0
    0.9922   -9.3232   16.5995 O   0  0  0  0  0  0  0  0  0  0  0  0
    1.5232   -7.6869   27.1182 C   0  0  0  0  0  0  0  0  0  0  0  0
    8.6878   -6.6715   27.7262 N   0  0  0  0  0  0  0  0  0  0  0  0
    6.9911   -8.2423   27.1808 C   0  0  0  0  0  0  0  0  0  0  0  0
    3.8436   -7.2758   16.0578 C   0  0  0  0  0  0  0  0  0  0  0  0
    3.1882   -9.7190   17.2566 C   0  0  0  0  0  0  0  0  0  0  0  0
    5.3488   -6.1737   26.5092 C   0  0  0  0  0  0  0  0  0  0  0  0
    7.4567   -6.9464   27.2858 C   0  0  0  0  0  0  0  0  0  0  0  0
    0.1921   -5.7592   27.1123 C   0  0  0  0  0  0  0  0  0  0  0  0
    3.5517   -7.7407   25.9711 C   0  0  0  0  0  0  0  0  0  0  0  0
  1  4  4  0
  1 22  4  0
  2 20  4  0
  2 27  4  0
  3 12  4  0
  3 23  4  0
  4 25  4  0
  4 28  1  0
  5  8  4  0
  5 17  4  0
  6  7  4  0
  6 16  4  0
  7 18  4  0
  8 27  4  0
  9 13  4  0
  9 23  4  0
 10 11  1  0
 11 14  2  0
 11 27  1  0
 12 19  1  0
 12 24  4  0
 13 24  4  0
 15 18  1  0
 16 25  4  0
 16 26  4  0
 17 20  4  0
 17 28  1  0
 18 21  4  0
 21 26  4  0
 22 26  4  0
M  END
$$$$

 Created by Python create_sdf_string function

 28 30  0  0  0  0  0  0  0  0999 V2000
    5.7174   -8.4529   26.7190 C   0  0  0  0  0  0  0  0  0  0  0  0
    0.3974   -7.0711   27.5149 C   0  0  0  0  0  0  0  0  0  0  0  0
    2.5338   -7.6891   16.0102 C   0  0  0  0  0  0  0  0  0  0  0  0
    4.8690   -7.4380   26.4151 C   0  0  0  0  0  0  0  0  0  0  0  0
    2.3021   -5.6726   26.0378 C   0  0  0  0  0  0  0  0  0  0  0  0
    7.0880   -4.6163   27.0010 C   0  0  0  0  0  0  0  0  0  0  0  0
    8.3117   -4.3698   27.4436 C   0  0  0  0  0  0  0  0  0  0  0  0
    1.1339   -5.0515   26.3541 C   0  0  0  0  0  0  0  0  0  0  0  0
    4.8080   -8.0362   16.7101 C   0  0  0  0  0  0  0  0  0  0  0  0
   -1.2173   -3.9294   26.9717 O   0  0  0  0  0  0  0  0  0  0  0  0
   -1.0025   -5.0942   27.4586 C   0  0  0  0  0  0  0  0  0  0  0  0
    2.2474   -8.9123   16.6273 C   0  0  0  0  0  0  0  0  0  0  0  0
    4.4957   -9.2636   17.3041 C   0  0  0  0  0  0  0  0  0  0  0  0
   -1.8070   -5.6086   28.1920 O   0  0  0  0  0  0  0  0  0  0  0  0
   10.4296   -5.1799   28.3140 C   0  0  0  0  0  0  0  0  0  0  0  0
    6.6017   -5.9004   26.9187 C   0  0  0  0  0  0  0  0  0  0  0  0
    2.4761   -6.9940   26.4111 N   0  0  0  0  0  0  0  0  0  0  0  0
    9.1353   -5.4053   27.8239 C   0  0  0  0  0  0  0  0  0  0  0  0
    0.9922   -9.3232   16.5995 O   0  0  0  0  0  0  0  0  0  0  0  0
    1.5232   -7.6869   27.1182 C   0  0  0  0  0  0  0  0  0  0  0  0
    8.6878   -6.6715   27.7262 N   0  0  0  0  0  0  0  0  0  0  0  0
    6.9911   -8.2423   27.1808 C   0  0  0  0  0  0  0  0  0  0  0  0
    3.8436   -7.2758   16.0578 C   0  0  0  0  0  0  0  0  0  0  0  0
    3.1882   -9.7190   17.2566 C   0  0  0  0  0  0  0  0  0  0  0  0
    5.3488   -6.1737   26.5092 C   0  0  0  0  0  0  0  0  0  0  0  0
    7.4567   -6.9464   27.2858 C   0  0  0  0  0  0  0  0  0  0  0  0
    0.1921   -5.7592   27.1123 C   0  0  0  0  0  0  0  0  0  0  0  0
    3.5517   -7.7407   25.9711 C   0  0  0  0  0  0  0  0  0  0  0  0
  1  4  4  0
  1 22  4  0
  2 20  4  0
  2 27  4  0
  3 12  4  0
  3 23  4  0
  4 25  4  0
  4 28  1  0
  5  8  4  0
  5 17  4  0
  6  7  4  0
  6 16  4  0
  7 18  4  0
  8 27  4  0
  9 13  4  0
  9 23  4  0
 10 11  1  0
 11 14  2  0
 11 27  1  0
 12 19  1  0
 12 24  4  0
 13 24  4  0
 15 18  1  0
 16 25  4  0
 16 26  4  0
 17 20  4  0
 17 28  1  0
 18 21  4  0
 21 26  4  0
 22 26  4  0
M  END
$$$$

 Created by Python create_sdf_string function

 28 30  0  0  0  0  0  0  0  0999 V2000
    5.7174   -8.4529   26.7190 C   0  0  0  0  0  0  0  0  0  0  0  0
    0.3974   -7.0711   27.5149 C   0  0  0  0  0  0  0  0  0  0  0  0
    2.5338   -7.6891   16.0102 C   0  0  0  0  0  0  0  0  0  0  0  0
    4.8690   -7.4380   26.4151 C   0  0  0  0  0  0  0  0  0  0  0  0
    2.3021   -5.6726   26.0378 C   0  0  0  0  0  0  0  0  0  0  0  0
    7.0880   -4.6163   27.0010 C   0  0  0  0  0  0  0  0  0  0  0  0
    8.3117   -4.3698   27.4436 C   0  0  0  0  0  0  0  0  0  0  0  0
    1.1339   -5.0515   26.3541 C   0  0  0  0  0  0  0  0  0  0  0  0
    4.8080   -8.0362   16.7101 C   0  0  0  0  0  0  0  0  0  0  0  0
   -1.2173   -3.9294   26.9717 O   0  0  0  0  0  0  0  0  0  0  0  0
   -1.0025   -5.0942   27.4586 C   0  0  0  0  0  0  0  0  0  0  0  0
    2.2474   -8.9123   16.6273 C   0  0  0  0  0  0  0  0  0  0  0  0
    4.4957   -9.2636   17.3041 C   0  0  0  0  0  0  0  0  0  0  0  0
   -1.8070   -5.6086   28.1920 O   0  0  0  0  0  0  0  0  0  0  0  0
   10.4296   -5.1799   28.3140 C   0  0  0  0  0  0  0  0  0  0  0  0
    6.6017   -5.9004   26.9187 C   0  0  0  0  0  0  0  0  0  0  0  0
    2.4761   -6.9940   26.4111 N   0  0  0  0  0  0  0  0  0  0  0  0
    9.1353   -5.4053   27.8239 C   0  0  0  0  0  0  0  0  0  0  0  0
    0.9922   -9.3232   16.5995 O   0  0  0  0  0  0  0  0  0  0  0  0
    1.5232   -7.6869   27.1182 C   0  0  0  0  0  0  0  0  0  0  0  0
    8.6878   -6.6715   27.7262 N   0  0  0  0  0  0  0  0  0  0  0  0
    6.9911   -8.2423   27.1808 C   0  0  0  0  0  0  0  0  0  0  0  0
    3.8436   -7.2758   16.0578 C   0  0  0  0  0  0  0  0  0  0  0  0
    3.1882   -9.7190   17.2566 C   0  0  0  0  0  0  0  0  0  0  0  0
    5.3488   -6.1737   26.5092 C   0  0  0  0  0  0  0  0  0  0  0  0
    7.4567   -6.9464   27.2858 C   0  0  0  0  0  0  0  0  0  0  0  0
    0.1921   -5.7592   27.1123 C   0  0  0  0  0  0  0  0  0  0  0  0
    3.5517   -7.7407   25.9711 C   0  0  0  0  0  0  0  0  0  0  0  0
  1  4  4  0
  1 22  4  0
  2 20  4  0
  2 27  4  0
  3 12  4  0
  3 23  4  0
  4 25  4  0
  4 28  1  0
  5  8  4  0
  5 17  4  0
  6  7  4  0
  6 16  4  0
  7 18  4  0
  8 27  4  0
  9 13  4  0
  9 23  4  0
 10 11  1  0
 11 14  2  0
 11 27  1  0
 12 19  1  0
 12 24  4  0
 13 24  4  0
 15 18  1  0
 16 25  4  0
 16 26  4  0
 17 20  4  0
 17 28  1  0
 18 21  4  0
 21 26  4  0
 22 26  4  0
M  END
$$$$

 Created by Python create_sdf_string function

 28 30  0  0  0  0  0  0  0  0999 V2000
    5.7174   -8.4529   26.7190 C   0  0  0  0  0  0  0  0  0  0  0  0
    0.3974   -7.0711   27.5149 C   0  0  0  0  0  0  0  0  0  0  0  0
    2.5338   -7.6891   16.0102 C   0  0  0  0  0  0  0  0  0  0  0  0
    4.8690   -7.4380   26.4151 C   0  0  0  0  0  0  0  0  0  0  0  0
    2.3021   -5.6726   26.0378 C   0  0  0  0  0  0  0  0  0  0  0  0
    7.0880   -4.6163   27.0010 C   0  0  0  0  0  0  0  0  0  0  0  0
    8.3117   -4.3698   27.4436 C   0  0  0  0  0  0  0  0  0  0  0  0
    1.1339   -5.0515   26.3541 C   0  0  0  0  0  0  0  0  0  0  0  0
    4.8080   -8.0362   16.7101 C   0  0  0  0  0  0  0  0  0  0  0  0
   -1.2173   -3.9294   26.9717 O   0  0  0  0  0  0  0  0  0  0  0  0
   -1.0025   -5.0942   27.4586 C   0  0  0  0  0  0  0  0  0  0  0  0
    2.2474   -8.9123   16.6273 C   0  0  0  0  0  0  0  0  0  0  0  0
    4.4957   -9.2636   17.3041 C   0  0  0  0  0  0  0  0  0  0  0  0
   -1.8070   -5.6086   28.1920 O   0  0  0  0  0  0  0  0  0  0  0  0
   10.4296   -5.1799   28.3140 C   0  0  0  0  0  0  0  0  0  0  0  0
    6.6017   -5.9004   26.9187 C   0  0  0  0  0  0  0  0  0  0  0  0
    2.4761   -6.9940   26.4111 N   0  0  0  0  0  0  0  0  0  0  0  0
    9.1353   -5.4053   27.8239 C   0  0  0  0  0  0  0  0  0  0  0  0
    0.9922   -9.3232   16.5995 O   0  0  0  0  0  0  0  0  0  0  0  0
    1.5232   -7.6869   27.1182 C   0  0  0  0  0  0  0  0  0  0  0  0
    8.6878   -6.6715   27.7262 N   0  0  0  0  0  0  0  0  0  0  0  0
    6.9911   -8.2423   27.1808 C   0  0  0  0  0  0  0  0  0  0  0  0
    3.8436   -7.2758   16.0578 C   0  0  0  0  0  0  0  0  0  0  0  0
    3.1882   -9.7190   17.2566 C   0  0  0  0  0  0  0  0  0  0  0  0
    5.3488   -6.1737   26.5092 C   0  0  0  0  0  0  0  0  0  0  0  0
    7.4567   -6.9464   27.2858 C   0  0  0  0  0  0  0  0  0  0  0  0
    0.1921   -5.7592   27.1123 C   0  0  0  0  0  0  0  0  0  0  0  0
    3.5517   -7.7407   25.9711 C   0  0  0  0  0  0  0  0  0  0  0  0
  1  4  4  0
  1 22  4  0
  2 20  4  0
  2 27  4  0
  3 12  4  0
  3 23  4  0
  4 25  4  0
  4 28  1  0
  5  8  4  0
  5 17  4  0
  6  7  4  0
  6 16  4  0
  7 18  4  0
  8 27  4  0
  9 13  4  0
  9 23  4  0
 10 11  1  0
 11 14  2  0
 11 27  1  0
 12 19  1  0
 12 24  4  0
 13 24  4  0
 15 18  1  0
 16 25  4  0
 16 26  4  0
 17 20  4  0
 17 28  1  0
 18 21  4  0
 21 26  4  0
 22 26  4  0
M  END
$$$$

 Created by Python create_sdf_string function

 28 30  0  0  0  0  0  0  0  0999 V2000
    5.7174   -8.4529   26.7190 C   0  0  0  0  0  0  0  0  0  0  0  0
    0.3974   -7.0711   27.5149 C   0  0  0  0  0  0  0  0  0  0  0  0
    2.5338   -7.6891   16.0102 C   0  0  0  0  0  0  0  0  0  0  0  0
    4.8690   -7.4380   26.4151 C   0  0  0  0  0  0  0  0  0  0  0  0
    2.3021   -5.6726   26.0378 C   0  0  0  0  0  0  0  0  0  0  0  0
    7.0880   -4.6163   27.0010 C   0  0  0  0  0  0  0  0  0  0  0  0
    8.3117   -4.3698   27.4436 C   0  0  0  0  0  0  0  0  0  0  0  0
    1.1339   -5.0515   26.3541 C   0  0  0  0  0  0  0  0  0  0  0  0
    4.8080   -8.0362   16.7101 C   0  0  0  0  0  0  0  0  0  0  0  0
   -1.2173   -3.9294   26.9717 O   0  0  0  0  0  0  0  0  0  0  0  0
   -1.0025   -5.0942   27.4586 C   0  0  0  0  0  0  0  0  0  0  0  0
    2.2474   -8.9123   16.6273 C   0  0  0  0  0  0  0  0  0  0  0  0
    4.4957   -9.2636   17.3041 C   0  0  0  0  0  0  0  0  0  0  0  0
   -1.8070   -5.6086   28.1920 O   0  0  0  0  0  0  0  0  0  0  0  0
   10.4296   -5.1799   28.3140 C   0  0  0  0  0  0  0  0  0  0  0  0
    6.6017   -5.9004   26.9187 C   0  0  0  0  0  0  0  0  0  0  0  0
    2.4761   -6.9940   26.4111 N   0  0  0  0  0  0  0  0  0  0  0  0
    9.1353   -5.4053   27.8239 C   0  0  0  0  0  0  0  0  0  0  0  0
    0.9922   -9.3232   16.5995 O   0  0  0  0  0  0  0  0  0  0  0  0
    1.5232   -7.6869   27.1182 C   0  0  0  0  0  0  0  0  0  0  0  0
    8.6878   -6.6715   27.7262 N   0  0  0  0  0  0  0  0  0  0  0  0
    6.9911   -8.2423   27.1808 C   0  0  0  0  0  0  0  0  0  0  0  0
    3.8436   -7.2758   16.0578 C   0  0  0  0  0  0  0  0  0  0  0  0
    3.1882   -9.7190   17.2566 C   0  0  0  0  0  0  0  0  0  0  0  0
    5.3488   -6.1737   26.5092 C   0  0  0  0  0  0  0  0  0  0  0  0
    7.4567   -6.9464   27.2858 C   0  0  0  0  0  0  0  0  0  0  0  0
    0.1921   -5.7592   27.1123 C   0  0  0  0  0  0  0  0  0  0  0  0
    3.5517   -7.7407   25.9711 C   0  0  0  0  0  0  0  0  0  0  0  0
  1  4  4  0
  1 22  4  0
  2 20  4  0
  2 27  4  0
  3 12  4  0
  3 23  4  0
  4 25  4  0
  4 28  1  0
  5  8  4  0
  5 17  4  0
  6  7  4  0
  6 16  4  0
  7 18  4  0
  8 27  4  0
  9 13  4  0
  9 23  4  0
 10 11  1  0
 11 14  2  0
 11 27  1  0
 12 19  1  0
 12 24  4  0
 13 24  4  0
 15 18  1  0
 16 25  4  0
 16 26  4  0
 17 20  4  0
 17 28  1  0
 18 21  4  0
 21 26  4  0
 22 26  4  0
M  END
$$$$

 Created by Python create_sdf_string function

 28 30  0  0  0  0  0  0  0  0999 V2000
    5.7174   -8.4529   26.7190 C   0  0  0  0  0  0  0  0  0  0  0  0
    0.3974   -7.0711   27.5149 C   0  0  0  0  0  0  0  0  0  0  0  0
    2.5338   -7.6891   16.0102 C   0  0  0  0  0  0  0  0  0  0  0  0
    4.8690   -7.4380   26.4151 C   0  0  0  0  0  0  0  0  0  0  0  0
    2.3021   -5.6726   26.0378 C   0  0  0  0  0  0  0  0  0  0  0  0
    7.0880   -4.6163   27.0010 C   0  0  0  0  0  0  0  0  0  0  0  0
    8.3117   -4.3698   27.4436 C   0  0  0  0  0  0  0  0  0  0  0  0
    1.1339   -5.0515   26.3541 C   0  0  0  0  0  0  0  0  0  0  0  0
    4.8080   -8.0362   16.7101 C   0  0  0  0  0  0  0  0  0  0  0  0
   -1.2173   -3.9294   26.9717 O   0  0  0  0  0  0  0  0  0  0  0  0
   -1.0025   -5.0942   27.4586 C   0  0  0  0  0  0  0  0  0  0  0  0
    2.2474   -8.9123   16.6273 C   0  0  0  0  0  0  0  0  0  0  0  0
    4.4957   -9.2636   17.3041 C   0  0  0  0  0  0  0  0  0  0  0  0
   -1.8070   -5.6086   28.1920 O   0  0  0  0  0  0  0  0  0  0  0  0
   10.4296   -5.1799   28.3140 C   0  0  0  0  0  0  0  0  0  0  0  0
    6.6017   -5.9004   26.9187 C   0  0  0  0  0  0  0  0  0  0  0  0
    2.4761   -6.9940   26.4111 N   0  0  0  0  0  0  0  0  0  0  0  0
    9.1353   -5.4053   27.8239 C   0  0  0  0  0  0  0  0  0  0  0  0
    0.9922   -9.3232   16.5995 O   0  0  0  0  0  0  0  0  0  0  0  0
    1.5232   -7.6869   27.1182 C   0  0  0  0  0  0  0  0  0  0  0  0
    8.6878   -6.6715   27.7262 N   0  0  0  0  0  0  0  0  0  0  0  0
    6.9911   -8.2423   27.1808 C   0  0  0  0  0  0  0  0  0  0  0  0
    3.8436   -7.2758   16.0578 C   0  0  0  0  0  0  0  0  0  0  0  0
    3.1882   -9.7190   17.2566 C   0  0  0  0  0  0  0  0  0  0  0  0
    5.3488   -6.1737   26.5092 C   0  0  0  0  0  0  0  0  0  0  0  0
    7.4567   -6.9464   27.2858 C   0  0  0  0  0  0  0  0  0  0  0  0
    0.1921   -5.7592   27.1123 C   0  0  0  0  0  0  0  0  0  0  0  0
    3.5517   -7.7407   25.9711 C   0  0  0  0  0  0  0  0  0  0  0  0
  1  4  4  0
  1 22  4  0
  2 20  4  0
  2 27  4  0
  3 12  4  0
  3 23  4  0
  4 25  4  0
  4 28  1  0
  5  8  4  0
  5 17  4  0
  6  7  4  0
  6 16  4  0
  7 18  4  0
  8 27  4  0
  9 13  4  0
  9 23  4  0
 10 11  1  0
 11 14  2  0
 11 27  1  0
 12 19  1  0
 12 24  4  0
 13 24  4  0
 15 18  1  0
 16 25  4  0
 16 26  4  0
 17 20  4  0
 17 28  1  0
 18 21  4  0
 21 26  4  0
 22 26  4  0
M  END
$$$$

 Created by Python create_sdf_string function

 28 30  0  0  0  0  0  0  0  0999 V2000
    5.7174   -8.4529   26.7190 C   0  0  0  0  0  0  0  0  0  0  0  0
    0.3974   -7.0711   27.5149 C   0  0  0  0  0  0  0  0  0  0  0  0
    2.5338   -7.6891   16.0102 C   0  0  0  0  0  0  0  0  0  0  0  0
    4.8690   -7.4380   26.4151 C   0  0  0  0  0  0  0  0  0  0  0  0
    2.3021   -5.6726   26.0378 C   0  0  0  0  0  0  0  0  0  0  0  0
    7.0880   -4.6163   27.0010 C   0  0  0  0  0  0  0  0  0  0  0  0
    8.3117   -4.3698   27.4436 C   0  0  0  0  0  0  0  0  0  0  0  0
    1.1339   -5.0515   26.3541 C   0  0  0  0  0  0  0  0  0  0  0  0
    4.8080   -8.0362   16.7101 C   0  0  0  0  0  0  0  0  0  0  0  0
   -1.2173   -3.9294   26.9717 O   0  0  0  0  0  0  0  0  0  0  0  0
   -1.0025   -5.0942   27.4586 C   0  0  0  0  0  0  0  0  0  0  0  0
    2.2474   -8.9123   16.6273 C   0  0  0  0  0  0  0  0  0  0  0  0
    4.4957   -9.2636   17.3041 C   0  0  0  0  0  0  0  0  0  0  0  0
   -1.8070   -5.6086   28.1920 O   0  0  0  0  0  0  0  0  0  0  0  0
   10.4296   -5.1799   28.3140 C   0  0  0  0  0  0  0  0  0  0  0  0
    6.6017   -5.9004   26.9187 C   0  0  0  0  0  0  0  0  0  0  0  0
    2.4761   -6.9940   26.4111 N   0  0  0  0  0  0  0  0  0  0  0  0
    9.1353   -5.4053   27.8239 C   0  0  0  0  0  0  0  0  0  0  0  0
    0.9922   -9.3232   16.5995 O   0  0  0  0  0  0  0  0  0  0  0  0
    1.5232   -7.6869   27.1182 C   0  0  0  0  0  0  0  0  0  0  0  0
    8.6878   -6.6715   27.7262 N   0  0  0  0  0  0  0  0  0  0  0  0
    6.9911   -8.2423   27.1808 C   0  0  0  0  0  0  0  0  0  0  0  0
    3.8436   -7.2758   16.0578 C   0  0  0  0  0  0  0  0  0  0  0  0
    3.1882   -9.7190   17.2566 C   0  0  0  0  0  0  0  0  0  0  0  0
    5.3488   -6.1737   26.5092 C   0  0  0  0  0  0  0  0  0  0  0  0
    7.4567   -6.9464   27.2858 C   0  0  0  0  0  0  0  0  0  0  0  0
    0.1921   -5.7592   27.1123 C   0  0  0  0  0  0  0  0  0  0  0  0
    3.5517   -7.7407   25.9711 C   0  0  0  0  0  0  0  0  0  0  0  0
  1  4  4  0
  1 22  4  0
  2 20  4  0
  2 27  4  0
  3 12  4  0
  3 23  4  0
  4 25  4  0
  4 28  1  0
  5  8  4  0
  5 17  4  0
  6  7  4  0
  6 16  4  0
  7 18  4  0
  8 27  4  0
  9 13  4  0
  9 23  4  0
 10 11  1  0
 11 14  2  0
 11 27  1  0
 12 19  1  0
 12 24  4  0
 13 24  4  0
 15 18  1  0
 16 25  4  0
 16 26  4  0
 17 20  4  0
 17 28  1  0
 18 21  4  0
 21 26  4  0
 22 26  4  0
M  END
$$$$

 Created by Python create_sdf_string function

 28 30  0  0  0  0  0  0  0  0999 V2000
    5.7174   -8.4529   26.7190 C   0  0  0  0  0  0  0  0  0  0  0  0
    0.3974   -7.0711   27.5149 C   0  0  0  0  0  0  0  0  0  0  0  0
    2.5338   -7.6891   16.0102 C   0  0  0  0  0  0  0  0  0  0  0  0
    4.8690   -7.4380   26.4151 C   0  0  0  0  0  0  0  0  0  0  0  0
    2.3021   -5.6726   26.0378 C   0  0  0  0  0  0  0  0  0  0  0  0
    7.0880   -4.6163   27.0010 C   0  0  0  0  0  0  0  0  0  0  0  0
    8.3117   -4.3698   27.4436 C   0  0  0  0  0  0  0  0  0  0  0  0
    1.1339   -5.0515   26.3541 C   0  0  0  0  0  0  0  0  0  0  0  0
    4.8080   -8.0362   16.7101 C   0  0  0  0  0  0  0  0  0  0  0  0
   -1.2173   -3.9294   26.9717 O   0  0  0  0  0  0  0  0  0  0  0  0
   -1.0025   -5.0942   27.4586 C   0  0  0  0  0  0  0  0  0  0  0  0
    2.2474   -8.9123   16.6273 C   0  0  0  0  0  0  0  0  0  0  0  0
    4.4957   -9.2636   17.3041 C   0  0  0  0  0  0  0  0  0  0  0  0
   -1.8070   -5.6086   28.1920 O   0  0  0  0  0  0  0  0  0  0  0  0
   10.4296   -5.1799   28.3140 C   0  0  0  0  0  0  0  0  0  0  0  0
    6.6017   -5.9004   26.9187 C   0  0  0  0  0  0  0  0  0  0  0  0
    2.4761   -6.9940   26.4111 N   0  0  0  0  0  0  0  0  0  0  0  0
    9.1353   -5.4053   27.8239 C   0  0  0  0  0  0  0  0  0  0  0  0
    0.9922   -9.3232   16.5995 O   0  0  0  0  0  0  0  0  0  0  0  0
    1.5232   -7.6869   27.1182 C   0  0  0  0  0  0  0  0  0  0  0  0
    8.6878   -6.6715   27.7262 N   0  0  0  0  0  0  0  0  0  0  0  0
    6.9911   -8.2423   27.1808 C   0  0  0  0  0  0  0  0  0  0  0  0
    3.8436   -7.2758   16.0578 C   0  0  0  0  0  0  0  0  0  0  0  0
    3.1882   -9.7190   17.2566 C   0  0  0  0  0  0  0  0  0  0  0  0
    5.3488   -6.1737   26.5092 C   0  0  0  0  0  0  0  0  0  0  0  0
    7.4567   -6.9464   27.2858 C   0  0  0  0  0  0  0  0  0  0  0  0
    0.1921   -5.7592   27.1123 C   0  0  0  0  0  0  0  0  0  0  0  0
    3.5517   -7.7407   25.9711 C   0  0  0  0  0  0  0  0  0  0  0  0
  1  4  4  0
  1 22  4  0
  2 20  4  0
  2 27  4  0
  3 12  4  0
  3 23  4  0
  4 25  4  0
  4 28  1  0
  5  8  4  0
  5 17  4  0
  6  7  4  0
  6 16  4  0
  7 18  4  0
  8 27  4  0
  9 13  4  0
  9 23  4  0
 10 11  1  0
 11 14  2  0
 11 27  1  0
 12 19  1  0
 12 24  4  0
 13 24  4  0
 15 18  1  0
 16 25  4  0
 16 26  4  0
 17 20  4  0
 17 28  1  0
 18 21  4  0
 21 26  4  0
 22 26  4  0
M  END
$$$$

 Created by Python create_sdf_string function

 28 30  0  0  0  0  0  0  0  0999 V2000
    5.7174   -8.4529   26.7190 C   0  0  0  0  0  0  0  0  0  0  0  0
    0.3974   -7.0711   27.5149 C   0  0  0  0  0  0  0  0  0  0  0  0
    2.5338   -7.6891   16.0102 C   0  0  0  0  0  0  0  0  0  0  0  0
    4.8690   -7.4380   26.4151 C   0  0  0  0  0  0  0  0  0  0  0  0
    2.3021   -5.6726   26.0378 C   0  0  0  0  0  0  0  0  0  0  0  0
    7.0880   -4.6163   27.0010 C   0  0  0  0  0  0  0  0  0  0  0  0
    8.3117   -4.3698   27.4436 C   0  0  0  0  0  0  0  0  0  0  0  0
    1.1339   -5.0515   26.3541 C   0  0  0  0  0  0  0  0  0  0  0  0
    4.8080   -8.0362   16.7101 C   0  0  0  0  0  0  0  0  0  0  0  0
   -1.2173   -3.9294   26.9717 O   0  0  0  0  0  0  0  0  0  0  0  0
   -1.0025   -5.0942   27.4586 C   0  0  0  0  0  0  0  0  0  0  0  0
    2.2474   -8.9123   16.6273 C   0  0  0  0  0  0  0  0  0  0  0  0
    4.4957   -9.2636   17.3041 C   0  0  0  0  0  0  0  0  0  0  0  0
   -1.8070   -5.6086   28.1920 O   0  0  0  0  0  0  0  0  0  0  0  0
   10.4296   -5.1799   28.3140 C   0  0  0  0  0  0  0  0  0  0  0  0
    6.6017   -5.9004   26.9187 C   0  0  0  0  0  0  0  0  0  0  0  0
    2.4761   -6.9940   26.4111 N   0  0  0  0  0  0  0  0  0  0  0  0
    9.1353   -5.4053   27.8239 C   0  0  0  0  0  0  0  0  0  0  0  0
    0.9922   -9.3232   16.5995 O   0  0  0  0  0  0  0  0  0  0  0  0
    1.5232   -7.6869   27.1182 C   0  0  0  0  0  0  0  0  0  0  0  0
    8.6878   -6.6715   27.7262 N   0  0  0  0  0  0  0  0  0  0  0  0
    6.9911   -8.2423   27.1808 C   0  0  0  0  0  0  0  0  0  0  0  0
    3.8436   -7.2758   16.0578 C   0  0  0  0  0  0  0  0  0  0  0  0
    3.1882   -9.7190   17.2566 C   0  0  0  0  0  0  0  0  0  0  0  0
    5.3488   -6.1737   26.5092 C   0  0  0  0  0  0  0  0  0  0  0  0
    7.4567   -6.9464   27.2858 C   0  0  0  0  0  0  0  0  0  0  0  0
    0.1921   -5.7592   27.1123 C   0  0  0  0  0  0  0  0  0  0  0  0
    3.5517   -7.7407   25.9711 C   0  0  0  0  0  0  0  0  0  0  0  0
  1  4  4  0
  1 22  4  0
  2 20  4  0
  2 27  4  0
  3 12  4  0
  3 23  4  0
  4 25  4  0
  4 28  1  0
  5  8  4  0
  5 17  4  0
  6  7  4  0
  6 16  4  0
  7 18  4  0
  8 27  4  0
  9 13  4  0
  9 23  4  0
 10 11  1  0
 11 14  2  0
 11 27  1  0
 12 19  1  0
 12 24  4  0
 13 24  4  0
 15 18  1  0
 16 25  4  0
 16 26  4  0
 17 20  4  0
 17 28  1  0
 18 21  4  0
 21 26  4  0
 22 26  4  0
M  END
$$$$

 Created by Python create_sdf_string function

 28 30  0  0  0  0  0  0  0  0999 V2000
    5.7174   -8.4529   26.7190 C   0  0  0  0  0  0  0  0  0  0  0  0
    0.3974   -7.0711   27.5149 C   0  0  0  0  0  0  0  0  0  0  0  0
    2.5338   -7.6891   16.0102 C   0  0  0  0  0  0  0  0  0  0  0  0
    4.8690   -7.4380   26.4151 C   0  0  0  0  0  0  0  0  0  0  0  0
    2.3021   -5.6726   26.0378 C   0  0  0  0  0  0  0  0  0  0  0  0
    7.0880   -4.6163   27.0010 C   0  0  0  0  0  0  0  0  0  0  0  0
    8.3117   -4.3698   27.4436 C   0  0  0  0  0  0  0  0  0  0  0  0
    1.1339   -5.0515   26.3541 C   0  0  0  0  0  0  0  0  0  0  0  0
    4.8080   -8.0362   16.7101 C   0  0  0  0  0  0  0  0  0  0  0  0
   -1.2173   -3.9294   26.9717 O   0  0  0  0  0  0  0  0  0  0  0  0
   -1.0025   -5.0942   27.4586 C   0  0  0  0  0  0  0  0  0  0  0  0
    2.2474   -8.9123   16.6273 C   0  0  0  0  0  0  0  0  0  0  0  0
    4.4957   -9.2636   17.3041 C   0  0  0  0  0  0  0  0  0  0  0  0
   -1.8070   -5.6086   28.1920 O   0  0  0  0  0  0  0  0  0  0  0  0
   10.4296   -5.1799   28.3140 C   0  0  0  0  0  0  0  0  0  0  0  0
    6.6017   -5.9004   26.9187 C   0  0  0  0  0  0  0  0  0  0  0  0
    2.4761   -6.9940   26.4111 N   0  0  0  0  0  0  0  0  0  0  0  0
    9.1353   -5.4053   27.8239 C   0  0  0  0  0  0  0  0  0  0  0  0
    0.9922   -9.3232   16.5995 O   0  0  0  0  0  0  0  0  0  0  0  0
    1.5232   -7.6869   27.1182 C   0  0  0  0  0  0  0  0  0  0  0  0
    8.6878   -6.6715   27.7262 N   0  0  0  0  0  0  0  0  0  0  0  0
    6.9911   -8.2423   27.1808 C   0  0  0  0  0  0  0  0  0  0  0  0
    3.8436   -7.2758   16.0578 C   0  0  0  0  0  0  0  0  0  0  0  0
    3.1882   -9.7190   17.2566 C   0  0  0  0  0  0  0  0  0  0  0  0
    5.3488   -6.1737   26.5092 C   0  0  0  0  0  0  0  0  0  0  0  0
    7.4567   -6.9464   27.2858 C   0  0  0  0  0  0  0  0  0  0  0  0
    0.1921   -5.7592   27.1123 C   0  0  0  0  0  0  0  0  0  0  0  0
    3.5517   -7.7407   25.9711 C   0  0  0  0  0  0  0  0  0  0  0  0
  1  4  4  0
  1 22  4  0
  2 20  4  0
  2 27  4  0
  3 12  4  0
  3 23  4  0
  4 25  4  0
  4 28  1  0
  5  8  4  0
  5 17  4  0
  6  7  4  0
  6 16  4  0
  7 18  4  0
  8 27  4  0
  9 13  4  0
  9 23  4  0
 10 11  1  0
 11 14  2  0
 11 27  1  0
 12 19  1  0
 12 24  4  0
 13 24  4  0
 15 18  1  0
 16 25  4  0
 16 26  4  0
 17 20  4  0
 17 28  1  0
 18 21  4  0
 21 26  4  0
 22 26  4  0
M  END
$$$$

 Created by Python create_sdf_string function

 28 30  0  0  0  0  0  0  0  0999 V2000
    5.7174   -8.4529   26.7190 C   0  0  0  0  0  0  0  0  0  0  0  0
    0.3974   -7.0711   27.5149 C   0  0  0  0  0  0  0  0  0  0  0  0
    2.5338   -7.6891   16.0102 C   0  0  0  0  0  0  0  0  0  0  0  0
    4.8690   -7.4380   26.4151 C   0  0  0  0  0  0  0  0  0  0  0  0
    2.3021   -5.6726   26.0378 C   0  0  0  0  0  0  0  0  0  0  0  0
    7.0880   -4.6163   27.0010 C   0  0  0  0  0  0  0  0  0  0  0  0
    8.3117   -4.3698   27.4436 C   0  0  0  0  0  0  0  0  0  0  0  0
    1.1339   -5.0515   26.3541 C   0  0  0  0  0  0  0  0  0  0  0  0
    4.8080   -8.0362   16.7101 C   0  0  0  0  0  0  0  0  0  0  0  0
   -1.2173   -3.9294   26.9717 O   0  0  0  0  0  0  0  0  0  0  0  0
   -1.0025   -5.0942   27.4586 C   0  0  0  0  0  0  0  0  0  0  0  0
    2.2474   -8.9123   16.6273 C   0  0  0  0  0  0  0  0  0  0  0  0
    4.4957   -9.2636   17.3041 C   0  0  0  0  0  0  0  0  0  0  0  0
   -1.8070   -5.6086   28.1920 O   0  0  0  0  0  0  0  0  0  0  0  0
   10.4296   -5.1799   28.3140 C   0  0  0  0  0  0  0  0  0  0  0  0
    6.6017   -5.9004   26.9187 C   0  0  0  0  0  0  0  0  0  0  0  0
    2.4761   -6.9940   26.4111 N   0  0  0  0  0  0  0  0  0  0  0  0
    9.1353   -5.4053   27.8239 C   0  0  0  0  0  0  0  0  0  0  0  0
    0.9922   -9.3232   16.5995 O   0  0  0  0  0  0  0  0  0  0  0  0
    1.5232   -7.6869   27.1182 C   0  0  0  0  0  0  0  0  0  0  0  0
    8.6878   -6.6715   27.7262 N   0  0  0  0  0  0  0  0  0  0  0  0
    6.9911   -8.2423   27.1808 C   0  0  0  0  0  0  0  0  0  0  0  0
    3.8436   -7.2758   16.0578 C   0  0  0  0  0  0  0  0  0  0  0  0
    3.1882   -9.7190   17.2566 C   0  0  0  0  0  0  0  0  0  0  0  0
    5.3488   -6.1737   26.5092 C   0  0  0  0  0  0  0  0  0  0  0  0
    7.4567   -6.9464   27.2858 C   0  0  0  0  0  0  0  0  0  0  0  0
    0.1921   -5.7592   27.1123 C   0  0  0  0  0  0  0  0  0  0  0  0
    3.5517   -7.7407   25.9711 C   0  0  0  0  0  0  0  0  0  0  0  0
  1  4  4  0
  1 22  4  0
  2 20  4  0
  2 27  4  0
  3 12  4  0
  3 23  4  0
  4 25  4  0
  4 28  1  0
  5  8  4  0
  5 17  4  0
  6  7  4  0
  6 16  4  0
  7 18  4  0
  8 27  4  0
  9 13  4  0
  9 23  4  0
 10 11  1  0
 11 14  2  0
 11 27  1  0
 12 19  1  0
 12 24  4  0
 13 24  4  0
 15 18  1  0
 16 25  4  0
 16 26  4  0
 17 20  4  0
 17 28  1  0
 18 21  4  0
 21 26  4  0
 22 26  4  0
M  END
$$$$

 Created by Python create_sdf_string function

 28 30  0  0  0  0  0  0  0  0999 V2000
    5.7174   -8.4529   26.7190 C   0  0  0  0  0  0  0  0  0  0  0  0
    0.3974   -7.0711   27.5149 C   0  0  0  0  0  0  0  0  0  0  0  0
    2.5338   -7.6891   16.0102 C   0  0  0  0  0  0  0  0  0  0  0  0
    4.8690   -7.4380   26.4151 C   0  0  0  0  0  0  0  0  0  0  0  0
    2.3021   -5.6726   26.0378 C   0  0  0  0  0  0  0  0  0  0  0  0
    7.0880   -4.6163   27.0010 C   0  0  0  0  0  0  0  0  0  0  0  0
    8.3117   -4.3698   27.4436 C   0  0  0  0  0  0  0  0  0  0  0  0
    1.1339   -5.0515   26.3541 C   0  0  0  0  0  0  0  0  0  0  0  0
    4.8080   -8.0362   16.7101 C   0  0  0  0  0  0  0  0  0  0  0  0
   -1.2173   -3.9294   26.9717 O   0  0  0  0  0  0  0  0  0  0  0  0
   -1.0025   -5.0942   27.4586 C   0  0  0  0  0  0  0  0  0  0  0  0
    2.2474   -8.9123   16.6273 C   0  0  0  0  0  0  0  0  0  0  0  0
    4.4957   -9.2636   17.3041 C   0  0  0  0  0  0  0  0  0  0  0  0
   -1.8070   -5.6086   28.1920 O   0  0  0  0  0  0  0  0  0  0  0  0
   10.4296   -5.1799   28.3140 C   0  0  0  0  0  0  0  0  0  0  0  0
    6.6017   -5.9004   26.9187 C   0  0  0  0  0  0  0  0  0  0  0  0
    2.4761   -6.9940   26.4111 N   0  0  0  0  0  0  0  0  0  0  0  0
    9.1353   -5.4053   27.8239 C   0  0  0  0  0  0  0  0  0  0  0  0
    0.9922   -9.3232   16.5995 O   0  0  0  0  0  0  0  0  0  0  0  0
    1.5232   -7.6869   27.1182 C   0  0  0  0  0  0  0  0  0  0  0  0
    8.6878   -6.6715   27.7262 N   0  0  0  0  0  0  0  0  0  0  0  0
    6.9911   -8.2423   27.1808 C   0  0  0  0  0  0  0  0  0  0  0  0
    3.8436   -7.2758   16.0578 C   0  0  0  0  0  0  0  0  0  0  0  0
    3.1882   -9.7190   17.2566 C   0  0  0  0  0  0  0  0  0  0  0  0
    5.3488   -6.1737   26.5092 C   0  0  0  0  0  0  0  0  0  0  0  0
    7.4567   -6.9464   27.2858 C   0  0  0  0  0  0  0  0  0  0  0  0
    0.1921   -5.7592   27.1123 C   0  0  0  0  0  0  0  0  0  0  0  0
    3.5517   -7.7407   25.9711 C   0  0  0  0  0  0  0  0  0  0  0  0
  1  4  4  0
  1 22  4  0
  2 20  4  0
  2 27  4  0
  3 12  4  0
  3 23  4  0
  4 25  4  0
  4 28  1  0
  5  8  4  0
  5 17  4  0
  6  7  4  0
  6 16  4  0
  7 18  4  0
  8 27  4  0
  9 13  4  0
  9 23  4  0
 10 11  1  0
 11 14  2  0
 11 27  1  0
 12 19  1  0
 12 24  4  0
 13 24  4  0
 15 18  1  0
 16 25  4  0
 16 26  4  0
 17 20  4  0
 17 28  1  0
 18 21  4  0
 21 26  4  0
 22 26  4  0
M  END
$$$$

 Created by Python create_sdf_string function

 28 30  0  0  0  0  0  0  0  0999 V2000
    5.7174   -8.4529   26.7190 C   0  0  0  0  0  0  0  0  0  0  0  0
    0.3974   -7.0711   27.5149 C   0  0  0  0  0  0  0  0  0  0  0  0
    2.5338   -7.6891   16.0102 C   0  0  0  0  0  0  0  0  0  0  0  0
    4.8690   -7.4380   26.4151 C   0  0  0  0  0  0  0  0  0  0  0  0
    2.3021   -5.6726   26.0378 C   0  0  0  0  0  0  0  0  0  0  0  0
    7.0880   -4.6163   27.0010 C   0  0  0  0  0  0  0  0  0  0  0  0
    8.3117   -4.3698   27.4436 C   0  0  0  0  0  0  0  0  0  0  0  0
    1.1339   -5.0515   26.3541 C   0  0  0  0  0  0  0  0  0  0  0  0
    4.8080   -8.0362   16.7101 C   0  0  0  0  0  0  0  0  0  0  0  0
   -1.2173   -3.9294   26.9717 O   0  0  0  0  0  0  0  0  0  0  0  0
   -1.0025   -5.0942   27.4586 C   0  0  0  0  0  0  0  0  0  0  0  0
    2.2474   -8.9123   16.6273 C   0  0  0  0  0  0  0  0  0  0  0  0
    4.4957   -9.2636   17.3041 C   0  0  0  0  0  0  0  0  0  0  0  0
   -1.8070   -5.6086   28.1920 O   0  0  0  0  0  0  0  0  0  0  0  0
   10.4296   -5.1799   28.3140 C   0  0  0  0  0  0  0  0  0  0  0  0
    6.6017   -5.9004   26.9187 C   0  0  0  0  0  0  0  0  0  0  0  0
    2.4761   -6.9940   26.4111 N   0  0  0  0  0  0  0  0  0  0  0  0
    9.1353   -5.4053   27.8239 C   0  0  0  0  0  0  0  0  0  0  0  0
    0.9922   -9.3232   16.5995 O   0  0  0  0  0  0  0  0  0  0  0  0
    1.5232   -7.6869   27.1182 C   0  0  0  0  0  0  0  0  0  0  0  0
    8.6878   -6.6715   27.7262 N   0  0  0  0  0  0  0  0  0  0  0  0
    6.9911   -8.2423   27.1808 C   0  0  0  0  0  0  0  0  0  0  0  0
    3.8436   -7.2758   16.0578 C   0  0  0  0  0  0  0  0  0  0  0  0
    3.1882   -9.7190   17.2566 C   0  0  0  0  0  0  0  0  0  0  0  0
    5.3488   -6.1737   26.5092 C   0  0  0  0  0  0  0  0  0  0  0  0
    7.4567   -6.9464   27.2858 C   0  0  0  0  0  0  0  0  0  0  0  0
    0.1921   -5.7592   27.1123 C   0  0  0  0  0  0  0  0  0  0  0  0
    3.5517   -7.7407   25.9711 C   0  0  0  0  0  0  0  0  0  0  0  0
  1  4  4  0
  1 22  4  0
  2 20  4  0
  2 27  4  0
  3 12  4  0
  3 23  4  0
  4 25  4  0
  4 28  1  0
  5  8  4  0
  5 17  4  0
  6  7  4  0
  6 16  4  0
  7 18  4  0
  8 27  4  0
  9 13  4  0
  9 23  4  0
 10 11  1  0
 11 14  2  0
 11 27  1  0
 12 19  1  0
 12 24  4  0
 13 24  4  0
 15 18  1  0
 16 25  4  0
 16 26  4  0
 17 20  4  0
 17 28  1  0
 18 21  4  0
 21 26  4  0
 22 26  4  0
M  END
$$$$

 Created by Python create_sdf_string function

 28 30  0  0  0  0  0  0  0  0999 V2000
    5.7174   -8.4529   26.7190 C   0  0  0  0  0  0  0  0  0  0  0  0
    0.3974   -7.0711   27.5149 C   0  0  0  0  0  0  0  0  0  0  0  0
    2.5338   -7.6891   16.0102 C   0  0  0  0  0  0  0  0  0  0  0  0
    4.8690   -7.4380   26.4151 C   0  0  0  0  0  0  0  0  0  0  0  0
    2.3021   -5.6726   26.0378 C   0  0  0  0  0  0  0  0  0  0  0  0
    7.0880   -4.6163   27.0010 C   0  0  0  0  0  0  0  0  0  0  0  0
    8.3117   -4.3698   27.4436 C   0  0  0  0  0  0  0  0  0  0  0  0
    1.1339   -5.0515   26.3541 C   0  0  0  0  0  0  0  0  0  0  0  0
    4.8080   -8.0362   16.7101 C   0  0  0  0  0  0  0  0  0  0  0  0
   -1.2173   -3.9294   26.9717 O   0  0  0  0  0  0  0  0  0  0  0  0
   -1.0025   -5.0942   27.4586 C   0  0  0  0  0  0  0  0  0  0  0  0
    2.2474   -8.9123   16.6273 C   0  0  0  0  0  0  0  0  0  0  0  0
    4.4957   -9.2636   17.3041 C   0  0  0  0  0  0  0  0  0  0  0  0
   -1.8070   -5.6086   28.1920 O   0  0  0  0  0  0  0  0  0  0  0  0
   10.4296   -5.1799   28.3140 C   0  0  0  0  0  0  0  0  0  0  0  0
    6.6017   -5.9004   26.9187 C   0  0  0  0  0  0  0  0  0  0  0  0
    2.4761   -6.9940   26.4111 N   0  0  0  0  0  0  0  0  0  0  0  0
    9.1353   -5.4053   27.8239 C   0  0  0  0  0  0  0  0  0  0  0  0
    0.9922   -9.3232   16.5995 O   0  0  0  0  0  0  0  0  0  0  0  0
    1.5232   -7.6869   27.1182 C   0  0  0  0  0  0  0  0  0  0  0  0
    8.6878   -6.6715   27.7262 N   0  0  0  0  0  0  0  0  0  0  0  0
    6.9911   -8.2423   27.1808 C   0  0  0  0  0  0  0  0  0  0  0  0
    3.8436   -7.2758   16.0578 C   0  0  0  0  0  0  0  0  0  0  0  0
    3.1882   -9.7190   17.2566 C   0  0  0  0  0  0  0  0  0  0  0  0
    5.3488   -6.1737   26.5092 C   0  0  0  0  0  0  0  0  0  0  0  0
    7.4567   -6.9464   27.2858 C   0  0  0  0  0  0  0  0  0  0  0  0
    0.1921   -5.7592   27.1123 C   0  0  0  0  0  0  0  0  0  0  0  0
    3.5517   -7.7407   25.9711 C   0  0  0  0  0  0  0  0  0  0  0  0
  1  4  4  0
  1 22  4  0
  2 20  4  0
  2 27  4  0
  3 12  4  0
  3 23  4  0
  4 25  4  0
  4 28  1  0
  5  8  4  0
  5 17  4  0
  6  7  4  0
  6 16  4  0
  7 18  4  0
  8 27  4  0
  9 13  4  0
  9 23  4  0
 10 11  1  0
 11 14  2  0
 11 27  1  0
 12 19  1  0
 12 24  4  0
 13 24  4  0
 15 18  1  0
 16 25  4  0
 16 26  4  0
 17 20  4  0
 17 28  1  0
 18 21  4  0
 21 26  4  0
 22 26  4  0
M  END
$$$$

 Created by Python create_sdf_string function

 28 30  0  0  0  0  0  0  0  0999 V2000
    5.7174   -8.4529   26.7190 C   0  0  0  0  0  0  0  0  0  0  0  0
    0.3974   -7.0711   27.5149 C   0  0  0  0  0  0  0  0  0  0  0  0
    2.5338   -7.6891   16.0102 C   0  0  0  0  0  0  0  0  0  0  0  0
    4.8690   -7.4380   26.4151 C   0  0  0  0  0  0  0  0  0  0  0  0
    2.3021   -5.6726   26.0378 C   0  0  0  0  0  0  0  0  0  0  0  0
    7.0880   -4.6163   27.0010 C   0  0  0  0  0  0  0  0  0  0  0  0
    8.3117   -4.3698   27.4436 C   0  0  0  0  0  0  0  0  0  0  0  0
    1.1339   -5.0515   26.3541 C   0  0  0  0  0  0  0  0  0  0  0  0
    4.8080   -8.0362   16.7101 C   0  0  0  0  0  0  0  0  0  0  0  0
   -1.2173   -3.9294   26.9717 O   0  0  0  0  0  0  0  0  0  0  0  0
   -1.0025   -5.0942   27.4586 C   0  0  0  0  0  0  0  0  0  0  0  0
    2.2474   -8.9123   16.6273 C   0  0  0  0  0  0  0  0  0  0  0  0
    4.4957   -9.2636   17.3041 C   0  0  0  0  0  0  0  0  0  0  0  0
   -1.8070   -5.6086   28.1920 O   0  0  0  0  0  0  0  0  0  0  0  0
   10.4296   -5.1799   28.3140 C   0  0  0  0  0  0  0  0  0  0  0  0
    6.6017   -5.9004   26.9187 C   0  0  0  0  0  0  0  0  0  0  0  0
    2.4761   -6.9940   26.4111 N   0  0  0  0  0  0  0  0  0  0  0  0
    9.1353   -5.4053   27.8239 C   0  0  0  0  0  0  0  0  0  0  0  0
    0.9922   -9.3232   16.5995 O   0  0  0  0  0  0  0  0  0  0  0  0
    1.5232   -7.6869   27.1182 C   0  0  0  0  0  0  0  0  0  0  0  0
    8.6878   -6.6715   27.7262 N   0  0  0  0  0  0  0  0  0  0  0  0
    6.9911   -8.2423   27.1808 C   0  0  0  0  0  0  0  0  0  0  0  0
    3.8436   -7.2758   16.0578 C   0  0  0  0  0  0  0  0  0  0  0  0
    3.1882   -9.7190   17.2566 C   0  0  0  0  0  0  0  0  0  0  0  0
    5.3488   -6.1737   26.5092 C   0  0  0  0  0  0  0  0  0  0  0  0
    7.4567   -6.9464   27.2858 C   0  0  0  0  0  0  0  0  0  0  0  0
    0.1921   -5.7592   27.1123 C   0  0  0  0  0  0  0  0  0  0  0  0
    3.5517   -7.7407   25.9711 C   0  0  0  0  0  0  0  0  0  0  0  0
  1  4  4  0
  1 22  4  0
  2 20  4  0
  2 27  4  0
  3 12  4  0
  3 23  4  0
  4 25  4  0
  4 28  1  0
  5  8  4  0
  5 17  4  0
  6  7  4  0
  6 16  4  0
  7 18  4  0
  8 27  4  0
  9 13  4  0
  9 23  4  0
 10 11  1  0
 11 14  2  0
 11 27  1  0
 12 19  1  0
 12 24  4  0
 13 24  4  0
 15 18  1  0
 16 25  4  0
 16 26  4  0
 17 20  4  0
 17 28  1  0
 18 21  4  0
 21 26  4  0
 22 26  4  0
M  END
$$$$

 Created by Python create_sdf_string function

 28 30  0  0  0  0  0  0  0  0999 V2000
    5.7174   -8.4529   26.7190 C   0  0  0  0  0  0  0  0  0  0  0  0
    0.3974   -7.0711   27.5149 C   0  0  0  0  0  0  0  0  0  0  0  0
    2.5338   -7.6891   16.0102 C   0  0  0  0  0  0  0  0  0  0  0  0
    4.8690   -7.4380   26.4151 C   0  0  0  0  0  0  0  0  0  0  0  0
    2.3021   -5.6726   26.0378 C   0  0  0  0  0  0  0  0  0  0  0  0
    7.0880   -4.6163   27.0010 C   0  0  0  0  0  0  0  0  0  0  0  0
    8.3117   -4.3698   27.4436 C   0  0  0  0  0  0  0  0  0  0  0  0
    1.1339   -5.0515   26.3541 C   0  0  0  0  0  0  0  0  0  0  0  0
    4.8080   -8.0362   16.7101 C   0  0  0  0  0  0  0  0  0  0  0  0
   -1.2173   -3.9294   26.9717 O   0  0  0  0  0  0  0  0  0  0  0  0
   -1.0025   -5.0942   27.4586 C   0  0  0  0  0  0  0  0  0  0  0  0
    2.2474   -8.9123   16.6273 C   0  0  0  0  0  0  0  0  0  0  0  0
    4.4957   -9.2636   17.3041 C   0  0  0  0  0  0  0  0  0  0  0  0
   -1.8070   -5.6086   28.1920 O   0  0  0  0  0  0  0  0  0  0  0  0
   10.4296   -5.1799   28.3140 C   0  0  0  0  0  0  0  0  0  0  0  0
    6.6017   -5.9004   26.9187 C   0  0  0  0  0  0  0  0  0  0  0  0
    2.4761   -6.9940   26.4111 N   0  0  0  0  0  0  0  0  0  0  0  0
    9.1353   -5.4053   27.8239 C   0  0  0  0  0  0  0  0  0  0  0  0
    0.9922   -9.3232   16.5995 O   0  0  0  0  0  0  0  0  0  0  0  0
    1.5232   -7.6869   27.1182 C   0  0  0  0  0  0  0  0  0  0  0  0
    8.6878   -6.6715   27.7262 N   0  0  0  0  0  0  0  0  0  0  0  0
    6.9911   -8.2423   27.1808 C   0  0  0  0  0  0  0  0  0  0  0  0
    3.8436   -7.2758   16.0578 C   0  0  0  0  0  0  0  0  0  0  0  0
    3.1882   -9.7190   17.2566 C   0  0  0  0  0  0  0  0  0  0  0  0
    5.3488   -6.1737   26.5092 C   0  0  0  0  0  0  0  0  0  0  0  0
    7.4567   -6.9464   27.2858 C   0  0  0  0  0  0  0  0  0  0  0  0
    0.1921   -5.7592   27.1123 C   0  0  0  0  0  0  0  0  0  0  0  0
    3.5517   -7.7407   25.9711 C   0  0  0  0  0  0  0  0  0  0  0  0
  1  4  4  0
  1 22  4  0
  2 20  4  0
  2 27  4  0
  3 12  4  0
  3 23  4  0
  4 25  4  0
  4 28  1  0
  5  8  4  0
  5 17  4  0
  6  7  4  0
  6 16  4  0
  7 18  4  0
  8 27  4  0
  9 13  4  0
  9 23  4  0
 10 11  1  0
 11 14  2  0
 11 27  1  0
 12 19  1  0
 12 24  4  0
 13 24  4  0
 15 18  1  0
 16 25  4  0
 16 26  4  0
 17 20  4  0
 17 28  1  0
 18 21  4  0
 21 26  4  0
 22 26  4  0
M  END
$$$$

 Created by Python create_sdf_string function

 28 30  0  0  0  0  0  0  0  0999 V2000
    5.7174   -8.4529   26.7190 C   0  0  0  0  0  0  0  0  0  0  0  0
    0.3974   -7.0711   27.5149 C   0  0  0  0  0  0  0  0  0  0  0  0
    2.5338   -7.6891   16.0102 C   0  0  0  0  0  0  0  0  0  0  0  0
    4.8690   -7.4380   26.4151 C   0  0  0  0  0  0  0  0  0  0  0  0
    2.3021   -5.6726   26.0378 C   0  0  0  0  0  0  0  0  0  0  0  0
    7.0880   -4.6163   27.0010 C   0  0  0  0  0  0  0  0  0  0  0  0
    8.3117   -4.3698   27.4436 C   0  0  0  0  0  0  0  0  0  0  0  0
    1.1339   -5.0515   26.3541 C   0  0  0  0  0  0  0  0  0  0  0  0
    4.8080   -8.0362   16.7101 C   0  0  0  0  0  0  0  0  0  0  0  0
   -1.2173   -3.9294   26.9717 O   0  0  0  0  0  0  0  0  0  0  0  0
   -1.0025   -5.0942   27.4586 C   0  0  0  0  0  0  0  0  0  0  0  0
    2.2474   -8.9123   16.6273 C   0  0  0  0  0  0  0  0  0  0  0  0
    4.4957   -9.2636   17.3041 C   0  0  0  0  0  0  0  0  0  0  0  0
   -1.8070   -5.6086   28.1920 O   0  0  0  0  0  0  0  0  0  0  0  0
   10.4296   -5.1799   28.3140 C   0  0  0  0  0  0  0  0  0  0  0  0
    6.6017   -5.9004   26.9187 C   0  0  0  0  0  0  0  0  0  0  0  0
    2.4761   -6.9940   26.4111 N   0  0  0  0  0  0  0  0  0  0  0  0
    9.1353   -5.4053   27.8239 C   0  0  0  0  0  0  0  0  0  0  0  0
    0.9922   -9.3232   16.5995 O   0  0  0  0  0  0  0  0  0  0  0  0
    1.5232   -7.6869   27.1182 C   0  0  0  0  0  0  0  0  0  0  0  0
    8.6878   -6.6715   27.7262 N   0  0  0  0  0  0  0  0  0  0  0  0
    6.9911   -8.2423   27.1808 C   0  0  0  0  0  0  0  0  0  0  0  0
    3.8436   -7.2758   16.0578 C   0  0  0  0  0  0  0  0  0  0  0  0
    3.1882   -9.7190   17.2566 C   0  0  0  0  0  0  0  0  0  0  0  0
    5.3488   -6.1737   26.5092 C   0  0  0  0  0  0  0  0  0  0  0  0
    7.4567   -6.9464   27.2858 C   0  0  0  0  0  0  0  0  0  0  0  0
    0.1921   -5.7592   27.1123 C   0  0  0  0  0  0  0  0  0  0  0  0
    3.5517   -7.7407   25.9711 C   0  0  0  0  0  0  0  0  0  0  0  0
  1  4  4  0
  1 22  4  0
  2 20  4  0
  2 27  4  0
  3 12  4  0
  3 23  4  0
  4 25  4  0
  4 28  1  0
  5  8  4  0
  5 17  4  0
  6  7  4  0
  6 16  4  0
  7 18  4  0
  8 27  4  0
  9 13  4  0
  9 23  4  0
 10 11  1  0
 11 14  2  0
 11 27  1  0
 12 19  1  0
 12 24  4  0
 13 24  4  0
 15 18  1  0
 16 25  4  0
 16 26  4  0
 17 20  4  0
 17 28  1  0
 18 21  4  0
 21 26  4  0
 22 26  4  0
M  END
$$$$

 Created by Python create_sdf_string function

 28 30  0  0  0  0  0  0  0  0999 V2000
    5.7174   -8.4529   26.7190 C   0  0  0  0  0  0  0  0  0  0  0  0
    0.3974   -7.0711   27.5149 C   0  0  0  0  0  0  0  0  0  0  0  0
    2.5338   -7.6891   16.0102 C   0  0  0  0  0  0  0  0  0  0  0  0
    4.8690   -7.4380   26.4151 C   0  0  0  0  0  0  0  0  0  0  0  0
    2.3021   -5.6726   26.0378 C   0  0  0  0  0  0  0  0  0  0  0  0
    7.0880   -4.6163   27.0010 C   0  0  0  0  0  0  0  0  0  0  0  0
    8.3117   -4.3698   27.4436 C   0  0  0  0  0  0  0  0  0  0  0  0
    1.1339   -5.0515   26.3541 C   0  0  0  0  0  0  0  0  0  0  0  0
    4.8080   -8.0362   16.7101 C   0  0  0  0  0  0  0  0  0  0  0  0
   -1.2173   -3.9294   26.9717 O   0  0  0  0  0  0  0  0  0  0  0  0
   -1.0025   -5.0942   27.4586 C   0  0  0  0  0  0  0  0  0  0  0  0
    2.2474   -8.9123   16.6273 C   0  0  0  0  0  0  0  0  0  0  0  0
    4.4957   -9.2636   17.3041 C   0  0  0  0  0  0  0  0  0  0  0  0
   -1.8070   -5.6086   28.1920 O   0  0  0  0  0  0  0  0  0  0  0  0
   10.4296   -5.1799   28.3140 C   0  0  0  0  0  0  0  0  0  0  0  0
    6.6017   -5.9004   26.9187 C   0  0  0  0  0  0  0  0  0  0  0  0
    2.4761   -6.9940   26.4111 N   0  0  0  0  0  0  0  0  0  0  0  0
    9.1353   -5.4053   27.8239 C   0  0  0  0  0  0  0  0  0  0  0  0
    0.9922   -9.3232   16.5995 O   0  0  0  0  0  0  0  0  0  0  0  0
    1.5232   -7.6869   27.1182 C   0  0  0  0  0  0  0  0  0  0  0  0
    8.6878   -6.6715   27.7262 N   0  0  0  0  0  0  0  0  0  0  0  0
    6.9911   -8.2423   27.1808 C   0  0  0  0  0  0  0  0  0  0  0  0
    3.8436   -7.2758   16.0578 C   0  0  0  0  0  0  0  0  0  0  0  0
    3.1882   -9.7190   17.2566 C   0  0  0  0  0  0  0  0  0  0  0  0
    5.3488   -6.1737   26.5092 C   0  0  0  0  0  0  0  0  0  0  0  0
    7.4567   -6.9464   27.2858 C   0  0  0  0  0  0  0  0  0  0  0  0
    0.1921   -5.7592   27.1123 C   0  0  0  0  0  0  0  0  0  0  0  0
    3.5517   -7.7407   25.9711 C   0  0  0  0  0  0  0  0  0  0  0  0
  1  4  4  0
  1 22  4  0
  2 20  4  0
  2 27  4  0
  3 12  4  0
  3 23  4  0
  4 25  4  0
  4 28  1  0
  5  8  4  0
  5 17  4  0
  6  7  4  0
  6 16  4  0
  7 18  4  0
  8 27  4  0
  9 13  4  0
  9 23  4  0
 10 11  1  0
 11 14  2  0
 11 27  1  0
 12 19  1  0
 12 24  4  0
 13 24  4  0
 15 18  1  0
 16 25  4  0
 16 26  4  0
 17 20  4  0
 17 28  1  0
 18 21  4  0
 21 26  4  0
 22 26  4  0
M  END
$$$$

 Created by Python create_sdf_string function

 28 30  0  0  0  0  0  0  0  0999 V2000
    5.7174   -8.4529   26.7190 C   0  0  0  0  0  0  0  0  0  0  0  0
    0.3974   -7.0711   27.5149 C   0  0  0  0  0  0  0  0  0  0  0  0
    2.5338   -7.6891   16.0102 C   0  0  0  0  0  0  0  0  0  0  0  0
    4.8690   -7.4380   26.4151 C   0  0  0  0  0  0  0  0  0  0  0  0
    2.3021   -5.6726   26.0378 C   0  0  0  0  0  0  0  0  0  0  0  0
    7.0880   -4.6163   27.0010 C   0  0  0  0  0  0  0  0  0  0  0  0
    8.3117   -4.3698   27.4436 C   0  0  0  0  0  0  0  0  0  0  0  0
    1.1339   -5.0515   26.3541 C   0  0  0  0  0  0  0  0  0  0  0  0
    4.8080   -8.0362   16.7101 C   0  0  0  0  0  0  0  0  0  0  0  0
   -1.2173   -3.9294   26.9717 O   0  0  0  0  0  0  0  0  0  0  0  0
   -1.0025   -5.0942   27.4586 C   0  0  0  0  0  0  0  0  0  0  0  0
    2.2474   -8.9123   16.6273 C   0  0  0  0  0  0  0  0  0  0  0  0
    4.4957   -9.2636   17.3041 C   0  0  0  0  0  0  0  0  0  0  0  0
   -1.8070   -5.6086   28.1920 O   0  0  0  0  0  0  0  0  0  0  0  0
   10.4296   -5.1799   28.3140 C   0  0  0  0  0  0  0  0  0  0  0  0
    6.6017   -5.9004   26.9187 C   0  0  0  0  0  0  0  0  0  0  0  0
    2.4761   -6.9940   26.4111 N   0  0  0  0  0  0  0  0  0  0  0  0
    9.1353   -5.4053   27.8239 C   0  0  0  0  0  0  0  0  0  0  0  0
    0.9922   -9.3232   16.5995 O   0  0  0  0  0  0  0  0  0  0  0  0
    1.5232   -7.6869   27.1182 C   0  0  0  0  0  0  0  0  0  0  0  0
    8.6878   -6.6715   27.7262 N   0  0  0  0  0  0  0  0  0  0  0  0
    6.9911   -8.2423   27.1808 C   0  0  0  0  0  0  0  0  0  0  0  0
    3.8436   -7.2758   16.0578 C   0  0  0  0  0  0  0  0  0  0  0  0
    3.1882   -9.7190   17.2566 C   0  0  0  0  0  0  0  0  0  0  0  0
    5.3488   -6.1737   26.5092 C   0  0  0  0  0  0  0  0  0  0  0  0
    7.4567   -6.9464   27.2858 C   0  0  0  0  0  0  0  0  0  0  0  0
    0.1921   -5.7592   27.1123 C   0  0  0  0  0  0  0  0  0  0  0  0
    3.5517   -7.7407   25.9711 C   0  0  0  0  0  0  0  0  0  0  0  0
  1  4  4  0
  1 22  4  0
  2 20  4  0
  2 27  4  0
  3 12  4  0
  3 23  4  0
  4 25  4  0
  4 28  1  0
  5  8  4  0
  5 17  4  0
  6  7  4  0
  6 16  4  0
  7 18  4  0
  8 27  4  0
  9 13  4  0
  9 23  4  0
 10 11  1  0
 11 14  2  0
 11 27  1  0
 12 19  1  0
 12 24  4  0
 13 24  4  0
 15 18  1  0
 16 25  4  0
 16 26  4  0
 17 20  4  0
 17 28  1  0
 18 21  4  0
 21 26  4  0
 22 26  4  0
M  END
$$$$

 Created by Python create_sdf_string function

 28 30  0  0  0  0  0  0  0  0999 V2000
    5.7174   -8.4529   26.7190 C   0  0  0  0  0  0  0  0  0  0  0  0
    0.3974   -7.0711   27.5149 C   0  0  0  0  0  0  0  0  0  0  0  0
    2.5338   -7.6891   16.0102 C   0  0  0  0  0  0  0  0  0  0  0  0
    4.8690   -7.4380   26.4151 C   0  0  0  0  0  0  0  0  0  0  0  0
    2.3021   -5.6726   26.0378 C   0  0  0  0  0  0  0  0  0  0  0  0
    7.0880   -4.6163   27.0010 C   0  0  0  0  0  0  0  0  0  0  0  0
    8.3117   -4.3698   27.4436 C   0  0  0  0  0  0  0  0  0  0  0  0
    1.1339   -5.0515   26.3541 C   0  0  0  0  0  0  0  0  0  0  0  0
    4.8080   -8.0362   16.7101 C   0  0  0  0  0  0  0  0  0  0  0  0
   -1.2173   -3.9294   26.9717 O   0  0  0  0  0  0  0  0  0  0  0  0
   -1.0025   -5.0942   27.4586 C   0  0  0  0  0  0  0  0  0  0  0  0
    2.2474   -8.9123   16.6273 C   0  0  0  0  0  0  0  0  0  0  0  0
    4.4957   -9.2636   17.3041 C   0  0  0  0  0  0  0  0  0  0  0  0
   -1.8070   -5.6086   28.1920 O   0  0  0  0  0  0  0  0  0  0  0  0
   10.4296   -5.1799   28.3140 C   0  0  0  0  0  0  0  0  0  0  0  0
    6.6017   -5.9004   26.9187 C   0  0  0  0  0  0  0  0  0  0  0  0
    2.4761   -6.9940   26.4111 N   0  0  0  0  0  0  0  0  0  0  0  0
    9.1353   -5.4053   27.8239 C   0  0  0  0  0  0  0  0  0  0  0  0
    0.9922   -9.3232   16.5995 O   0  0  0  0  0  0  0  0  0  0  0  0
    1.5232   -7.6869   27.1182 C   0  0  0  0  0  0  0  0  0  0  0  0
    8.6878   -6.6715   27.7262 N   0  0  0  0  0  0  0  0  0  0  0  0
    6.9911   -8.2423   27.1808 C   0  0  0  0  0  0  0  0  0  0  0  0
    3.8436   -7.2758   16.0578 C   0  0  0  0  0  0  0  0  0  0  0  0
    3.1882   -9.7190   17.2566 C   0  0  0  0  0  0  0  0  0  0  0  0
    5.3488   -6.1737   26.5092 C   0  0  0  0  0  0  0  0  0  0  0  0
    7.4567   -6.9464   27.2858 C   0  0  0  0  0  0  0  0  0  0  0  0
    0.1921   -5.7592   27.1123 C   0  0  0  0  0  0  0  0  0  0  0  0
    3.5517   -7.7407   25.9711 C   0  0  0  0  0  0  0  0  0  0  0  0
  1  4  4  0
  1 22  4  0
  2 20  4  0
  2 27  4  0
  3 12  4  0
  3 23  4  0
  4 25  4  0
  4 28  1  0
  5  8  4  0
  5 17  4  0
  6  7  4  0
  6 16  4  0
  7 18  4  0
  8 27  4  0
  9 13  4  0
  9 23  4  0
 10 11  1  0
 11 14  2  0
 11 27  1  0
 12 19  1  0
 12 24  4  0
 13 24  4  0
 15 18  1  0
 16 25  4  0
 16 26  4  0
 17 20  4  0
 17 28  1  0
 18 21  4  0
 21 26  4  0
 22 26  4  0
M  END
$$$$

 Created by Python create_sdf_string function

 28 30  0  0  0  0  0  0  0  0999 V2000
    5.7174   -8.4529   26.7190 C   0  0  0  0  0  0  0  0  0  0  0  0
    0.3974   -7.0711   27.5149 C   0  0  0  0  0  0  0  0  0  0  0  0
    2.5338   -7.6891   16.0102 C   0  0  0  0  0  0  0  0  0  0  0  0
    4.8690   -7.4380   26.4151 C   0  0  0  0  0  0  0  0  0  0  0  0
    2.3021   -5.6726   26.0378 C   0  0  0  0  0  0  0  0  0  0  0  0
    7.0880   -4.6163   27.0010 C   0  0  0  0  0  0  0  0  0  0  0  0
    8.3117   -4.3698   27.4436 C   0  0  0  0  0  0  0  0  0  0  0  0
    1.1339   -5.0515   26.3541 C   0  0  0  0  0  0  0  0  0  0  0  0
    4.8080   -8.0362   16.7101 C   0  0  0  0  0  0  0  0  0  0  0  0
   -1.2173   -3.9294   26.9717 O   0  0  0  0  0  0  0  0  0  0  0  0
   -1.0025   -5.0942   27.4586 C   0  0  0  0  0  0  0  0  0  0  0  0
    2.2474   -8.9123   16.6273 C   0  0  0  0  0  0  0  0  0  0  0  0
    4.4957   -9.2636   17.3041 C   0  0  0  0  0  0  0  0  0  0  0  0
   -1.8070   -5.6086   28.1920 O   0  0  0  0  0  0  0  0  0  0  0  0
   10.4296   -5.1799   28.3140 C   0  0  0  0  0  0  0  0  0  0  0  0
    6.6017   -5.9004   26.9187 C   0  0  0  0  0  0  0  0  0  0  0  0
    2.4761   -6.9940   26.4111 N   0  0  0  0  0  0  0  0  0  0  0  0
    9.1353   -5.4053   27.8239 C   0  0  0  0  0  0  0  0  0  0  0  0
    0.9922   -9.3232   16.5995 O   0  0  0  0  0  0  0  0  0  0  0  0
    1.5232   -7.6869   27.1182 C   0  0  0  0  0  0  0  0  0  0  0  0
    8.6878   -6.6715   27.7262 N   0  0  0  0  0  0  0  0  0  0  0  0
    6.9911   -8.2423   27.1808 C   0  0  0  0  0  0  0  0  0  0  0  0
    3.8436   -7.2758   16.0578 C   0  0  0  0  0  0  0  0  0  0  0  0
    3.1882   -9.7190   17.2566 C   0  0  0  0  0  0  0  0  0  0  0  0
    5.3488   -6.1737   26.5092 C   0  0  0  0  0  0  0  0  0  0  0  0
    7.4567   -6.9464   27.2858 C   0  0  0  0  0  0  0  0  0  0  0  0
    0.1921   -5.7592   27.1123 C   0  0  0  0  0  0  0  0  0  0  0  0
    3.5517   -7.7407   25.9711 C   0  0  0  0  0  0  0  0  0  0  0  0
  1  4  4  0
  1 22  4  0
  2 20  4  0
  2 27  4  0
  3 12  4  0
  3 23  4  0
  4 25  4  0
  4 28  1  0
  5  8  4  0
  5 17  4  0
  6  7  4  0
  6 16  4  0
  7 18  4  0
  8 27  4  0
  9 13  4  0
  9 23  4  0
 10 11  1  0
 11 14  2  0
 11 27  1  0
 12 19  1  0
 12 24  4  0
 13 24  4  0
 15 18  1  0
 16 25  4  0
 16 26  4  0
 17 20  4  0
 17 28  1  0
 18 21  4  0
 21 26  4  0
 22 26  4  0
M  END
$$$$

 Created by Python create_sdf_string function

 28 30  0  0  0  0  0  0  0  0999 V2000
    5.7174   -8.4529   26.7190 C   0  0  0  0  0  0  0  0  0  0  0  0
    0.3974   -7.0711   27.5149 C   0  0  0  0  0  0  0  0  0  0  0  0
    2.5338   -7.6891   16.0102 C   0  0  0  0  0  0  0  0  0  0  0  0
    4.8690   -7.4380   26.4151 C   0  0  0  0  0  0  0  0  0  0  0  0
    2.3021   -5.6726   26.0378 C   0  0  0  0  0  0  0  0  0  0  0  0
    7.0880   -4.6163   27.0010 C   0  0  0  0  0  0  0  0  0  0  0  0
    8.3117   -4.3698   27.4436 C   0  0  0  0  0  0  0  0  0  0  0  0
    1.1339   -5.0515   26.3541 C   0  0  0  0  0  0  0  0  0  0  0  0
    4.8080   -8.0362   16.7101 C   0  0  0  0  0  0  0  0  0  0  0  0
   -1.2173   -3.9294   26.9717 O   0  0  0  0  0  0  0  0  0  0  0  0
   -1.0025   -5.0942   27.4586 C   0  0  0  0  0  0  0  0  0  0  0  0
    2.2474   -8.9123   16.6273 C   0  0  0  0  0  0  0  0  0  0  0  0
    4.4957   -9.2636   17.3041 C   0  0  0  0  0  0  0  0  0  0  0  0
   -1.8070   -5.6086   28.1920 O   0  0  0  0  0  0  0  0  0  0  0  0
   10.4296   -5.1799   28.3140 C   0  0  0  0  0  0  0  0  0  0  0  0
    6.6017   -5.9004   26.9187 C   0  0  0  0  0  0  0  0  0  0  0  0
    2.4761   -6.9940   26.4111 N   0  0  0  0  0  0  0  0  0  0  0  0
    9.1353   -5.4053   27.8239 C   0  0  0  0  0  0  0  0  0  0  0  0
    0.9922   -9.3232   16.5995 O   0  0  0  0  0  0  0  0  0  0  0  0
    1.5232   -7.6869   27.1182 C   0  0  0  0  0  0  0  0  0  0  0  0
    8.6878   -6.6715   27.7262 N   0  0  0  0  0  0  0  0  0  0  0  0
    6.9911   -8.2423   27.1808 C   0  0  0  0  0  0  0  0  0  0  0  0
    3.8436   -7.2758   16.0578 C   0  0  0  0  0  0  0  0  0  0  0  0
    3.1882   -9.7190   17.2566 C   0  0  0  0  0  0  0  0  0  0  0  0
    5.3488   -6.1737   26.5092 C   0  0  0  0  0  0  0  0  0  0  0  0
    7.4567   -6.9464   27.2858 C   0  0  0  0  0  0  0  0  0  0  0  0
    0.1921   -5.7592   27.1123 C   0  0  0  0  0  0  0  0  0  0  0  0
    3.5517   -7.7407   25.9711 C   0  0  0  0  0  0  0  0  0  0  0  0
  1  4  4  0
  1 22  4  0
  2 20  4  0
  2 27  4  0
  3 12  4  0
  3 23  4  0
  4 25  4  0
  4 28  1  0
  5  8  4  0
  5 17  4  0
  6  7  4  0
  6 16  4  0
  7 18  4  0
  8 27  4  0
  9 13  4  0
  9 23  4  0
 10 11  1  0
 11 14  2  0
 11 27  1  0
 12 19  1  0
 12 24  4  0
 13 24  4  0
 15 18  1  0
 16 25  4  0
 16 26  4  0
 17 20  4  0
 17 28  1  0
 18 21  4  0
 21 26  4  0
 22 26  4  0
M  END
$$$$

 Created by Python create_sdf_string function

 28 30  0  0  0  0  0  0  0  0999 V2000
    5.7174   -8.4529   26.7190 C   0  0  0  0  0  0  0  0  0  0  0  0
    0.3974   -7.0711   27.5149 C   0  0  0  0  0  0  0  0  0  0  0  0
    2.5338   -7.6891   16.0102 C   0  0  0  0  0  0  0  0  0  0  0  0
    4.8690   -7.4380   26.4151 C   0  0  0  0  0  0  0  0  0  0  0  0
    2.3021   -5.6726   26.0378 C   0  0  0  0  0  0  0  0  0  0  0  0
    7.0880   -4.6163   27.0010 C   0  0  0  0  0  0  0  0  0  0  0  0
    8.3117   -4.3698   27.4436 C   0  0  0  0  0  0  0  0  0  0  0  0
    1.1339   -5.0515   26.3541 C   0  0  0  0  0  0  0  0  0  0  0  0
    4.8080   -8.0362   16.7101 C   0  0  0  0  0  0  0  0  0  0  0  0
   -1.2173   -3.9294   26.9717 O   0  0  0  0  0  0  0  0  0  0  0  0
   -1.0025   -5.0942   27.4586 C   0  0  0  0  0  0  0  0  0  0  0  0
    2.2474   -8.9123   16.6273 C   0  0  0  0  0  0  0  0  0  0  0  0
    4.4957   -9.2636   17.3041 C   0  0  0  0  0  0  0  0  0  0  0  0
   -1.8070   -5.6086   28.1920 O   0  0  0  0  0  0  0  0  0  0  0  0
   10.4296   -5.1799   28.3140 C   0  0  0  0  0  0  0  0  0  0  0  0
    6.6017   -5.9004   26.9187 C   0  0  0  0  0  0  0  0  0  0  0  0
    2.4761   -6.9940   26.4111 N   0  0  0  0  0  0  0  0  0  0  0  0
    9.1353   -5.4053   27.8239 C   0  0  0  0  0  0  0  0  0  0  0  0
    0.9922   -9.3232   16.5995 O   0  0  0  0  0  0  0  0  0  0  0  0
    1.5232   -7.6869   27.1182 C   0  0  0  0  0  0  0  0  0  0  0  0
    8.6878   -6.6715   27.7262 N   0  0  0  0  0  0  0  0  0  0  0  0
    6.9911   -8.2423   27.1808 C   0  0  0  0  0  0  0  0  0  0  0  0
    3.8436   -7.2758   16.0578 C   0  0  0  0  0  0  0  0  0  0  0  0
    3.1882   -9.7190   17.2566 C   0  0  0  0  0  0  0  0  0  0  0  0
    5.3488   -6.1737   26.5092 C   0  0  0  0  0  0  0  0  0  0  0  0
    7.4567   -6.9464   27.2858 C   0  0  0  0  0  0  0  0  0  0  0  0
    0.1921   -5.7592   27.1123 C   0  0  0  0  0  0  0  0  0  0  0  0
    3.5517   -7.7407   25.9711 C   0  0  0  0  0  0  0  0  0  0  0  0
  1  4  4  0
  1 22  4  0
  2 20  4  0
  2 27  4  0
  3 12  4  0
  3 23  4  0
  4 25  4  0
  4 28  1  0
  5  8  4  0
  5 17  4  0
  6  7  4  0
  6 16  4  0
  7 18  4  0
  8 27  4  0
  9 13  4  0
  9 23  4  0
 10 11  1  0
 11 14  2  0
 11 27  1  0
 12 19  1  0
 12 24  4  0
 13 24  4  0
 15 18  1  0
 16 25  4  0
 16 26  4  0
 17 20  4  0
 17 28  1  0
 18 21  4  0
 21 26  4  0
 22 26  4  0
M  END
$$$$

 Created by Python create_sdf_string function

 28 30  0  0  0  0  0  0  0  0999 V2000
    5.7174   -8.4529   26.7190 C   0  0  0  0  0  0  0  0  0  0  0  0
    0.3974   -7.0711   27.5149 C   0  0  0  0  0  0  0  0  0  0  0  0
    2.5338   -7.6891   16.0102 C   0  0  0  0  0  0  0  0  0  0  0  0
    4.8690   -7.4380   26.4151 C   0  0  0  0  0  0  0  0  0  0  0  0
    2.3021   -5.6726   26.0378 C   0  0  0  0  0  0  0  0  0  0  0  0
    7.0880   -4.6163   27.0010 C   0  0  0  0  0  0  0  0  0  0  0  0
    8.3117   -4.3698   27.4436 C   0  0  0  0  0  0  0  0  0  0  0  0
    1.1339   -5.0515   26.3541 C   0  0  0  0  0  0  0  0  0  0  0  0
    4.8080   -8.0362   16.7101 C   0  0  0  0  0  0  0  0  0  0  0  0
   -1.2173   -3.9294   26.9717 O   0  0  0  0  0  0  0  0  0  0  0  0
   -1.0025   -5.0942   27.4586 C   0  0  0  0  0  0  0  0  0  0  0  0
    2.2474   -8.9123   16.6273 C   0  0  0  0  0  0  0  0  0  0  0  0
    4.4957   -9.2636   17.3041 C   0  0  0  0  0  0  0  0  0  0  0  0
   -1.8070   -5.6086   28.1920 O   0  0  0  0  0  0  0  0  0  0  0  0
   10.4296   -5.1799   28.3140 C   0  0  0  0  0  0  0  0  0  0  0  0
    6.6017   -5.9004   26.9187 C   0  0  0  0  0  0  0  0  0  0  0  0
    2.4761   -6.9940   26.4111 N   0  0  0  0  0  0  0  0  0  0  0  0
    9.1353   -5.4053   27.8239 C   0  0  0  0  0  0  0  0  0  0  0  0
    0.9922   -9.3232   16.5995 O   0  0  0  0  0  0  0  0  0  0  0  0
    1.5232   -7.6869   27.1182 C   0  0  0  0  0  0  0  0  0  0  0  0
    8.6878   -6.6715   27.7262 N   0  0  0  0  0  0  0  0  0  0  0  0
    6.9911   -8.2423   27.1808 C   0  0  0  0  0  0  0  0  0  0  0  0
    3.8436   -7.2758   16.0578 C   0  0  0  0  0  0  0  0  0  0  0  0
    3.1882   -9.7190   17.2566 C   0  0  0  0  0  0  0  0  0  0  0  0
    5.3488   -6.1737   26.5092 C   0  0  0  0  0  0  0  0  0  0  0  0
    7.4567   -6.9464   27.2858 C   0  0  0  0  0  0  0  0  0  0  0  0
    0.1921   -5.7592   27.1123 C   0  0  0  0  0  0  0  0  0  0  0  0
    3.5517   -7.7407   25.9711 C   0  0  0  0  0  0  0  0  0  0  0  0
  1  4  4  0
  1 22  4  0
  2 20  4  0
  2 27  4  0
  3 12  4  0
  3 23  4  0
  4 25  4  0
  4 28  1  0
  5  8  4  0
  5 17  4  0
  6  7  4  0
  6 16  4  0
  7 18  4  0
  8 27  4  0
  9 13  4  0
  9 23  4  0
 10 11  1  0
 11 14  2  0
 11 27  1  0
 12 19  1  0
 12 24  4  0
 13 24  4  0
 15 18  1  0
 16 25  4  0
 16 26  4  0
 17 20  4  0
 17 28  1  0
 18 21  4  0
 21 26  4  0
 22 26  4  0
M  END
$$$$

 Created by Python create_sdf_string function

 28 30  0  0  0  0  0  0  0  0999 V2000
    5.7174   -8.4529   26.7190 C   0  0  0  0  0  0  0  0  0  0  0  0
    0.3974   -7.0711   27.5149 C   0  0  0  0  0  0  0  0  0  0  0  0
    2.5338   -7.6891   16.0102 C   0  0  0  0  0  0  0  0  0  0  0  0
    4.8690   -7.4380   26.4151 C   0  0  0  0  0  0  0  0  0  0  0  0
    2.3021   -5.6726   26.0378 C   0  0  0  0  0  0  0  0  0  0  0  0
    7.0880   -4.6163   27.0010 C   0  0  0  0  0  0  0  0  0  0  0  0
    8.3117   -4.3698   27.4436 C   0  0  0  0  0  0  0  0  0  0  0  0
    1.1339   -5.0515   26.3541 C   0  0  0  0  0  0  0  0  0  0  0  0
    4.8080   -8.0362   16.7101 C   0  0  0  0  0  0  0  0  0  0  0  0
   -1.2173   -3.9294   26.9717 O   0  0  0  0  0  0  0  0  0  0  0  0
   -1.0025   -5.0942   27.4586 C   0  0  0  0  0  0  0  0  0  0  0  0
    2.2474   -8.9123   16.6273 C   0  0  0  0  0  0  0  0  0  0  0  0
    4.4957   -9.2636   17.3041 C   0  0  0  0  0  0  0  0  0  0  0  0
   -1.8070   -5.6086   28.1920 O   0  0  0  0  0  0  0  0  0  0  0  0
   10.4296   -5.1799   28.3140 C   0  0  0  0  0  0  0  0  0  0  0  0
    6.6017   -5.9004   26.9187 C   0  0  0  0  0  0  0  0  0  0  0  0
    2.4761   -6.9940   26.4111 N   0  0  0  0  0  0  0  0  0  0  0  0
    9.1353   -5.4053   27.8239 C   0  0  0  0  0  0  0  0  0  0  0  0
    0.9922   -9.3232   16.5995 O   0  0  0  0  0  0  0  0  0  0  0  0
    1.5232   -7.6869   27.1182 C   0  0  0  0  0  0  0  0  0  0  0  0
    8.6878   -6.6715   27.7262 N   0  0  0  0  0  0  0  0  0  0  0  0
    6.9911   -8.2423   27.1808 C   0  0  0  0  0  0  0  0  0  0  0  0
    3.8436   -7.2758   16.0578 C   0  0  0  0  0  0  0  0  0  0  0  0
    3.1882   -9.7190   17.2566 C   0  0  0  0  0  0  0  0  0  0  0  0
    5.3488   -6.1737   26.5092 C   0  0  0  0  0  0  0  0  0  0  0  0
    7.4567   -6.9464   27.2858 C   0  0  0  0  0  0  0  0  0  0  0  0
    0.1921   -5.7592   27.1123 C   0  0  0  0  0  0  0  0  0  0  0  0
    3.5517   -7.7407   25.9711 C   0  0  0  0  0  0  0  0  0  0  0  0
  1  4  4  0
  1 22  4  0
  2 20  4  0
  2 27  4  0
  3 12  4  0
  3 23  4  0
  4 25  4  0
  4 28  1  0
  5  8  4  0
  5 17  4  0
  6  7  4  0
  6 16  4  0
  7 18  4  0
  8 27  4  0
  9 13  4  0
  9 23  4  0
 10 11  1  0
 11 14  2  0
 11 27  1  0
 12 19  1  0
 12 24  4  0
 13 24  4  0
 15 18  1  0
 16 25  4  0
 16 26  4  0
 17 20  4  0
 17 28  1  0
 18 21  4  0
 21 26  4  0
 22 26  4  0
M  END
$$$$

 Created by Python create_sdf_string function

 28 30  0  0  0  0  0  0  0  0999 V2000
    5.7174   -8.4529   26.7190 C   0  0  0  0  0  0  0  0  0  0  0  0
    0.3974   -7.0711   27.5149 C   0  0  0  0  0  0  0  0  0  0  0  0
    2.5338   -7.6891   16.0102 C   0  0  0  0  0  0  0  0  0  0  0  0
    4.8690   -7.4380   26.4151 C   0  0  0  0  0  0  0  0  0  0  0  0
    2.3021   -5.6726   26.0378 C   0  0  0  0  0  0  0  0  0  0  0  0
    7.0880   -4.6163   27.0010 C   0  0  0  0  0  0  0  0  0  0  0  0
    8.3117   -4.3698   27.4436 C   0  0  0  0  0  0  0  0  0  0  0  0
    1.1339   -5.0515   26.3541 C   0  0  0  0  0  0  0  0  0  0  0  0
    4.8080   -8.0362   16.7101 C   0  0  0  0  0  0  0  0  0  0  0  0
   -1.2173   -3.9294   26.9717 O   0  0  0  0  0  0  0  0  0  0  0  0
   -1.0025   -5.0942   27.4586 C   0  0  0  0  0  0  0  0  0  0  0  0
    2.2474   -8.9123   16.6273 C   0  0  0  0  0  0  0  0  0  0  0  0
    4.4957   -9.2636   17.3041 C   0  0  0  0  0  0  0  0  0  0  0  0
   -1.8070   -5.6086   28.1920 O   0  0  0  0  0  0  0  0  0  0  0  0
   10.4296   -5.1799   28.3140 C   0  0  0  0  0  0  0  0  0  0  0  0
    6.6017   -5.9004   26.9187 C   0  0  0  0  0  0  0  0  0  0  0  0
    2.4761   -6.9940   26.4111 N   0  0  0  0  0  0  0  0  0  0  0  0
    9.1353   -5.4053   27.8239 C   0  0  0  0  0  0  0  0  0  0  0  0
    0.9922   -9.3232   16.5995 O   0  0  0  0  0  0  0  0  0  0  0  0
    1.5232   -7.6869   27.1182 C   0  0  0  0  0  0  0  0  0  0  0  0
    8.6878   -6.6715   27.7262 N   0  0  0  0  0  0  0  0  0  0  0  0
    6.9911   -8.2423   27.1808 C   0  0  0  0  0  0  0  0  0  0  0  0
    3.8436   -7.2758   16.0578 C   0  0  0  0  0  0  0  0  0  0  0  0
    3.1882   -9.7190   17.2566 C   0  0  0  0  0  0  0  0  0  0  0  0
    5.3488   -6.1737   26.5092 C   0  0  0  0  0  0  0  0  0  0  0  0
    7.4567   -6.9464   27.2858 C   0  0  0  0  0  0  0  0  0  0  0  0
    0.1921   -5.7592   27.1123 C   0  0  0  0  0  0  0  0  0  0  0  0
    3.5517   -7.7407   25.9711 C   0  0  0  0  0  0  0  0  0  0  0  0
  1  4  4  0
  1 22  4  0
  2 20  4  0
  2 27  4  0
  3 12  4  0
  3 23  4  0
  4 25  4  0
  4 28  1  0
  5  8  4  0
  5 17  4  0
  6  7  4  0
  6 16  4  0
  7 18  4  0
  8 27  4  0
  9 13  4  0
  9 23  4  0
 10 11  1  0
 11 14  2  0
 11 27  1  0
 12 19  1  0
 12 24  4  0
 13 24  4  0
 15 18  1  0
 16 25  4  0
 16 26  4  0
 17 20  4  0
 17 28  1  0
 18 21  4  0
 21 26  4  0
 22 26  4  0
M  END
$$$$

 Created by Python create_sdf_string function

 28 30  0  0  0  0  0  0  0  0999 V2000
    5.7174   -8.4529   26.7190 C   0  0  0  0  0  0  0  0  0  0  0  0
    0.3974   -7.0711   27.5149 C   0  0  0  0  0  0  0  0  0  0  0  0
    2.5338   -7.6891   16.0102 C   0  0  0  0  0  0  0  0  0  0  0  0
    4.8690   -7.4380   26.4151 C   0  0  0  0  0  0  0  0  0  0  0  0
    2.3021   -5.6726   26.0378 C   0  0  0  0  0  0  0  0  0  0  0  0
    7.0880   -4.6163   27.0010 C   0  0  0  0  0  0  0  0  0  0  0  0
    8.3117   -4.3698   27.4436 C   0  0  0  0  0  0  0  0  0  0  0  0
    1.1339   -5.0515   26.3541 C   0  0  0  0  0  0  0  0  0  0  0  0
    4.8080   -8.0362   16.7101 C   0  0  0  0  0  0  0  0  0  0  0  0
   -1.2173   -3.9294   26.9717 O   0  0  0  0  0  0  0  0  0  0  0  0
   -1.0025   -5.0942   27.4586 C   0  0  0  0  0  0  0  0  0  0  0  0
    2.2474   -8.9123   16.6273 C   0  0  0  0  0  0  0  0  0  0  0  0
    4.4957   -9.2636   17.3041 C   0  0  0  0  0  0  0  0  0  0  0  0
   -1.8070   -5.6086   28.1920 O   0  0  0  0  0  0  0  0  0  0  0  0
   10.4296   -5.1799   28.3140 C   0  0  0  0  0  0  0  0  0  0  0  0
    6.6017   -5.9004   26.9187 C   0  0  0  0  0  0  0  0  0  0  0  0
    2.4761   -6.9940   26.4111 N   0  0  0  0  0  0  0  0  0  0  0  0
    9.1353   -5.4053   27.8239 C   0  0  0  0  0  0  0  0  0  0  0  0
    0.9922   -9.3232   16.5995 O   0  0  0  0  0  0  0  0  0  0  0  0
    1.5232   -7.6869   27.1182 C   0  0  0  0  0  0  0  0  0  0  0  0
    8.6878   -6.6715   27.7262 N   0  0  0  0  0  0  0  0  0  0  0  0
    6.9911   -8.2423   27.1808 C   0  0  0  0  0  0  0  0  0  0  0  0
    3.8436   -7.2758   16.0578 C   0  0  0  0  0  0  0  0  0  0  0  0
    3.1882   -9.7190   17.2566 C   0  0  0  0  0  0  0  0  0  0  0  0
    5.3488   -6.1737   26.5092 C   0  0  0  0  0  0  0  0  0  0  0  0
    7.4567   -6.9464   27.2858 C   0  0  0  0  0  0  0  0  0  0  0  0
    0.1921   -5.7592   27.1123 C   0  0  0  0  0  0  0  0  0  0  0  0
    3.5517   -7.7407   25.9711 C   0  0  0  0  0  0  0  0  0  0  0  0
  1  4  4  0
  1 22  4  0
  2 20  4  0
  2 27  4  0
  3 12  4  0
  3 23  4  0
  4 25  4  0
  4 28  1  0
  5  8  4  0
  5 17  4  0
  6  7  4  0
  6 16  4  0
  7 18  4  0
  8 27  4  0
  9 13  4  0
  9 23  4  0
 10 11  1  0
 11 14  2  0
 11 27  1  0
 12 19  1  0
 12 24  4  0
 13 24  4  0
 15 18  1  0
 16 25  4  0
 16 26  4  0
 17 20  4  0
 17 28  1  0
 18 21  4  0
 21 26  4  0
 22 26  4  0
M  END
$$$$

 Created by Python create_sdf_string function

 28 30  0  0  0  0  0  0  0  0999 V2000
    5.7174   -8.4529   26.7190 C   0  0  0  0  0  0  0  0  0  0  0  0
    0.3974   -7.0711   27.5149 C   0  0  0  0  0  0  0  0  0  0  0  0
    2.5338   -7.6891   16.0102 C   0  0  0  0  0  0  0  0  0  0  0  0
    4.8690   -7.4380   26.4151 C   0  0  0  0  0  0  0  0  0  0  0  0
    2.3021   -5.6726   26.0378 C   0  0  0  0  0  0  0  0  0  0  0  0
    7.0880   -4.6163   27.0010 C   0  0  0  0  0  0  0  0  0  0  0  0
    8.3117   -4.3698   27.4436 C   0  0  0  0  0  0  0  0  0  0  0  0
    1.1339   -5.0515   26.3541 C   0  0  0  0  0  0  0  0  0  0  0  0
    4.8080   -8.0362   16.7101 C   0  0  0  0  0  0  0  0  0  0  0  0
   -1.2173   -3.9294   26.9717 O   0  0  0  0  0  0  0  0  0  0  0  0
   -1.0025   -5.0942   27.4586 C   0  0  0  0  0  0  0  0  0  0  0  0
    2.2474   -8.9123   16.6273 C   0  0  0  0  0  0  0  0  0  0  0  0
    4.4957   -9.2636   17.3041 C   0  0  0  0  0  0  0  0  0  0  0  0
   -1.8070   -5.6086   28.1920 O   0  0  0  0  0  0  0  0  0  0  0  0
   10.4296   -5.1799   28.3140 C   0  0  0  0  0  0  0  0  0  0  0  0
    6.6017   -5.9004   26.9187 C   0  0  0  0  0  0  0  0  0  0  0  0
    2.4761   -6.9940   26.4111 N   0  0  0  0  0  0  0  0  0  0  0  0
    9.1353   -5.4053   27.8239 C   0  0  0  0  0  0  0  0  0  0  0  0
    0.9922   -9.3232   16.5995 O   0  0  0  0  0  0  0  0  0  0  0  0
    1.5232   -7.6869   27.1182 C   0  0  0  0  0  0  0  0  0  0  0  0
    8.6878   -6.6715   27.7262 N   0  0  0  0  0  0  0  0  0  0  0  0
    6.9911   -8.2423   27.1808 C   0  0  0  0  0  0  0  0  0  0  0  0
    3.8436   -7.2758   16.0578 C   0  0  0  0  0  0  0  0  0  0  0  0
    3.1882   -9.7190   17.2566 C   0  0  0  0  0  0  0  0  0  0  0  0
    5.3488   -6.1737   26.5092 C   0  0  0  0  0  0  0  0  0  0  0  0
    7.4567   -6.9464   27.2858 C   0  0  0  0  0  0  0  0  0  0  0  0
    0.1921   -5.7592   27.1123 C   0  0  0  0  0  0  0  0  0  0  0  0
    3.5517   -7.7407   25.9711 C   0  0  0  0  0  0  0  0  0  0  0  0
  1  4  4  0
  1 22  4  0
  2 20  4  0
  2 27  4  0
  3 12  4  0
  3 23  4  0
  4 25  4  0
  4 28  1  0
  5  8  4  0
  5 17  4  0
  6  7  4  0
  6 16  4  0
  7 18  4  0
  8 27  4  0
  9 13  4  0
  9 23  4  0
 10 11  1  0
 11 14  2  0
 11 27  1  0
 12 19  1  0
 12 24  4  0
 13 24  4  0
 15 18  1  0
 16 25  4  0
 16 26  4  0
 17 20  4  0
 17 28  1  0
 18 21  4  0
 21 26  4  0
 22 26  4  0
M  END
$$$$

 Created by Python create_sdf_string function

 28 30  0  0  0  0  0  0  0  0999 V2000
    5.7174   -8.4529   26.7190 C   0  0  0  0  0  0  0  0  0  0  0  0
    0.3974   -7.0711   27.5149 C   0  0  0  0  0  0  0  0  0  0  0  0
    2.5338   -7.6891   16.0102 C   0  0  0  0  0  0  0  0  0  0  0  0
    4.8690   -7.4380   26.4151 C   0  0  0  0  0  0  0  0  0  0  0  0
    2.3021   -5.6726   26.0378 C   0  0  0  0  0  0  0  0  0  0  0  0
    7.0880   -4.6163   27.0010 C   0  0  0  0  0  0  0  0  0  0  0  0
    8.3117   -4.3698   27.4436 C   0  0  0  0  0  0  0  0  0  0  0  0
    1.1339   -5.0515   26.3541 C   0  0  0  0  0  0  0  0  0  0  0  0
    4.8080   -8.0362   16.7101 C   0  0  0  0  0  0  0  0  0  0  0  0
   -1.2173   -3.9294   26.9717 O   0  0  0  0  0  0  0  0  0  0  0  0
   -1.0025   -5.0942   27.4586 C   0  0  0  0  0  0  0  0  0  0  0  0
    2.2474   -8.9123   16.6273 C   0  0  0  0  0  0  0  0  0  0  0  0
    4.4957   -9.2636   17.3041 C   0  0  0  0  0  0  0  0  0  0  0  0
   -1.8070   -5.6086   28.1920 O   0  0  0  0  0  0  0  0  0  0  0  0
   10.4296   -5.1799   28.3140 C   0  0  0  0  0  0  0  0  0  0  0  0
    6.6017   -5.9004   26.9187 C   0  0  0  0  0  0  0  0  0  0  0  0
    2.4761   -6.9940   26.4111 N   0  0  0  0  0  0  0  0  0  0  0  0
    9.1353   -5.4053   27.8239 C   0  0  0  0  0  0  0  0  0  0  0  0
    0.9922   -9.3232   16.5995 O   0  0  0  0  0  0  0  0  0  0  0  0
    1.5232   -7.6869   27.1182 C   0  0  0  0  0  0  0  0  0  0  0  0
    8.6878   -6.6715   27.7262 N   0  0  0  0  0  0  0  0  0  0  0  0
    6.9911   -8.2423   27.1808 C   0  0  0  0  0  0  0  0  0  0  0  0
    3.8436   -7.2758   16.0578 C   0  0  0  0  0  0  0  0  0  0  0  0
    3.1882   -9.7190   17.2566 C   0  0  0  0  0  0  0  0  0  0  0  0
    5.3488   -6.1737   26.5092 C   0  0  0  0  0  0  0  0  0  0  0  0
    7.4567   -6.9464   27.2858 C   0  0  0  0  0  0  0  0  0  0  0  0
    0.1921   -5.7592   27.1123 C   0  0  0  0  0  0  0  0  0  0  0  0
    3.5517   -7.7407   25.9711 C   0  0  0  0  0  0  0  0  0  0  0  0
  1  4  4  0
  1 22  4  0
  2 20  4  0
  2 27  4  0
  3 12  4  0
  3 23  4  0
  4 25  4  0
  4 28  1  0
  5  8  4  0
  5 17  4  0
  6  7  4  0
  6 16  4  0
  7 18  4  0
  8 27  4  0
  9 13  4  0
  9 23  4  0
 10 11  1  0
 11 14  2  0
 11 27  1  0
 12 19  1  0
 12 24  4  0
 13 24  4  0
 15 18  1  0
 16 25  4  0
 16 26  4  0
 17 20  4  0
 17 28  1  0
 18 21  4  0
 21 26  4  0
 22 26  4  0
M  END
$$$$

 Created by Python create_sdf_string function

 28 30  0  0  0  0  0  0  0  0999 V2000
    5.7174   -8.4529   26.7190 C   0  0  0  0  0  0  0  0  0  0  0  0
    0.3974   -7.0711   27.5149 C   0  0  0  0  0  0  0  0  0  0  0  0
    2.5338   -7.6891   16.0102 C   0  0  0  0  0  0  0  0  0  0  0  0
    4.8690   -7.4380   26.4151 C   0  0  0  0  0  0  0  0  0  0  0  0
    2.3021   -5.6726   26.0378 C   0  0  0  0  0  0  0  0  0  0  0  0
    7.0880   -4.6163   27.0010 C   0  0  0  0  0  0  0  0  0  0  0  0
    8.3117   -4.3698   27.4436 C   0  0  0  0  0  0  0  0  0  0  0  0
    1.1339   -5.0515   26.3541 C   0  0  0  0  0  0  0  0  0  0  0  0
    4.8080   -8.0362   16.7101 C   0  0  0  0  0  0  0  0  0  0  0  0
   -1.2173   -3.9294   26.9717 O   0  0  0  0  0  0  0  0  0  0  0  0
   -1.0025   -5.0942   27.4586 C   0  0  0  0  0  0  0  0  0  0  0  0
    2.2474   -8.9123   16.6273 C   0  0  0  0  0  0  0  0  0  0  0  0
    4.4957   -9.2636   17.3041 C   0  0  0  0  0  0  0  0  0  0  0  0
   -1.8070   -5.6086   28.1920 O   0  0  0  0  0  0  0  0  0  0  0  0
   10.4296   -5.1799   28.3140 C   0  0  0  0  0  0  0  0  0  0  0  0
    6.6017   -5.9004   26.9187 C   0  0  0  0  0  0  0  0  0  0  0  0
    2.4761   -6.9940   26.4111 N   0  0  0  0  0  0  0  0  0  0  0  0
    9.1353   -5.4053   27.8239 C   0  0  0  0  0  0  0  0  0  0  0  0
    0.9922   -9.3232   16.5995 O   0  0  0  0  0  0  0  0  0  0  0  0
    1.5232   -7.6869   27.1182 C   0  0  0  0  0  0  0  0  0  0  0  0
    8.6878   -6.6715   27.7262 N   0  0  0  0  0  0  0  0  0  0  0  0
    6.9911   -8.2423   27.1808 C   0  0  0  0  0  0  0  0  0  0  0  0
    3.8436   -7.2758   16.0578 C   0  0  0  0  0  0  0  0  0  0  0  0
    3.1882   -9.7190   17.2566 C   0  0  0  0  0  0  0  0  0  0  0  0
    5.3488   -6.1737   26.5092 C   0  0  0  0  0  0  0  0  0  0  0  0
    7.4567   -6.9464   27.2858 C   0  0  0  0  0  0  0  0  0  0  0  0
    0.1921   -5.7592   27.1123 C   0  0  0  0  0  0  0  0  0  0  0  0
    3.5517   -7.7407   25.9711 C   0  0  0  0  0  0  0  0  0  0  0  0
  1  4  4  0
  1 22  4  0
  2 20  4  0
  2 27  4  0
  3 12  4  0
  3 23  4  0
  4 25  4  0
  4 28  1  0
  5  8  4  0
  5 17  4  0
  6  7  4  0
  6 16  4  0
  7 18  4  0
  8 27  4  0
  9 13  4  0
  9 23  4  0
 10 11  1  0
 11 14  2  0
 11 27  1  0
 12 19  1  0
 12 24  4  0
 13 24  4  0
 15 18  1  0
 16 25  4  0
 16 26  4  0
 17 20  4  0
 17 28  1  0
 18 21  4  0
 21 26  4  0
 22 26  4  0
M  END
$$$$

 Created by Python create_sdf_string function

 28 30  0  0  0  0  0  0  0  0999 V2000
    5.7174   -8.4529   26.7190 C   0  0  0  0  0  0  0  0  0  0  0  0
    0.3974   -7.0711   27.5149 C   0  0  0  0  0  0  0  0  0  0  0  0
    2.5338   -7.6891   16.0102 C   0  0  0  0  0  0  0  0  0  0  0  0
    4.8690   -7.4380   26.4151 C   0  0  0  0  0  0  0  0  0  0  0  0
    2.3021   -5.6726   26.0378 C   0  0  0  0  0  0  0  0  0  0  0  0
    7.0880   -4.6163   27.0010 C   0  0  0  0  0  0  0  0  0  0  0  0
    8.3117   -4.3698   27.4436 C   0  0  0  0  0  0  0  0  0  0  0  0
    1.1339   -5.0515   26.3541 C   0  0  0  0  0  0  0  0  0  0  0  0
    4.8080   -8.0362   16.7101 C   0  0  0  0  0  0  0  0  0  0  0  0
   -1.2173   -3.9294   26.9717 O   0  0  0  0  0  0  0  0  0  0  0  0
   -1.0025   -5.0942   27.4586 C   0  0  0  0  0  0  0  0  0  0  0  0
    2.2474   -8.9123   16.6273 C   0  0  0  0  0  0  0  0  0  0  0  0
    4.4957   -9.2636   17.3041 C   0  0  0  0  0  0  0  0  0  0  0  0
   -1.8070   -5.6086   28.1920 O   0  0  0  0  0  0  0  0  0  0  0  0
   10.4296   -5.1799   28.3140 C   0  0  0  0  0  0  0  0  0  0  0  0
    6.6017   -5.9004   26.9187 C   0  0  0  0  0  0  0  0  0  0  0  0
    2.4761   -6.9940   26.4111 N   0  0  0  0  0  0  0  0  0  0  0  0
    9.1353   -5.4053   27.8239 C   0  0  0  0  0  0  0  0  0  0  0  0
    0.9922   -9.3232   16.5995 O   0  0  0  0  0  0  0  0  0  0  0  0
    1.5232   -7.6869   27.1182 C   0  0  0  0  0  0  0  0  0  0  0  0
    8.6878   -6.6715   27.7262 N   0  0  0  0  0  0  0  0  0  0  0  0
    6.9911   -8.2423   27.1808 C   0  0  0  0  0  0  0  0  0  0  0  0
    3.8436   -7.2758   16.0578 C   0  0  0  0  0  0  0  0  0  0  0  0
    3.1882   -9.7190   17.2566 C   0  0  0  0  0  0  0  0  0  0  0  0
    5.3488   -6.1737   26.5092 C   0  0  0  0  0  0  0  0  0  0  0  0
    7.4567   -6.9464   27.2858 C   0  0  0  0  0  0  0  0  0  0  0  0
    0.1921   -5.7592   27.1123 C   0  0  0  0  0  0  0  0  0  0  0  0
    3.5517   -7.7407   25.9711 C   0  0  0  0  0  0  0  0  0  0  0  0
  1  4  4  0
  1 22  4  0
  2 20  4  0
  2 27  4  0
  3 12  4  0
  3 23  4  0
  4 25  4  0
  4 28  1  0
  5  8  4  0
  5 17  4  0
  6  7  4  0
  6 16  4  0
  7 18  4  0
  8 27  4  0
  9 13  4  0
  9 23  4  0
 10 11  1  0
 11 14  2  0
 11 27  1  0
 12 19  1  0
 12 24  4  0
 13 24  4  0
 15 18  1  0
 16 25  4  0
 16 26  4  0
 17 20  4  0
 17 28  1  0
 18 21  4  0
 21 26  4  0
 22 26  4  0
M  END
$$$$

 Created by Python create_sdf_string function

 28 30  0  0  0  0  0  0  0  0999 V2000
    5.7174   -8.4529   26.7190 C   0  0  0  0  0  0  0  0  0  0  0  0
    0.3974   -7.0711   27.5149 C   0  0  0  0  0  0  0  0  0  0  0  0
    2.5338   -7.6891   16.0102 C   0  0  0  0  0  0  0  0  0  0  0  0
    4.8690   -7.4380   26.4151 C   0  0  0  0  0  0  0  0  0  0  0  0
    2.3021   -5.6726   26.0378 C   0  0  0  0  0  0  0  0  0  0  0  0
    7.0880   -4.6163   27.0010 C   0  0  0  0  0  0  0  0  0  0  0  0
    8.3117   -4.3698   27.4436 C   0  0  0  0  0  0  0  0  0  0  0  0
    1.1339   -5.0515   26.3541 C   0  0  0  0  0  0  0  0  0  0  0  0
    4.8080   -8.0362   16.7101 C   0  0  0  0  0  0  0  0  0  0  0  0
   -1.2173   -3.9294   26.9717 O   0  0  0  0  0  0  0  0  0  0  0  0
   -1.0025   -5.0942   27.4586 C   0  0  0  0  0  0  0  0  0  0  0  0
    2.2474   -8.9123   16.6273 C   0  0  0  0  0  0  0  0  0  0  0  0
    4.4957   -9.2636   17.3041 C   0  0  0  0  0  0  0  0  0  0  0  0
   -1.8070   -5.6086   28.1920 O   0  0  0  0  0  0  0  0  0  0  0  0
   10.4296   -5.1799   28.3140 C   0  0  0  0  0  0  0  0  0  0  0  0
    6.6017   -5.9004   26.9187 C   0  0  0  0  0  0  0  0  0  0  0  0
    2.4761   -6.9940   26.4111 N   0  0  0  0  0  0  0  0  0  0  0  0
    9.1353   -5.4053   27.8239 C   0  0  0  0  0  0  0  0  0  0  0  0
    0.9922   -9.3232   16.5995 O   0  0  0  0  0  0  0  0  0  0  0  0
    1.5232   -7.6869   27.1182 C   0  0  0  0  0  0  0  0  0  0  0  0
    8.6878   -6.6715   27.7262 N   0  0  0  0  0  0  0  0  0  0  0  0
    6.9911   -8.2423   27.1808 C   0  0  0  0  0  0  0  0  0  0  0  0
    3.8436   -7.2758   16.0578 C   0  0  0  0  0  0  0  0  0  0  0  0
    3.1882   -9.7190   17.2566 C   0  0  0  0  0  0  0  0  0  0  0  0
    5.3488   -6.1737   26.5092 C   0  0  0  0  0  0  0  0  0  0  0  0
    7.4567   -6.9464   27.2858 C   0  0  0  0  0  0  0  0  0  0  0  0
    0.1921   -5.7592   27.1123 C   0  0  0  0  0  0  0  0  0  0  0  0
    3.5517   -7.7407   25.9711 C   0  0  0  0  0  0  0  0  0  0  0  0
  1  4  4  0
  1 22  4  0
  2 20  4  0
  2 27  4  0
  3 12  4  0
  3 23  4  0
  4 25  4  0
  4 28  1  0
  5  8  4  0
  5 17  4  0
  6  7  4  0
  6 16  4  0
  7 18  4  0
  8 27  4  0
  9 13  4  0
  9 23  4  0
 10 11  1  0
 11 14  2  0
 11 27  1  0
 12 19  1  0
 12 24  4  0
 13 24  4  0
 15 18  1  0
 16 25  4  0
 16 26  4  0
 17 20  4  0
 17 28  1  0
 18 21  4  0
 21 26  4  0
 22 26  4  0
M  END
$$$$

 Created by Python create_sdf_string function

 28 30  0  0  0  0  0  0  0  0999 V2000
    5.7174   -8.4529   26.7190 C   0  0  0  0  0  0  0  0  0  0  0  0
    0.3974   -7.0711   27.5149 C   0  0  0  0  0  0  0  0  0  0  0  0
    2.5338   -7.6891   16.0102 C   0  0  0  0  0  0  0  0  0  0  0  0
    4.8690   -7.4380   26.4151 C   0  0  0  0  0  0  0  0  0  0  0  0
    2.3021   -5.6726   26.0378 C   0  0  0  0  0  0  0  0  0  0  0  0
    7.0880   -4.6163   27.0010 C   0  0  0  0  0  0  0  0  0  0  0  0
    8.3117   -4.3698   27.4436 C   0  0  0  0  0  0  0  0  0  0  0  0
    1.1339   -5.0515   26.3541 C   0  0  0  0  0  0  0  0  0  0  0  0
    4.8080   -8.0362   16.7101 C   0  0  0  0  0  0  0  0  0  0  0  0
   -1.2173   -3.9294   26.9717 O   0  0  0  0  0  0  0  0  0  0  0  0
   -1.0025   -5.0942   27.4586 C   0  0  0  0  0  0  0  0  0  0  0  0
    2.2474   -8.9123   16.6273 C   0  0  0  0  0  0  0  0  0  0  0  0
    4.4957   -9.2636   17.3041 C   0  0  0  0  0  0  0  0  0  0  0  0
   -1.8070   -5.6086   28.1920 O   0  0  0  0  0  0  0  0  0  0  0  0
   10.4296   -5.1799   28.3140 C   0  0  0  0  0  0  0  0  0  0  0  0
    6.6017   -5.9004   26.9187 C   0  0  0  0  0  0  0  0  0  0  0  0
    2.4761   -6.9940   26.4111 N   0  0  0  0  0  0  0  0  0  0  0  0
    9.1353   -5.4053   27.8239 C   0  0  0  0  0  0  0  0  0  0  0  0
    0.9922   -9.3232   16.5995 O   0  0  0  0  0  0  0  0  0  0  0  0
    1.5232   -7.6869   27.1182 C   0  0  0  0  0  0  0  0  0  0  0  0
    8.6878   -6.6715   27.7262 N   0  0  0  0  0  0  0  0  0  0  0  0
    6.9911   -8.2423   27.1808 C   0  0  0  0  0  0  0  0  0  0  0  0
    3.8436   -7.2758   16.0578 C   0  0  0  0  0  0  0  0  0  0  0  0
    3.1882   -9.7190   17.2566 C   0  0  0  0  0  0  0  0  0  0  0  0
    5.3488   -6.1737   26.5092 C   0  0  0  0  0  0  0  0  0  0  0  0
    7.4567   -6.9464   27.2858 C   0  0  0  0  0  0  0  0  0  0  0  0
    0.1921   -5.7592   27.1123 C   0  0  0  0  0  0  0  0  0  0  0  0
    3.5517   -7.7407   25.9711 C   0  0  0  0  0  0  0  0  0  0  0  0
  1  4  4  0
  1 22  4  0
  2 20  4  0
  2 27  4  0
  3 12  4  0
  3 23  4  0
  4 25  4  0
  4 28  1  0
  5  8  4  0
  5 17  4  0
  6  7  4  0
  6 16  4  0
  7 18  4  0
  8 27  4  0
  9 13  4  0
  9 23  4  0
 10 11  1  0
 11 14  2  0
 11 27  1  0
 12 19  1  0
 12 24  4  0
 13 24  4  0
 15 18  1  0
 16 25  4  0
 16 26  4  0
 17 20  4  0
 17 28  1  0
 18 21  4  0
 21 26  4  0
 22 26  4  0
M  END
$$$$

 Created by Python create_sdf_string function

 28 30  0  0  0  0  0  0  0  0999 V2000
    5.7174   -8.4529   26.7190 C   0  0  0  0  0  0  0  0  0  0  0  0
    0.3974   -7.0711   27.5149 C   0  0  0  0  0  0  0  0  0  0  0  0
    2.5338   -7.6891   16.0102 C   0  0  0  0  0  0  0  0  0  0  0  0
    4.8690   -7.4380   26.4151 C   0  0  0  0  0  0  0  0  0  0  0  0
    2.3021   -5.6726   26.0378 C   0  0  0  0  0  0  0  0  0  0  0  0
    7.0880   -4.6163   27.0010 C   0  0  0  0  0  0  0  0  0  0  0  0
    8.3117   -4.3698   27.4436 C   0  0  0  0  0  0  0  0  0  0  0  0
    1.1339   -5.0515   26.3541 C   0  0  0  0  0  0  0  0  0  0  0  0
    4.8080   -8.0362   16.7101 C   0  0  0  0  0  0  0  0  0  0  0  0
   -1.2173   -3.9294   26.9717 O   0  0  0  0  0  0  0  0  0  0  0  0
   -1.0025   -5.0942   27.4586 C   0  0  0  0  0  0  0  0  0  0  0  0
    2.2474   -8.9123   16.6273 C   0  0  0  0  0  0  0  0  0  0  0  0
    4.4957   -9.2636   17.3041 C   0  0  0  0  0  0  0  0  0  0  0  0
   -1.8070   -5.6086   28.1920 O   0  0  0  0  0  0  0  0  0  0  0  0
   10.4296   -5.1799   28.3140 C   0  0  0  0  0  0  0  0  0  0  0  0
    6.6017   -5.9004   26.9187 C   0  0  0  0  0  0  0  0  0  0  0  0
    2.4761   -6.9940   26.4111 N   0  0  0  0  0  0  0  0  0  0  0  0
    9.1353   -5.4053   27.8239 C   0  0  0  0  0  0  0  0  0  0  0  0
    0.9922   -9.3232   16.5995 O   0  0  0  0  0  0  0  0  0  0  0  0
    1.5232   -7.6869   27.1182 C   0  0  0  0  0  0  0  0  0  0  0  0
    8.6878   -6.6715   27.7262 N   0  0  0  0  0  0  0  0  0  0  0  0
    6.9911   -8.2423   27.1808 C   0  0  0  0  0  0  0  0  0  0  0  0
    3.8436   -7.2758   16.0578 C   0  0  0  0  0  0  0  0  0  0  0  0
    3.1882   -9.7190   17.2566 C   0  0  0  0  0  0  0  0  0  0  0  0
    5.3488   -6.1737   26.5092 C   0  0  0  0  0  0  0  0  0  0  0  0
    7.4567   -6.9464   27.2858 C   0  0  0  0  0  0  0  0  0  0  0  0
    0.1921   -5.7592   27.1123 C   0  0  0  0  0  0  0  0  0  0  0  0
    3.5517   -7.7407   25.9711 C   0  0  0  0  0  0  0  0  0  0  0  0
  1  4  4  0
  1 22  4  0
  2 20  4  0
  2 27  4  0
  3 12  4  0
  3 23  4  0
  4 25  4  0
  4 28  1  0
  5  8  4  0
  5 17  4  0
  6  7  4  0
  6 16  4  0
  7 18  4  0
  8 27  4  0
  9 13  4  0
  9 23  4  0
 10 11  1  0
 11 14  2  0
 11 27  1  0
 12 19  1  0
 12 24  4  0
 13 24  4  0
 15 18  1  0
 16 25  4  0
 16 26  4  0
 17 20  4  0
 17 28  1  0
 18 21  4  0
 21 26  4  0
 22 26  4  0
M  END
$$$$

 Created by Python create_sdf_string function

 28 30  0  0  0  0  0  0  0  0999 V2000
    5.7174   -8.4529   26.7190 C   0  0  0  0  0  0  0  0  0  0  0  0
    0.3974   -7.0711   27.5149 C   0  0  0  0  0  0  0  0  0  0  0  0
    2.5338   -7.6891   16.0102 C   0  0  0  0  0  0  0  0  0  0  0  0
    4.8690   -7.4380   26.4151 C   0  0  0  0  0  0  0  0  0  0  0  0
    2.3021   -5.6726   26.0378 C   0  0  0  0  0  0  0  0  0  0  0  0
    7.0880   -4.6163   27.0010 C   0  0  0  0  0  0  0  0  0  0  0  0
    8.3117   -4.3698   27.4436 C   0  0  0  0  0  0  0  0  0  0  0  0
    1.1339   -5.0515   26.3541 C   0  0  0  0  0  0  0  0  0  0  0  0
    4.8080   -8.0362   16.7101 C   0  0  0  0  0  0  0  0  0  0  0  0
   -1.2173   -3.9294   26.9717 O   0  0  0  0  0  0  0  0  0  0  0  0
   -1.0025   -5.0942   27.4586 C   0  0  0  0  0  0  0  0  0  0  0  0
    2.2474   -8.9123   16.6273 C   0  0  0  0  0  0  0  0  0  0  0  0
    4.4957   -9.2636   17.3041 C   0  0  0  0  0  0  0  0  0  0  0  0
   -1.8070   -5.6086   28.1920 O   0  0  0  0  0  0  0  0  0  0  0  0
   10.4296   -5.1799   28.3140 C   0  0  0  0  0  0  0  0  0  0  0  0
    6.6017   -5.9004   26.9187 C   0  0  0  0  0  0  0  0  0  0  0  0
    2.4761   -6.9940   26.4111 N   0  0  0  0  0  0  0  0  0  0  0  0
    9.1353   -5.4053   27.8239 C   0  0  0  0  0  0  0  0  0  0  0  0
    0.9922   -9.3232   16.5995 O   0  0  0  0  0  0  0  0  0  0  0  0
    1.5232   -7.6869   27.1182 C   0  0  0  0  0  0  0  0  0  0  0  0
    8.6878   -6.6715   27.7262 N   0  0  0  0  0  0  0  0  0  0  0  0
    6.9911   -8.2423   27.1808 C   0  0  0  0  0  0  0  0  0  0  0  0
    3.8436   -7.2758   16.0578 C   0  0  0  0  0  0  0  0  0  0  0  0
    3.1882   -9.7190   17.2566 C   0  0  0  0  0  0  0  0  0  0  0  0
    5.3488   -6.1737   26.5092 C   0  0  0  0  0  0  0  0  0  0  0  0
    7.4567   -6.9464   27.2858 C   0  0  0  0  0  0  0  0  0  0  0  0
    0.1921   -5.7592   27.1123 C   0  0  0  0  0  0  0  0  0  0  0  0
    3.5517   -7.7407   25.9711 C   0  0  0  0  0  0  0  0  0  0  0  0
  1  4  4  0
  1 22  4  0
  2 20  4  0
  2 27  4  0
  3 12  4  0
  3 23  4  0
  4 25  4  0
  4 28  1  0
  5  8  4  0
  5 17  4  0
  6  7  4  0
  6 16  4  0
  7 18  4  0
  8 27  4  0
  9 13  4  0
  9 23  4  0
 10 11  1  0
 11 14  2  0
 11 27  1  0
 12 19  1  0
 12 24  4  0
 13 24  4  0
 15 18  1  0
 16 25  4  0
 16 26  4  0
 17 20  4  0
 17 28  1  0
 18 21  4  0
 21 26  4  0
 22 26  4  0
M  END
$$$$

 Created by Python create_sdf_string function

 28 30  0  0  0  0  0  0  0  0999 V2000
    5.7174   -8.4529   26.7190 C   0  0  0  0  0  0  0  0  0  0  0  0
    0.3974   -7.0711   27.5149 C   0  0  0  0  0  0  0  0  0  0  0  0
    2.5338   -7.6891   16.0102 C   0  0  0  0  0  0  0  0  0  0  0  0
    4.8690   -7.4380   26.4151 C   0  0  0  0  0  0  0  0  0  0  0  0
    2.3021   -5.6726   26.0378 C   0  0  0  0  0  0  0  0  0  0  0  0
    7.0880   -4.6163   27.0010 C   0  0  0  0  0  0  0  0  0  0  0  0
    8.3117   -4.3698   27.4436 C   0  0  0  0  0  0  0  0  0  0  0  0
    1.1339   -5.0515   26.3541 C   0  0  0  0  0  0  0  0  0  0  0  0
    4.8080   -8.0362   16.7101 C   0  0  0  0  0  0  0  0  0  0  0  0
   -1.2173   -3.9294   26.9717 O   0  0  0  0  0  0  0  0  0  0  0  0
   -1.0025   -5.0942   27.4586 C   0  0  0  0  0  0  0  0  0  0  0  0
    2.2474   -8.9123   16.6273 C   0  0  0  0  0  0  0  0  0  0  0  0
    4.4957   -9.2636   17.3041 C   0  0  0  0  0  0  0  0  0  0  0  0
   -1.8070   -5.6086   28.1920 O   0  0  0  0  0  0  0  0  0  0  0  0
   10.4296   -5.1799   28.3140 C   0  0  0  0  0  0  0  0  0  0  0  0
    6.6017   -5.9004   26.9187 C   0  0  0  0  0  0  0  0  0  0  0  0
    2.4761   -6.9940   26.4111 N   0  0  0  0  0  0  0  0  0  0  0  0
    9.1353   -5.4053   27.8239 C   0  0  0  0  0  0  0  0  0  0  0  0
    0.9922   -9.3232   16.5995 O   0  0  0  0  0  0  0  0  0  0  0  0
    1.5232   -7.6869   27.1182 C   0  0  0  0  0  0  0  0  0  0  0  0
    8.6878   -6.6715   27.7262 N   0  0  0  0  0  0  0  0  0  0  0  0
    6.9911   -8.2423   27.1808 C   0  0  0  0  0  0  0  0  0  0  0  0
    3.8436   -7.2758   16.0578 C   0  0  0  0  0  0  0  0  0  0  0  0
    3.1882   -9.7190   17.2566 C   0  0  0  0  0  0  0  0  0  0  0  0
    5.3488   -6.1737   26.5092 C   0  0  0  0  0  0  0  0  0  0  0  0
    7.4567   -6.9464   27.2858 C   0  0  0  0  0  0  0  0  0  0  0  0
    0.1921   -5.7592   27.1123 C   0  0  0  0  0  0  0  0  0  0  0  0
    3.5517   -7.7407   25.9711 C   0  0  0  0  0  0  0  0  0  0  0  0
  1  4  4  0
  1 22  4  0
  2 20  4  0
  2 27  4  0
  3 12  4  0
  3 23  4  0
  4 25  4  0
  4 28  1  0
  5  8  4  0
  5 17  4  0
  6  7  4  0
  6 16  4  0
  7 18  4  0
  8 27  4  0
  9 13  4  0
  9 23  4  0
 10 11  1  0
 11 14  2  0
 11 27  1  0
 12 19  1  0
 12 24  4  0
 13 24  4  0
 15 18  1  0
 16 25  4  0
 16 26  4  0
 17 20  4  0
 17 28  1  0
 18 21  4  0
 21 26  4  0
 22 26  4  0
M  END
$$$$

 Created by Python create_sdf_string function

 28 30  0  0  0  0  0  0  0  0999 V2000
    5.7174   -8.4529   26.7190 C   0  0  0  0  0  0  0  0  0  0  0  0
    0.3974   -7.0711   27.5149 C   0  0  0  0  0  0  0  0  0  0  0  0
    2.5338   -7.6891   16.0102 C   0  0  0  0  0  0  0  0  0  0  0  0
    4.8690   -7.4380   26.4151 C   0  0  0  0  0  0  0  0  0  0  0  0
    2.3021   -5.6726   26.0378 C   0  0  0  0  0  0  0  0  0  0  0  0
    7.0880   -4.6163   27.0010 C   0  0  0  0  0  0  0  0  0  0  0  0
    8.3117   -4.3698   27.4436 C   0  0  0  0  0  0  0  0  0  0  0  0
    1.1339   -5.0515   26.3541 C   0  0  0  0  0  0  0  0  0  0  0  0
    4.8080   -8.0362   16.7101 C   0  0  0  0  0  0  0  0  0  0  0  0
   -1.2173   -3.9294   26.9717 O   0  0  0  0  0  0  0  0  0  0  0  0
   -1.0025   -5.0942   27.4586 C   0  0  0  0  0  0  0  0  0  0  0  0
    2.2474   -8.9123   16.6273 C   0  0  0  0  0  0  0  0  0  0  0  0
    4.4957   -9.2636   17.3041 C   0  0  0  0  0  0  0  0  0  0  0  0
   -1.8070   -5.6086   28.1920 O   0  0  0  0  0  0  0  0  0  0  0  0
   10.4296   -5.1799   28.3140 C   0  0  0  0  0  0  0  0  0  0  0  0
    6.6017   -5.9004   26.9187 C   0  0  0  0  0  0  0  0  0  0  0  0
    2.4761   -6.9940   26.4111 N   0  0  0  0  0  0  0  0  0  0  0  0
    9.1353   -5.4053   27.8239 C   0  0  0  0  0  0  0  0  0  0  0  0
    0.9922   -9.3232   16.5995 O   0  0  0  0  0  0  0  0  0  0  0  0
    1.5232   -7.6869   27.1182 C   0  0  0  0  0  0  0  0  0  0  0  0
    8.6878   -6.6715   27.7262 N   0  0  0  0  0  0  0  0  0  0  0  0
    6.9911   -8.2423   27.1808 C   0  0  0  0  0  0  0  0  0  0  0  0
    3.8436   -7.2758   16.0578 C   0  0  0  0  0  0  0  0  0  0  0  0
    3.1882   -9.7190   17.2566 C   0  0  0  0  0  0  0  0  0  0  0  0
    5.3488   -6.1737   26.5092 C   0  0  0  0  0  0  0  0  0  0  0  0
    7.4567   -6.9464   27.2858 C   0  0  0  0  0  0  0  0  0  0  0  0
    0.1921   -5.7592   27.1123 C   0  0  0  0  0  0  0  0  0  0  0  0
    3.5517   -7.7407   25.9711 C   0  0  0  0  0  0  0  0  0  0  0  0
  1  4  4  0
  1 22  4  0
  2 20  4  0
  2 27  4  0
  3 12  4  0
  3 23  4  0
  4 25  4  0
  4 28  1  0
  5  8  4  0
  5 17  4  0
  6  7  4  0
  6 16  4  0
  7 18  4  0
  8 27  4  0
  9 13  4  0
  9 23  4  0
 10 11  1  0
 11 14  2  0
 11 27  1  0
 12 19  1  0
 12 24  4  0
 13 24  4  0
 15 18  1  0
 16 25  4  0
 16 26  4  0
 17 20  4  0
 17 28  1  0
 18 21  4  0
 21 26  4  0
 22 26  4  0
M  END
$$$$

 Created by Python create_sdf_string function

 28 30  0  0  0  0  0  0  0  0999 V2000
    5.7174   -8.4529   26.7190 C   0  0  0  0  0  0  0  0  0  0  0  0
    0.3974   -7.0711   27.5149 C   0  0  0  0  0  0  0  0  0  0  0  0
    2.5338   -7.6891   16.0102 C   0  0  0  0  0  0  0  0  0  0  0  0
    4.8690   -7.4380   26.4151 C   0  0  0  0  0  0  0  0  0  0  0  0
    2.3021   -5.6726   26.0378 C   0  0  0  0  0  0  0  0  0  0  0  0
    7.0880   -4.6163   27.0010 C   0  0  0  0  0  0  0  0  0  0  0  0
    8.3117   -4.3698   27.4436 C   0  0  0  0  0  0  0  0  0  0  0  0
    1.1339   -5.0515   26.3541 C   0  0  0  0  0  0  0  0  0  0  0  0
    4.8080   -8.0362   16.7101 C   0  0  0  0  0  0  0  0  0  0  0  0
   -1.2173   -3.9294   26.9717 O   0  0  0  0  0  0  0  0  0  0  0  0
   -1.0025   -5.0942   27.4586 C   0  0  0  0  0  0  0  0  0  0  0  0
    2.2474   -8.9123   16.6273 C   0  0  0  0  0  0  0  0  0  0  0  0
    4.4957   -9.2636   17.3041 C   0  0  0  0  0  0  0  0  0  0  0  0
   -1.8070   -5.6086   28.1920 O   0  0  0  0  0  0  0  0  0  0  0  0
   10.4296   -5.1799   28.3140 C   0  0  0  0  0  0  0  0  0  0  0  0
    6.6017   -5.9004   26.9187 C   0  0  0  0  0  0  0  0  0  0  0  0
    2.4761   -6.9940   26.4111 N   0  0  0  0  0  0  0  0  0  0  0  0
    9.1353   -5.4053   27.8239 C   0  0  0  0  0  0  0  0  0  0  0  0
    0.9922   -9.3232   16.5995 O   0  0  0  0  0  0  0  0  0  0  0  0
    1.5232   -7.6869   27.1182 C   0  0  0  0  0  0  0  0  0  0  0  0
    8.6878   -6.6715   27.7262 N   0  0  0  0  0  0  0  0  0  0  0  0
    6.9911   -8.2423   27.1808 C   0  0  0  0  0  0  0  0  0  0  0  0
    3.8436   -7.2758   16.0578 C   0  0  0  0  0  0  0  0  0  0  0  0
    3.1882   -9.7190   17.2566 C   0  0  0  0  0  0  0  0  0  0  0  0
    5.3488   -6.1737   26.5092 C   0  0  0  0  0  0  0  0  0  0  0  0
    7.4567   -6.9464   27.2858 C   0  0  0  0  0  0  0  0  0  0  0  0
    0.1921   -5.7592   27.1123 C   0  0  0  0  0  0  0  0  0  0  0  0
    3.5517   -7.7407   25.9711 C   0  0  0  0  0  0  0  0  0  0  0  0
  1  4  4  0
  1 22  4  0
  2 20  4  0
  2 27  4  0
  3 12  4  0
  3 23  4  0
  4 25  4  0
  4 28  1  0
  5  8  4  0
  5 17  4  0
  6  7  4  0
  6 16  4  0
  7 18  4  0
  8 27  4  0
  9 13  4  0
  9 23  4  0
 10 11  1  0
 11 14  2  0
 11 27  1  0
 12 19  1  0
 12 24  4  0
 13 24  4  0
 15 18  1  0
 16 25  4  0
 16 26  4  0
 17 20  4  0
 17 28  1  0
 18 21  4  0
 21 26  4  0
 22 26  4  0
M  END
$$$$

 Created by Python create_sdf_string function

 28 30  0  0  0  0  0  0  0  0999 V2000
    5.7174   -8.4529   26.7190 C   0  0  0  0  0  0  0  0  0  0  0  0
    0.3974   -7.0711   27.5149 C   0  0  0  0  0  0  0  0  0  0  0  0
    2.5338   -7.6891   16.0102 C   0  0  0  0  0  0  0  0  0  0  0  0
    4.8690   -7.4380   26.4151 C   0  0  0  0  0  0  0  0  0  0  0  0
    2.3021   -5.6726   26.0378 C   0  0  0  0  0  0  0  0  0  0  0  0
    7.0880   -4.6163   27.0010 C   0  0  0  0  0  0  0  0  0  0  0  0
    8.3117   -4.3698   27.4436 C   0  0  0  0  0  0  0  0  0  0  0  0
    1.1339   -5.0515   26.3541 C   0  0  0  0  0  0  0  0  0  0  0  0
    4.8080   -8.0362   16.7101 C   0  0  0  0  0  0  0  0  0  0  0  0
   -1.2173   -3.9294   26.9717 O   0  0  0  0  0  0  0  0  0  0  0  0
   -1.0025   -5.0942   27.4586 C   0  0  0  0  0  0  0  0  0  0  0  0
    2.2474   -8.9123   16.6273 C   0  0  0  0  0  0  0  0  0  0  0  0
    4.4957   -9.2636   17.3041 C   0  0  0  0  0  0  0  0  0  0  0  0
   -1.8070   -5.6086   28.1920 O   0  0  0  0  0  0  0  0  0  0  0  0
   10.4296   -5.1799   28.3140 C   0  0  0  0  0  0  0  0  0  0  0  0
    6.6017   -5.9004   26.9187 C   0  0  0  0  0  0  0  0  0  0  0  0
    2.4761   -6.9940   26.4111 N   0  0  0  0  0  0  0  0  0  0  0  0
    9.1353   -5.4053   27.8239 C   0  0  0  0  0  0  0  0  0  0  0  0
    0.9922   -9.3232   16.5995 O   0  0  0  0  0  0  0  0  0  0  0  0
    1.5232   -7.6869   27.1182 C   0  0  0  0  0  0  0  0  0  0  0  0
    8.6878   -6.6715   27.7262 N   0  0  0  0  0  0  0  0  0  0  0  0
    6.9911   -8.2423   27.1808 C   0  0  0  0  0  0  0  0  0  0  0  0
    3.8436   -7.2758   16.0578 C   0  0  0  0  0  0  0  0  0  0  0  0
    3.1882   -9.7190   17.2566 C   0  0  0  0  0  0  0  0  0  0  0  0
    5.3488   -6.1737   26.5092 C   0  0  0  0  0  0  0  0  0  0  0  0
    7.4567   -6.9464   27.2858 C   0  0  0  0  0  0  0  0  0  0  0  0
    0.1921   -5.7592   27.1123 C   0  0  0  0  0  0  0  0  0  0  0  0
    3.5517   -7.7407   25.9711 C   0  0  0  0  0  0  0  0  0  0  0  0
  1  4  4  0
  1 22  4  0
  2 20  4  0
  2 27  4  0
  3 12  4  0
  3 23  4  0
  4 25  4  0
  4 28  1  0
  5  8  4  0
  5 17  4  0
  6  7  4  0
  6 16  4  0
  7 18  4  0
  8 27  4  0
  9 13  4  0
  9 23  4  0
 10 11  1  0
 11 14  2  0
 11 27  1  0
 12 19  1  0
 12 24  4  0
 13 24  4  0
 15 18  1  0
 16 25  4  0
 16 26  4  0
 17 20  4  0
 17 28  1  0
 18 21  4  0
 21 26  4  0
 22 26  4  0
M  END
$$$$

 Created by Python create_sdf_string function

 28 30  0  0  0  0  0  0  0  0999 V2000
    5.7174   -8.4529   26.7190 C   0  0  0  0  0  0  0  0  0  0  0  0
    0.3974   -7.0711   27.5149 C   0  0  0  0  0  0  0  0  0  0  0  0
    2.5338   -7.6891   16.0102 C   0  0  0  0  0  0  0  0  0  0  0  0
    4.8690   -7.4380   26.4151 C   0  0  0  0  0  0  0  0  0  0  0  0
    2.3021   -5.6726   26.0378 C   0  0  0  0  0  0  0  0  0  0  0  0
    7.0880   -4.6163   27.0010 C   0  0  0  0  0  0  0  0  0  0  0  0
    8.3117   -4.3698   27.4436 C   0  0  0  0  0  0  0  0  0  0  0  0
    1.1339   -5.0515   26.3541 C   0  0  0  0  0  0  0  0  0  0  0  0
    4.8080   -8.0362   16.7101 C   0  0  0  0  0  0  0  0  0  0  0  0
   -1.2173   -3.9294   26.9717 O   0  0  0  0  0  0  0  0  0  0  0  0
   -1.0025   -5.0942   27.4586 C   0  0  0  0  0  0  0  0  0  0  0  0
    2.2474   -8.9123   16.6273 C   0  0  0  0  0  0  0  0  0  0  0  0
    4.4957   -9.2636   17.3041 C   0  0  0  0  0  0  0  0  0  0  0  0
   -1.8070   -5.6086   28.1920 O   0  0  0  0  0  0  0  0  0  0  0  0
   10.4296   -5.1799   28.3140 C   0  0  0  0  0  0  0  0  0  0  0  0
    6.6017   -5.9004   26.9187 C   0  0  0  0  0  0  0  0  0  0  0  0
    2.4761   -6.9940   26.4111 N   0  0  0  0  0  0  0  0  0  0  0  0
    9.1353   -5.4053   27.8239 C   0  0  0  0  0  0  0  0  0  0  0  0
    0.9922   -9.3232   16.5995 O   0  0  0  0  0  0  0  0  0  0  0  0
    1.5232   -7.6869   27.1182 C   0  0  0  0  0  0  0  0  0  0  0  0
    8.6878   -6.6715   27.7262 N   0  0  0  0  0  0  0  0  0  0  0  0
    6.9911   -8.2423   27.1808 C   0  0  0  0  0  0  0  0  0  0  0  0
    3.8436   -7.2758   16.0578 C   0  0  0  0  0  0  0  0  0  0  0  0
    3.1882   -9.7190   17.2566 C   0  0  0  0  0  0  0  0  0  0  0  0
    5.3488   -6.1737   26.5092 C   0  0  0  0  0  0  0  0  0  0  0  0
    7.4567   -6.9464   27.2858 C   0  0  0  0  0  0  0  0  0  0  0  0
    0.1921   -5.7592   27.1123 C   0  0  0  0  0  0  0  0  0  0  0  0
    3.5517   -7.7407   25.9711 C   0  0  0  0  0  0  0  0  0  0  0  0
  1  4  4  0
  1 22  4  0
  2 20  4  0
  2 27  4  0
  3 12  4  0
  3 23  4  0
  4 25  4  0
  4 28  1  0
  5  8  4  0
  5 17  4  0
  6  7  4  0
  6 16  4  0
  7 18  4  0
  8 27  4  0
  9 13  4  0
  9 23  4  0
 10 11  1  0
 11 14  2  0
 11 27  1  0
 12 19  1  0
 12 24  4  0
 13 24  4  0
 15 18  1  0
 16 25  4  0
 16 26  4  0
 17 20  4  0
 17 28  1  0
 18 21  4  0
 21 26  4  0
 22 26  4  0
M  END
$$$$

 Created by Python create_sdf_string function

 28 30  0  0  0  0  0  0  0  0999 V2000
    5.7174   -8.4529   26.7190 C   0  0  0  0  0  0  0  0  0  0  0  0
    0.3974   -7.0711   27.5149 C   0  0  0  0  0  0  0  0  0  0  0  0
    2.5338   -7.6891   16.0102 C   0  0  0  0  0  0  0  0  0  0  0  0
    4.8690   -7.4380   26.4151 C   0  0  0  0  0  0  0  0  0  0  0  0
    2.3021   -5.6726   26.0378 C   0  0  0  0  0  0  0  0  0  0  0  0
    7.0880   -4.6163   27.0010 C   0  0  0  0  0  0  0  0  0  0  0  0
    8.3117   -4.3698   27.4436 C   0  0  0  0  0  0  0  0  0  0  0  0
    1.1339   -5.0515   26.3541 C   0  0  0  0  0  0  0  0  0  0  0  0
    4.8080   -8.0362   16.7101 C   0  0  0  0  0  0  0  0  0  0  0  0
   -1.2173   -3.9294   26.9717 O   0  0  0  0  0  0  0  0  0  0  0  0
   -1.0025   -5.0942   27.4586 C   0  0  0  0  0  0  0  0  0  0  0  0
    2.2474   -8.9123   16.6273 C   0  0  0  0  0  0  0  0  0  0  0  0
    4.4957   -9.2636   17.3041 C   0  0  0  0  0  0  0  0  0  0  0  0
   -1.8070   -5.6086   28.1920 O   0  0  0  0  0  0  0  0  0  0  0  0
   10.4296   -5.1799   28.3140 C   0  0  0  0  0  0  0  0  0  0  0  0
    6.6017   -5.9004   26.9187 C   0  0  0  0  0  0  0  0  0  0  0  0
    2.4761   -6.9940   26.4111 N   0  0  0  0  0  0  0  0  0  0  0  0
    9.1353   -5.4053   27.8239 C   0  0  0  0  0  0  0  0  0  0  0  0
    0.9922   -9.3232   16.5995 O   0  0  0  0  0  0  0  0  0  0  0  0
    1.5232   -7.6869   27.1182 C   0  0  0  0  0  0  0  0  0  0  0  0
    8.6878   -6.6715   27.7262 N   0  0  0  0  0  0  0  0  0  0  0  0
    6.9911   -8.2423   27.1808 C   0  0  0  0  0  0  0  0  0  0  0  0
    3.8436   -7.2758   16.0578 C   0  0  0  0  0  0  0  0  0  0  0  0
    3.1882   -9.7190   17.2566 C   0  0  0  0  0  0  0  0  0  0  0  0
    5.3488   -6.1737   26.5092 C   0  0  0  0  0  0  0  0  0  0  0  0
    7.4567   -6.9464   27.2858 C   0  0  0  0  0  0  0  0  0  0  0  0
    0.1921   -5.7592   27.1123 C   0  0  0  0  0  0  0  0  0  0  0  0
    3.5517   -7.7407   25.9711 C   0  0  0  0  0  0  0  0  0  0  0  0
  1  4  4  0
  1 22  4  0
  2 20  4  0
  2 27  4  0
  3 12  4  0
  3 23  4  0
  4 25  4  0
  4 28  1  0
  5  8  4  0
  5 17  4  0
  6  7  4  0
  6 16  4  0
  7 18  4  0
  8 27  4  0
  9 13  4  0
  9 23  4  0
 10 11  1  0
 11 14  2  0
 11 27  1  0
 12 19  1  0
 12 24  4  0
 13 24  4  0
 15 18  1  0
 16 25  4  0
 16 26  4  0
 17 20  4  0
 17 28  1  0
 18 21  4  0
 21 26  4  0
 22 26  4  0
M  END
$$$$

 Created by Python create_sdf_string function

 28 30  0  0  0  0  0  0  0  0999 V2000
    5.7174   -8.4529   26.7190 C   0  0  0  0  0  0  0  0  0  0  0  0
    0.3974   -7.0711   27.5149 C   0  0  0  0  0  0  0  0  0  0  0  0
    2.5338   -7.6891   16.0102 C   0  0  0  0  0  0  0  0  0  0  0  0
    4.8690   -7.4380   26.4151 C   0  0  0  0  0  0  0  0  0  0  0  0
    2.3021   -5.6726   26.0378 C   0  0  0  0  0  0  0  0  0  0  0  0
    7.0880   -4.6163   27.0010 C   0  0  0  0  0  0  0  0  0  0  0  0
    8.3117   -4.3698   27.4436 C   0  0  0  0  0  0  0  0  0  0  0  0
    1.1339   -5.0515   26.3541 C   0  0  0  0  0  0  0  0  0  0  0  0
    4.8080   -8.0362   16.7101 C   0  0  0  0  0  0  0  0  0  0  0  0
   -1.2173   -3.9294   26.9717 O   0  0  0  0  0  0  0  0  0  0  0  0
   -1.0025   -5.0942   27.4586 C   0  0  0  0  0  0  0  0  0  0  0  0
    2.2474   -8.9123   16.6273 C   0  0  0  0  0  0  0  0  0  0  0  0
    4.4957   -9.2636   17.3041 C   0  0  0  0  0  0  0  0  0  0  0  0
   -1.8070   -5.6086   28.1920 O   0  0  0  0  0  0  0  0  0  0  0  0
   10.4296   -5.1799   28.3140 C   0  0  0  0  0  0  0  0  0  0  0  0
    6.6017   -5.9004   26.9187 C   0  0  0  0  0  0  0  0  0  0  0  0
    2.4761   -6.9940   26.4111 N   0  0  0  0  0  0  0  0  0  0  0  0
    9.1353   -5.4053   27.8239 C   0  0  0  0  0  0  0  0  0  0  0  0
    0.9922   -9.3232   16.5995 O   0  0  0  0  0  0  0  0  0  0  0  0
    1.5232   -7.6869   27.1182 C   0  0  0  0  0  0  0  0  0  0  0  0
    8.6878   -6.6715   27.7262 N   0  0  0  0  0  0  0  0  0  0  0  0
    6.9911   -8.2423   27.1808 C   0  0  0  0  0  0  0  0  0  0  0  0
    3.8436   -7.2758   16.0578 C   0  0  0  0  0  0  0  0  0  0  0  0
    3.1882   -9.7190   17.2566 C   0  0  0  0  0  0  0  0  0  0  0  0
    5.3488   -6.1737   26.5092 C   0  0  0  0  0  0  0  0  0  0  0  0
    7.4567   -6.9464   27.2858 C   0  0  0  0  0  0  0  0  0  0  0  0
    0.1921   -5.7592   27.1123 C   0  0  0  0  0  0  0  0  0  0  0  0
    3.5517   -7.7407   25.9711 C   0  0  0  0  0  0  0  0  0  0  0  0
  1  4  4  0
  1 22  4  0
  2 20  4  0
  2 27  4  0
  3 12  4  0
  3 23  4  0
  4 25  4  0
  4 28  1  0
  5  8  4  0
  5 17  4  0
  6  7  4  0
  6 16  4  0
  7 18  4  0
  8 27  4  0
  9 13  4  0
  9 23  4  0
 10 11  1  0
 11 14  2  0
 11 27  1  0
 12 19  1  0
 12 24  4  0
 13 24  4  0
 15 18  1  0
 16 25  4  0
 16 26  4  0
 17 20  4  0
 17 28  1  0
 18 21  4  0
 21 26  4  0
 22 26  4  0
M  END
$$$$

 Created by Python create_sdf_string function

 28 30  0  0  0  0  0  0  0  0999 V2000
    5.7174   -8.4529   26.7190 C   0  0  0  0  0  0  0  0  0  0  0  0
    0.3974   -7.0711   27.5149 C   0  0  0  0  0  0  0  0  0  0  0  0
    2.5338   -7.6891   16.0102 C   0  0  0  0  0  0  0  0  0  0  0  0
    4.8690   -7.4380   26.4151 C   0  0  0  0  0  0  0  0  0  0  0  0
    2.3021   -5.6726   26.0378 C   0  0  0  0  0  0  0  0  0  0  0  0
    7.0880   -4.6163   27.0010 C   0  0  0  0  0  0  0  0  0  0  0  0
    8.3117   -4.3698   27.4436 C   0  0  0  0  0  0  0  0  0  0  0  0
    1.1339   -5.0515   26.3541 C   0  0  0  0  0  0  0  0  0  0  0  0
    4.8080   -8.0362   16.7101 C   0  0  0  0  0  0  0  0  0  0  0  0
   -1.2173   -3.9294   26.9717 O   0  0  0  0  0  0  0  0  0  0  0  0
   -1.0025   -5.0942   27.4586 C   0  0  0  0  0  0  0  0  0  0  0  0
    2.2474   -8.9123   16.6273 C   0  0  0  0  0  0  0  0  0  0  0  0
    4.4957   -9.2636   17.3041 C   0  0  0  0  0  0  0  0  0  0  0  0
   -1.8070   -5.6086   28.1920 O   0  0  0  0  0  0  0  0  0  0  0  0
   10.4296   -5.1799   28.3140 C   0  0  0  0  0  0  0  0  0  0  0  0
    6.6017   -5.9004   26.9187 C   0  0  0  0  0  0  0  0  0  0  0  0
    2.4761   -6.9940   26.4111 N   0  0  0  0  0  0  0  0  0  0  0  0
    9.1353   -5.4053   27.8239 C   0  0  0  0  0  0  0  0  0  0  0  0
    0.9922   -9.3232   16.5995 O   0  0  0  0  0  0  0  0  0  0  0  0
    1.5232   -7.6869   27.1182 C   0  0  0  0  0  0  0  0  0  0  0  0
    8.6878   -6.6715   27.7262 N   0  0  0  0  0  0  0  0  0  0  0  0
    6.9911   -8.2423   27.1808 C   0  0  0  0  0  0  0  0  0  0  0  0
    3.8436   -7.2758   16.0578 C   0  0  0  0  0  0  0  0  0  0  0  0
    3.1882   -9.7190   17.2566 C   0  0  0  0  0  0  0  0  0  0  0  0
    5.3488   -6.1737   26.5092 C   0  0  0  0  0  0  0  0  0  0  0  0
    7.4567   -6.9464   27.2858 C   0  0  0  0  0  0  0  0  0  0  0  0
    0.1921   -5.7592   27.1123 C   0  0  0  0  0  0  0  0  0  0  0  0
    3.5517   -7.7407   25.9711 C   0  0  0  0  0  0  0  0  0  0  0  0
  1  4  4  0
  1 22  4  0
  2 20  4  0
  2 27  4  0
  3 12  4  0
  3 23  4  0
  4 25  4  0
  4 28  1  0
  5  8  4  0
  5 17  4  0
  6  7  4  0
  6 16  4  0
  7 18  4  0
  8 27  4  0
  9 13  4  0
  9 23  4  0
 10 11  1  0
 11 14  2  0
 11 27  1  0
 12 19  1  0
 12 24  4  0
 13 24  4  0
 15 18  1  0
 16 25  4  0
 16 26  4  0
 17 20  4  0
 17 28  1  0
 18 21  4  0
 21 26  4  0
 22 26  4  0
M  END
$$$$

 Created by Python create_sdf_string function

 28 30  0  0  0  0  0  0  0  0999 V2000
    5.7174   -8.4529   26.7190 C   0  0  0  0  0  0  0  0  0  0  0  0
    0.3974   -7.0711   27.5149 C   0  0  0  0  0  0  0  0  0  0  0  0
    2.5338   -7.6891   16.0102 C   0  0  0  0  0  0  0  0  0  0  0  0
    4.8690   -7.4380   26.4151 C   0  0  0  0  0  0  0  0  0  0  0  0
    2.3021   -5.6726   26.0378 C   0  0  0  0  0  0  0  0  0  0  0  0
    7.0880   -4.6163   27.0010 C   0  0  0  0  0  0  0  0  0  0  0  0
    8.3117   -4.3698   27.4436 C   0  0  0  0  0  0  0  0  0  0  0  0
    1.1339   -5.0515   26.3541 C   0  0  0  0  0  0  0  0  0  0  0  0
    4.8080   -8.0362   16.7101 C   0  0  0  0  0  0  0  0  0  0  0  0
   -1.2173   -3.9294   26.9717 O   0  0  0  0  0  0  0  0  0  0  0  0
   -1.0025   -5.0942   27.4586 C   0  0  0  0  0  0  0  0  0  0  0  0
    2.2474   -8.9123   16.6273 C   0  0  0  0  0  0  0  0  0  0  0  0
    4.4957   -9.2636   17.3041 C   0  0  0  0  0  0  0  0  0  0  0  0
   -1.8070   -5.6086   28.1920 O   0  0  0  0  0  0  0  0  0  0  0  0
   10.4296   -5.1799   28.3140 C   0  0  0  0  0  0  0  0  0  0  0  0
    6.6017   -5.9004   26.9187 C   0  0  0  0  0  0  0  0  0  0  0  0
    2.4761   -6.9940   26.4111 N   0  0  0  0  0  0  0  0  0  0  0  0
    9.1353   -5.4053   27.8239 C   0  0  0  0  0  0  0  0  0  0  0  0
    0.9922   -9.3232   16.5995 O   0  0  0  0  0  0  0  0  0  0  0  0
    1.5232   -7.6869   27.1182 C   0  0  0  0  0  0  0  0  0  0  0  0
    8.6878   -6.6715   27.7262 N   0  0  0  0  0  0  0  0  0  0  0  0
    6.9911   -8.2423   27.1808 C   0  0  0  0  0  0  0  0  0  0  0  0
    3.8436   -7.2758   16.0578 C   0  0  0  0  0  0  0  0  0  0  0  0
    3.1882   -9.7190   17.2566 C   0  0  0  0  0  0  0  0  0  0  0  0
    5.3488   -6.1737   26.5092 C   0  0  0  0  0  0  0  0  0  0  0  0
    7.4567   -6.9464   27.2858 C   0  0  0  0  0  0  0  0  0  0  0  0
    0.1921   -5.7592   27.1123 C   0  0  0  0  0  0  0  0  0  0  0  0
    3.5517   -7.7407   25.9711 C   0  0  0  0  0  0  0  0  0  0  0  0
  1  4  4  0
  1 22  4  0
  2 20  4  0
  2 27  4  0
  3 12  4  0
  3 23  4  0
  4 25  4  0
  4 28  1  0
  5  8  4  0
  5 17  4  0
  6  7  4  0
  6 16  4  0
  7 18  4  0
  8 27  4  0
  9 13  4  0
  9 23  4  0
 10 11  1  0
 11 14  2  0
 11 27  1  0
 12 19  1  0
 12 24  4  0
 13 24  4  0
 15 18  1  0
 16 25  4  0
 16 26  4  0
 17 20  4  0
 17 28  1  0
 18 21  4  0
 21 26  4  0
 22 26  4  0
M  END
$$$$

 Created by Python create_sdf_string function

 28 30  0  0  0  0  0  0  0  0999 V2000
    5.7174   -8.4529   26.7190 C   0  0  0  0  0  0  0  0  0  0  0  0
    0.3974   -7.0711   27.5149 C   0  0  0  0  0  0  0  0  0  0  0  0
    2.5338   -7.6891   16.0102 C   0  0  0  0  0  0  0  0  0  0  0  0
    4.8690   -7.4380   26.4151 C   0  0  0  0  0  0  0  0  0  0  0  0
    2.3021   -5.6726   26.0378 C   0  0  0  0  0  0  0  0  0  0  0  0
    7.0880   -4.6163   27.0010 C   0  0  0  0  0  0  0  0  0  0  0  0
    8.3117   -4.3698   27.4436 C   0  0  0  0  0  0  0  0  0  0  0  0
    1.1339   -5.0515   26.3541 C   0  0  0  0  0  0  0  0  0  0  0  0
    4.8080   -8.0362   16.7101 C   0  0  0  0  0  0  0  0  0  0  0  0
   -1.2173   -3.9294   26.9717 O   0  0  0  0  0  0  0  0  0  0  0  0
   -1.0025   -5.0942   27.4586 C   0  0  0  0  0  0  0  0  0  0  0  0
    2.2474   -8.9123   16.6273 C   0  0  0  0  0  0  0  0  0  0  0  0
    4.4957   -9.2636   17.3041 C   0  0  0  0  0  0  0  0  0  0  0  0
   -1.8070   -5.6086   28.1920 O   0  0  0  0  0  0  0  0  0  0  0  0
   10.4296   -5.1799   28.3140 C   0  0  0  0  0  0  0  0  0  0  0  0
    6.6017   -5.9004   26.9187 C   0  0  0  0  0  0  0  0  0  0  0  0
    2.4761   -6.9940   26.4111 N   0  0  0  0  0  0  0  0  0  0  0  0
    9.1353   -5.4053   27.8239 C   0  0  0  0  0  0  0  0  0  0  0  0
    0.9922   -9.3232   16.5995 O   0  0  0  0  0  0  0  0  0  0  0  0
    1.5232   -7.6869   27.1182 C   0  0  0  0  0  0  0  0  0  0  0  0
    8.6878   -6.6715   27.7262 N   0  0  0  0  0  0  0  0  0  0  0  0
    6.9911   -8.2423   27.1808 C   0  0  0  0  0  0  0  0  0  0  0  0
    3.8436   -7.2758   16.0578 C   0  0  0  0  0  0  0  0  0  0  0  0
    3.1882   -9.7190   17.2566 C   0  0  0  0  0  0  0  0  0  0  0  0
    5.3488   -6.1737   26.5092 C   0  0  0  0  0  0  0  0  0  0  0  0
    7.4567   -6.9464   27.2858 C   0  0  0  0  0  0  0  0  0  0  0  0
    0.1921   -5.7592   27.1123 C   0  0  0  0  0  0  0  0  0  0  0  0
    3.5517   -7.7407   25.9711 C   0  0  0  0  0  0  0  0  0  0  0  0
  1  4  4  0
  1 22  4  0
  2 20  4  0
  2 27  4  0
  3 12  4  0
  3 23  4  0
  4 25  4  0
  4 28  1  0
  5  8  4  0
  5 17  4  0
  6  7  4  0
  6 16  4  0
  7 18  4  0
  8 27  4  0
  9 13  4  0
  9 23  4  0
 10 11  1  0
 11 14  2  0
 11 27  1  0
 12 19  1  0
 12 24  4  0
 13 24  4  0
 15 18  1  0
 16 25  4  0
 16 26  4  0
 17 20  4  0
 17 28  1  0
 18 21  4  0
 21 26  4  0
 22 26  4  0
M  END
$$$$

 Created by Python create_sdf_string function

 28 30  0  0  0  0  0  0  0  0999 V2000
    5.7174   -8.4529   26.7190 C   0  0  0  0  0  0  0  0  0  0  0  0
    0.3974   -7.0711   27.5149 C   0  0  0  0  0  0  0  0  0  0  0  0
    2.5338   -7.6891   16.0102 C   0  0  0  0  0  0  0  0  0  0  0  0
    4.8690   -7.4380   26.4151 C   0  0  0  0  0  0  0  0  0  0  0  0
    2.3021   -5.6726   26.0378 C   0  0  0  0  0  0  0  0  0  0  0  0
    7.0880   -4.6163   27.0010 C   0  0  0  0  0  0  0  0  0  0  0  0
    8.3117   -4.3698   27.4436 C   0  0  0  0  0  0  0  0  0  0  0  0
    1.1339   -5.0515   26.3541 C   0  0  0  0  0  0  0  0  0  0  0  0
    4.8080   -8.0362   16.7101 C   0  0  0  0  0  0  0  0  0  0  0  0
   -1.2173   -3.9294   26.9717 O   0  0  0  0  0  0  0  0  0  0  0  0
   -1.0025   -5.0942   27.4586 C   0  0  0  0  0  0  0  0  0  0  0  0
    2.2474   -8.9123   16.6273 C   0  0  0  0  0  0  0  0  0  0  0  0
    4.4957   -9.2636   17.3041 C   0  0  0  0  0  0  0  0  0  0  0  0
   -1.8070   -5.6086   28.1920 O   0  0  0  0  0  0  0  0  0  0  0  0
   10.4296   -5.1799   28.3140 C   0  0  0  0  0  0  0  0  0  0  0  0
    6.6017   -5.9004   26.9187 C   0  0  0  0  0  0  0  0  0  0  0  0
    2.4761   -6.9940   26.4111 N   0  0  0  0  0  0  0  0  0  0  0  0
    9.1353   -5.4053   27.8239 C   0  0  0  0  0  0  0  0  0  0  0  0
    0.9922   -9.3232   16.5995 O   0  0  0  0  0  0  0  0  0  0  0  0
    1.5232   -7.6869   27.1182 C   0  0  0  0  0  0  0  0  0  0  0  0
    8.6878   -6.6715   27.7262 N   0  0  0  0  0  0  0  0  0  0  0  0
    6.9911   -8.2423   27.1808 C   0  0  0  0  0  0  0  0  0  0  0  0
    3.8436   -7.2758   16.0578 C   0  0  0  0  0  0  0  0  0  0  0  0
    3.1882   -9.7190   17.2566 C   0  0  0  0  0  0  0  0  0  0  0  0
    5.3488   -6.1737   26.5092 C   0  0  0  0  0  0  0  0  0  0  0  0
    7.4567   -6.9464   27.2858 C   0  0  0  0  0  0  0  0  0  0  0  0
    0.1921   -5.7592   27.1123 C   0  0  0  0  0  0  0  0  0  0  0  0
    3.5517   -7.7407   25.9711 C   0  0  0  0  0  0  0  0  0  0  0  0
  1  4  4  0
  1 22  4  0
  2 20  4  0
  2 27  4  0
  3 12  4  0
  3 23  4  0
  4 25  4  0
  4 28  1  0
  5  8  4  0
  5 17  4  0
  6  7  4  0
  6 16  4  0
  7 18  4  0
  8 27  4  0
  9 13  4  0
  9 23  4  0
 10 11  1  0
 11 14  2  0
 11 27  1  0
 12 19  1  0
 12 24  4  0
 13 24  4  0
 15 18  1  0
 16 25  4  0
 16 26  4  0
 17 20  4  0
 17 28  1  0
 18 21  4  0
 21 26  4  0
 22 26  4  0
M  END
$$$$

 Created by Python create_sdf_string function

 28 30  0  0  0  0  0  0  0  0999 V2000
    5.7174   -8.4529   26.7190 C   0  0  0  0  0  0  0  0  0  0  0  0
    0.3974   -7.0711   27.5149 C   0  0  0  0  0  0  0  0  0  0  0  0
    2.5338   -7.6891   16.0102 C   0  0  0  0  0  0  0  0  0  0  0  0
    4.8690   -7.4380   26.4151 C   0  0  0  0  0  0  0  0  0  0  0  0
    2.3021   -5.6726   26.0378 C   0  0  0  0  0  0  0  0  0  0  0  0
    7.0880   -4.6163   27.0010 C   0  0  0  0  0  0  0  0  0  0  0  0
    8.3117   -4.3698   27.4436 C   0  0  0  0  0  0  0  0  0  0  0  0
    1.1339   -5.0515   26.3541 C   0  0  0  0  0  0  0  0  0  0  0  0
    4.8080   -8.0362   16.7101 C   0  0  0  0  0  0  0  0  0  0  0  0
   -1.2173   -3.9294   26.9717 O   0  0  0  0  0  0  0  0  0  0  0  0
   -1.0025   -5.0942   27.4586 C   0  0  0  0  0  0  0  0  0  0  0  0
    2.2474   -8.9123   16.6273 C   0  0  0  0  0  0  0  0  0  0  0  0
    4.4957   -9.2636   17.3041 C   0  0  0  0  0  0  0  0  0  0  0  0
   -1.8070   -5.6086   28.1920 O   0  0  0  0  0  0  0  0  0  0  0  0
   10.4296   -5.1799   28.3140 C   0  0  0  0  0  0  0  0  0  0  0  0
    6.6017   -5.9004   26.9187 C   0  0  0  0  0  0  0  0  0  0  0  0
    2.4761   -6.9940   26.4111 N   0  0  0  0  0  0  0  0  0  0  0  0
    9.1353   -5.4053   27.8239 C   0  0  0  0  0  0  0  0  0  0  0  0
    0.9922   -9.3232   16.5995 O   0  0  0  0  0  0  0  0  0  0  0  0
    1.5232   -7.6869   27.1182 C   0  0  0  0  0  0  0  0  0  0  0  0
    8.6878   -6.6715   27.7262 N   0  0  0  0  0  0  0  0  0  0  0  0
    6.9911   -8.2423   27.1808 C   0  0  0  0  0  0  0  0  0  0  0  0
    3.8436   -7.2758   16.0578 C   0  0  0  0  0  0  0  0  0  0  0  0
    3.1882   -9.7190   17.2566 C   0  0  0  0  0  0  0  0  0  0  0  0
    5.3488   -6.1737   26.5092 C   0  0  0  0  0  0  0  0  0  0  0  0
    7.4567   -6.9464   27.2858 C   0  0  0  0  0  0  0  0  0  0  0  0
    0.1921   -5.7592   27.1123 C   0  0  0  0  0  0  0  0  0  0  0  0
    3.5517   -7.7407   25.9711 C   0  0  0  0  0  0  0  0  0  0  0  0
  1  4  4  0
  1 22  4  0
  2 20  4  0
  2 27  4  0
  3 12  4  0
  3 23  4  0
  4 25  4  0
  4 28  1  0
  5  8  4  0
  5 17  4  0
  6  7  4  0
  6 16  4  0
  7 18  4  0
  8 27  4  0
  9 13  4  0
  9 23  4  0
 10 11  1  0
 11 14  2  0
 11 27  1  0
 12 19  1  0
 12 24  4  0
 13 24  4  0
 15 18  1  0
 16 25  4  0
 16 26  4  0
 17 20  4  0
 17 28  1  0
 18 21  4  0
 21 26  4  0
 22 26  4  0
M  END
$$$$

 Created by Python create_sdf_string function

 28 30  0  0  0  0  0  0  0  0999 V2000
    5.7174   -8.4529   26.7190 C   0  0  0  0  0  0  0  0  0  0  0  0
    0.3974   -7.0711   27.5149 C   0  0  0  0  0  0  0  0  0  0  0  0
    2.5338   -7.6891   16.0102 C   0  0  0  0  0  0  0  0  0  0  0  0
    4.8690   -7.4380   26.4151 C   0  0  0  0  0  0  0  0  0  0  0  0
    2.3021   -5.6726   26.0378 C   0  0  0  0  0  0  0  0  0  0  0  0
    7.0880   -4.6163   27.0010 C   0  0  0  0  0  0  0  0  0  0  0  0
    8.3117   -4.3698   27.4436 C   0  0  0  0  0  0  0  0  0  0  0  0
    1.1339   -5.0515   26.3541 C   0  0  0  0  0  0  0  0  0  0  0  0
    4.8080   -8.0362   16.7101 C   0  0  0  0  0  0  0  0  0  0  0  0
   -1.2173   -3.9294   26.9717 O   0  0  0  0  0  0  0  0  0  0  0  0
   -1.0025   -5.0942   27.4586 C   0  0  0  0  0  0  0  0  0  0  0  0
    2.2474   -8.9123   16.6273 C   0  0  0  0  0  0  0  0  0  0  0  0
    4.4957   -9.2636   17.3041 C   0  0  0  0  0  0  0  0  0  0  0  0
   -1.8070   -5.6086   28.1920 O   0  0  0  0  0  0  0  0  0  0  0  0
   10.4296   -5.1799   28.3140 C   0  0  0  0  0  0  0  0  0  0  0  0
    6.6017   -5.9004   26.9187 C   0  0  0  0  0  0  0  0  0  0  0  0
    2.4761   -6.9940   26.4111 N   0  0  0  0  0  0  0  0  0  0  0  0
    9.1353   -5.4053   27.8239 C   0  0  0  0  0  0  0  0  0  0  0  0
    0.9922   -9.3232   16.5995 O   0  0  0  0  0  0  0  0  0  0  0  0
    1.5232   -7.6869   27.1182 C   0  0  0  0  0  0  0  0  0  0  0  0
    8.6878   -6.6715   27.7262 N   0  0  0  0  0  0  0  0  0  0  0  0
    6.9911   -8.2423   27.1808 C   0  0  0  0  0  0  0  0  0  0  0  0
    3.8436   -7.2758   16.0578 C   0  0  0  0  0  0  0  0  0  0  0  0
    3.1882   -9.7190   17.2566 C   0  0  0  0  0  0  0  0  0  0  0  0
    5.3488   -6.1737   26.5092 C   0  0  0  0  0  0  0  0  0  0  0  0
    7.4567   -6.9464   27.2858 C   0  0  0  0  0  0  0  0  0  0  0  0
    0.1921   -5.7592   27.1123 C   0  0  0  0  0  0  0  0  0  0  0  0
    3.5517   -7.7407   25.9711 C   0  0  0  0  0  0  0  0  0  0  0  0
  1  4  4  0
  1 22  4  0
  2 20  4  0
  2 27  4  0
  3 12  4  0
  3 23  4  0
  4 25  4  0
  4 28  1  0
  5  8  4  0
  5 17  4  0
  6  7  4  0
  6 16  4  0
  7 18  4  0
  8 27  4  0
  9 13  4  0
  9 23  4  0
 10 11  1  0
 11 14  2  0
 11 27  1  0
 12 19  1  0
 12 24  4  0
 13 24  4  0
 15 18  1  0
 16 25  4  0
 16 26  4  0
 17 20  4  0
 17 28  1  0
 18 21  4  0
 21 26  4  0
 22 26  4  0
M  END
$$$$

 Created by Python create_sdf_string function

 28 30  0  0  0  0  0  0  0  0999 V2000
    5.7174   -8.4529   26.7190 C   0  0  0  0  0  0  0  0  0  0  0  0
    0.3974   -7.0711   27.5149 C   0  0  0  0  0  0  0  0  0  0  0  0
    2.5338   -7.6891   16.0102 C   0  0  0  0  0  0  0  0  0  0  0  0
    4.8690   -7.4380   26.4151 C   0  0  0  0  0  0  0  0  0  0  0  0
    2.3021   -5.6726   26.0378 C   0  0  0  0  0  0  0  0  0  0  0  0
    7.0880   -4.6163   27.0010 C   0  0  0  0  0  0  0  0  0  0  0  0
    8.3117   -4.3698   27.4436 C   0  0  0  0  0  0  0  0  0  0  0  0
    1.1339   -5.0515   26.3541 C   0  0  0  0  0  0  0  0  0  0  0  0
    4.8080   -8.0362   16.7101 C   0  0  0  0  0  0  0  0  0  0  0  0
   -1.2173   -3.9294   26.9717 O   0  0  0  0  0  0  0  0  0  0  0  0
   -1.0025   -5.0942   27.4586 C   0  0  0  0  0  0  0  0  0  0  0  0
    2.2474   -8.9123   16.6273 C   0  0  0  0  0  0  0  0  0  0  0  0
    4.4957   -9.2636   17.3041 C   0  0  0  0  0  0  0  0  0  0  0  0
   -1.8070   -5.6086   28.1920 O   0  0  0  0  0  0  0  0  0  0  0  0
   10.4296   -5.1799   28.3140 C   0  0  0  0  0  0  0  0  0  0  0  0
    6.6017   -5.9004   26.9187 C   0  0  0  0  0  0  0  0  0  0  0  0
    2.4761   -6.9940   26.4111 N   0  0  0  0  0  0  0  0  0  0  0  0
    9.1353   -5.4053   27.8239 C   0  0  0  0  0  0  0  0  0  0  0  0
    0.9922   -9.3232   16.5995 O   0  0  0  0  0  0  0  0  0  0  0  0
    1.5232   -7.6869   27.1182 C   0  0  0  0  0  0  0  0  0  0  0  0
    8.6878   -6.6715   27.7262 N   0  0  0  0  0  0  0  0  0  0  0  0
    6.9911   -8.2423   27.1808 C   0  0  0  0  0  0  0  0  0  0  0  0
    3.8436   -7.2758   16.0578 C   0  0  0  0  0  0  0  0  0  0  0  0
    3.1882   -9.7190   17.2566 C   0  0  0  0  0  0  0  0  0  0  0  0
    5.3488   -6.1737   26.5092 C   0  0  0  0  0  0  0  0  0  0  0  0
    7.4567   -6.9464   27.2858 C   0  0  0  0  0  0  0  0  0  0  0  0
    0.1921   -5.7592   27.1123 C   0  0  0  0  0  0  0  0  0  0  0  0
    3.5517   -7.7407   25.9711 C   0  0  0  0  0  0  0  0  0  0  0  0
  1  4  4  0
  1 22  4  0
  2 20  4  0
  2 27  4  0
  3 12  4  0
  3 23  4  0
  4 25  4  0
  4 28  1  0
  5  8  4  0
  5 17  4  0
  6  7  4  0
  6 16  4  0
  7 18  4  0
  8 27  4  0
  9 13  4  0
  9 23  4  0
 10 11  1  0
 11 14  2  0
 11 27  1  0
 12 19  1  0
 12 24  4  0
 13 24  4  0
 15 18  1  0
 16 25  4  0
 16 26  4  0
 17 20  4  0
 17 28  1  0
 18 21  4  0
 21 26  4  0
 22 26  4  0
M  END
$$$$

 Created by Python create_sdf_string function

 28 30  0  0  0  0  0  0  0  0999 V2000
    5.7174   -8.4529   26.7190 C   0  0  0  0  0  0  0  0  0  0  0  0
    0.3974   -7.0711   27.5149 C   0  0  0  0  0  0  0  0  0  0  0  0
    2.5338   -7.6891   16.0102 C   0  0  0  0  0  0  0  0  0  0  0  0
    4.8690   -7.4380   26.4151 C   0  0  0  0  0  0  0  0  0  0  0  0
    2.3021   -5.6726   26.0378 C   0  0  0  0  0  0  0  0  0  0  0  0
    7.0880   -4.6163   27.0010 C   0  0  0  0  0  0  0  0  0  0  0  0
    8.3117   -4.3698   27.4436 C   0  0  0  0  0  0  0  0  0  0  0  0
    1.1339   -5.0515   26.3541 C   0  0  0  0  0  0  0  0  0  0  0  0
    4.8080   -8.0362   16.7101 C   0  0  0  0  0  0  0  0  0  0  0  0
   -1.2173   -3.9294   26.9717 O   0  0  0  0  0  0  0  0  0  0  0  0
   -1.0025   -5.0942   27.4586 C   0  0  0  0  0  0  0  0  0  0  0  0
    2.2474   -8.9123   16.6273 C   0  0  0  0  0  0  0  0  0  0  0  0
    4.4957   -9.2636   17.3041 C   0  0  0  0  0  0  0  0  0  0  0  0
   -1.8070   -5.6086   28.1920 O   0  0  0  0  0  0  0  0  0  0  0  0
   10.4296   -5.1799   28.3140 C   0  0  0  0  0  0  0  0  0  0  0  0
    6.6017   -5.9004   26.9187 C   0  0  0  0  0  0  0  0  0  0  0  0
    2.4761   -6.9940   26.4111 N   0  0  0  0  0  0  0  0  0  0  0  0
    9.1353   -5.4053   27.8239 C   0  0  0  0  0  0  0  0  0  0  0  0
    0.9922   -9.3232   16.5995 O   0  0  0  0  0  0  0  0  0  0  0  0
    1.5232   -7.6869   27.1182 C   0  0  0  0  0  0  0  0  0  0  0  0
    8.6878   -6.6715   27.7262 N   0  0  0  0  0  0  0  0  0  0  0  0
    6.9911   -8.2423   27.1808 C   0  0  0  0  0  0  0  0  0  0  0  0
    3.8436   -7.2758   16.0578 C   0  0  0  0  0  0  0  0  0  0  0  0
    3.1882   -9.7190   17.2566 C   0  0  0  0  0  0  0  0  0  0  0  0
    5.3488   -6.1737   26.5092 C   0  0  0  0  0  0  0  0  0  0  0  0
    7.4567   -6.9464   27.2858 C   0  0  0  0  0  0  0  0  0  0  0  0
    0.1921   -5.7592   27.1123 C   0  0  0  0  0  0  0  0  0  0  0  0
    3.5517   -7.7407   25.9711 C   0  0  0  0  0  0  0  0  0  0  0  0
  1  4  4  0
  1 22  4  0
  2 20  4  0
  2 27  4  0
  3 12  4  0
  3 23  4  0
  4 25  4  0
  4 28  1  0
  5  8  4  0
  5 17  4  0
  6  7  4  0
  6 16  4  0
  7 18  4  0
  8 27  4  0
  9 13  4  0
  9 23  4  0
 10 11  1  0
 11 14  2  0
 11 27  1  0
 12 19  1  0
 12 24  4  0
 13 24  4  0
 15 18  1  0
 16 25  4  0
 16 26  4  0
 17 20  4  0
 17 28  1  0
 18 21  4  0
 21 26  4  0
 22 26  4  0
M  END
$$$$

 Created by Python create_sdf_string function

 28 30  0  0  0  0  0  0  0  0999 V2000
    5.7174   -8.4529   26.7190 C   0  0  0  0  0  0  0  0  0  0  0  0
    0.3974   -7.0711   27.5149 C   0  0  0  0  0  0  0  0  0  0  0  0
    2.5338   -7.6891   16.0102 C   0  0  0  0  0  0  0  0  0  0  0  0
    4.8690   -7.4380   26.4151 C   0  0  0  0  0  0  0  0  0  0  0  0
    2.3021   -5.6726   26.0378 C   0  0  0  0  0  0  0  0  0  0  0  0
    7.0880   -4.6163   27.0010 C   0  0  0  0  0  0  0  0  0  0  0  0
    8.3117   -4.3698   27.4436 C   0  0  0  0  0  0  0  0  0  0  0  0
    1.1339   -5.0515   26.3541 C   0  0  0  0  0  0  0  0  0  0  0  0
    4.8080   -8.0362   16.7101 C   0  0  0  0  0  0  0  0  0  0  0  0
   -1.2173   -3.9294   26.9717 O   0  0  0  0  0  0  0  0  0  0  0  0
   -1.0025   -5.0942   27.4586 C   0  0  0  0  0  0  0  0  0  0  0  0
    2.2474   -8.9123   16.6273 C   0  0  0  0  0  0  0  0  0  0  0  0
    4.4957   -9.2636   17.3041 C   0  0  0  0  0  0  0  0  0  0  0  0
   -1.8070   -5.6086   28.1920 O   0  0  0  0  0  0  0  0  0  0  0  0
   10.4296   -5.1799   28.3140 C   0  0  0  0  0  0  0  0  0  0  0  0
    6.6017   -5.9004   26.9187 C   0  0  0  0  0  0  0  0  0  0  0  0
    2.4761   -6.9940   26.4111 N   0  0  0  0  0  0  0  0  0  0  0  0
    9.1353   -5.4053   27.8239 C   0  0  0  0  0  0  0  0  0  0  0  0
    0.9922   -9.3232   16.5995 O   0  0  0  0  0  0  0  0  0  0  0  0
    1.5232   -7.6869   27.1182 C   0  0  0  0  0  0  0  0  0  0  0  0
    8.6878   -6.6715   27.7262 N   0  0  0  0  0  0  0  0  0  0  0  0
    6.9911   -8.2423   27.1808 C   0  0  0  0  0  0  0  0  0  0  0  0
    3.8436   -7.2758   16.0578 C   0  0  0  0  0  0  0  0  0  0  0  0
    3.1882   -9.7190   17.2566 C   0  0  0  0  0  0  0  0  0  0  0  0
    5.3488   -6.1737   26.5092 C   0  0  0  0  0  0  0  0  0  0  0  0
    7.4567   -6.9464   27.2858 C   0  0  0  0  0  0  0  0  0  0  0  0
    0.1921   -5.7592   27.1123 C   0  0  0  0  0  0  0  0  0  0  0  0
    3.5517   -7.7407   25.9711 C   0  0  0  0  0  0  0  0  0  0  0  0
  1  4  4  0
  1 22  4  0
  2 20  4  0
  2 27  4  0
  3 12  4  0
  3 23  4  0
  4 25  4  0
  4 28  1  0
  5  8  4  0
  5 17  4  0
  6  7  4  0
  6 16  4  0
  7 18  4  0
  8 27  4  0
  9 13  4  0
  9 23  4  0
 10 11  1  0
 11 14  2  0
 11 27  1  0
 12 19  1  0
 12 24  4  0
 13 24  4  0
 15 18  1  0
 16 25  4  0
 16 26  4  0
 17 20  4  0
 17 28  1  0
 18 21  4  0
 21 26  4  0
 22 26  4  0
M  END
$$$$

 Created by Python create_sdf_string function

 28 30  0  0  0  0  0  0  0  0999 V2000
    5.7174   -8.4529   26.7190 C   0  0  0  0  0  0  0  0  0  0  0  0
    0.3974   -7.0711   27.5149 C   0  0  0  0  0  0  0  0  0  0  0  0
    2.5338   -7.6891   16.0102 C   0  0  0  0  0  0  0  0  0  0  0  0
    4.8690   -7.4380   26.4151 C   0  0  0  0  0  0  0  0  0  0  0  0
    2.3021   -5.6726   26.0378 C   0  0  0  0  0  0  0  0  0  0  0  0
    7.0880   -4.6163   27.0010 C   0  0  0  0  0  0  0  0  0  0  0  0
    8.3117   -4.3698   27.4436 C   0  0  0  0  0  0  0  0  0  0  0  0
    1.1339   -5.0515   26.3541 C   0  0  0  0  0  0  0  0  0  0  0  0
    4.8080   -8.0362   16.7101 C   0  0  0  0  0  0  0  0  0  0  0  0
   -1.2173   -3.9294   26.9717 O   0  0  0  0  0  0  0  0  0  0  0  0
   -1.0025   -5.0942   27.4586 C   0  0  0  0  0  0  0  0  0  0  0  0
    2.2474   -8.9123   16.6273 C   0  0  0  0  0  0  0  0  0  0  0  0
    4.4957   -9.2636   17.3041 C   0  0  0  0  0  0  0  0  0  0  0  0
   -1.8070   -5.6086   28.1920 O   0  0  0  0  0  0  0  0  0  0  0  0
   10.4296   -5.1799   28.3140 C   0  0  0  0  0  0  0  0  0  0  0  0
    6.6017   -5.9004   26.9187 C   0  0  0  0  0  0  0  0  0  0  0  0
    2.4761   -6.9940   26.4111 N   0  0  0  0  0  0  0  0  0  0  0  0
    9.1353   -5.4053   27.8239 C   0  0  0  0  0  0  0  0  0  0  0  0
    0.9922   -9.3232   16.5995 O   0  0  0  0  0  0  0  0  0  0  0  0
    1.5232   -7.6869   27.1182 C   0  0  0  0  0  0  0  0  0  0  0  0
    8.6878   -6.6715   27.7262 N   0  0  0  0  0  0  0  0  0  0  0  0
    6.9911   -8.2423   27.1808 C   0  0  0  0  0  0  0  0  0  0  0  0
    3.8436   -7.2758   16.0578 C   0  0  0  0  0  0  0  0  0  0  0  0
    3.1882   -9.7190   17.2566 C   0  0  0  0  0  0  0  0  0  0  0  0
    5.3488   -6.1737   26.5092 C   0  0  0  0  0  0  0  0  0  0  0  0
    7.4567   -6.9464   27.2858 C   0  0  0  0  0  0  0  0  0  0  0  0
    0.1921   -5.7592   27.1123 C   0  0  0  0  0  0  0  0  0  0  0  0
    3.5517   -7.7407   25.9711 C   0  0  0  0  0  0  0  0  0  0  0  0
  1  4  4  0
  1 22  4  0
  2 20  4  0
  2 27  4  0
  3 12  4  0
  3 23  4  0
  4 25  4  0
  4 28  1  0
  5  8  4  0
  5 17  4  0
  6  7  4  0
  6 16  4  0
  7 18  4  0
  8 27  4  0
  9 13  4  0
  9 23  4  0
 10 11  1  0
 11 14  2  0
 11 27  1  0
 12 19  1  0
 12 24  4  0
 13 24  4  0
 15 18  1  0
 16 25  4  0
 16 26  4  0
 17 20  4  0
 17 28  1  0
 18 21  4  0
 21 26  4  0
 22 26  4  0
M  END
$$$$

 Created by Python create_sdf_string function

 28 30  0  0  0  0  0  0  0  0999 V2000
    5.7174   -8.4529   26.7190 C   0  0  0  0  0  0  0  0  0  0  0  0
    0.3974   -7.0711   27.5149 C   0  0  0  0  0  0  0  0  0  0  0  0
    2.5338   -7.6891   16.0102 C   0  0  0  0  0  0  0  0  0  0  0  0
    4.8690   -7.4380   26.4151 C   0  0  0  0  0  0  0  0  0  0  0  0
    2.3021   -5.6726   26.0378 C   0  0  0  0  0  0  0  0  0  0  0  0
    7.0880   -4.6163   27.0010 C   0  0  0  0  0  0  0  0  0  0  0  0
    8.3117   -4.3698   27.4436 C   0  0  0  0  0  0  0  0  0  0  0  0
    1.1339   -5.0515   26.3541 C   0  0  0  0  0  0  0  0  0  0  0  0
    4.8080   -8.0362   16.7101 C   0  0  0  0  0  0  0  0  0  0  0  0
   -1.2173   -3.9294   26.9717 O   0  0  0  0  0  0  0  0  0  0  0  0
   -1.0025   -5.0942   27.4586 C   0  0  0  0  0  0  0  0  0  0  0  0
    2.2474   -8.9123   16.6273 C   0  0  0  0  0  0  0  0  0  0  0  0
    4.4957   -9.2636   17.3041 C   0  0  0  0  0  0  0  0  0  0  0  0
   -1.8070   -5.6086   28.1920 O   0  0  0  0  0  0  0  0  0  0  0  0
   10.4296   -5.1799   28.3140 C   0  0  0  0  0  0  0  0  0  0  0  0
    6.6017   -5.9004   26.9187 C   0  0  0  0  0  0  0  0  0  0  0  0
    2.4761   -6.9940   26.4111 N   0  0  0  0  0  0  0  0  0  0  0  0
    9.1353   -5.4053   27.8239 C   0  0  0  0  0  0  0  0  0  0  0  0
    0.9922   -9.3232   16.5995 O   0  0  0  0  0  0  0  0  0  0  0  0
    1.5232   -7.6869   27.1182 C   0  0  0  0  0  0  0  0  0  0  0  0
    8.6878   -6.6715   27.7262 N   0  0  0  0  0  0  0  0  0  0  0  0
    6.9911   -8.2423   27.1808 C   0  0  0  0  0  0  0  0  0  0  0  0
    3.8436   -7.2758   16.0578 C   0  0  0  0  0  0  0  0  0  0  0  0
    3.1882   -9.7190   17.2566 C   0  0  0  0  0  0  0  0  0  0  0  0
    5.3488   -6.1737   26.5092 C   0  0  0  0  0  0  0  0  0  0  0  0
    7.4567   -6.9464   27.2858 C   0  0  0  0  0  0  0  0  0  0  0  0
    0.1921   -5.7592   27.1123 C   0  0  0  0  0  0  0  0  0  0  0  0
    3.5517   -7.7407   25.9711 C   0  0  0  0  0  0  0  0  0  0  0  0
  1  4  4  0
  1 22  4  0
  2 20  4  0
  2 27  4  0
  3 12  4  0
  3 23  4  0
  4 25  4  0
  4 28  1  0
  5  8  4  0
  5 17  4  0
  6  7  4  0
  6 16  4  0
  7 18  4  0
  8 27  4  0
  9 13  4  0
  9 23  4  0
 10 11  1  0
 11 14  2  0
 11 27  1  0
 12 19  1  0
 12 24  4  0
 13 24  4  0
 15 18  1  0
 16 25  4  0
 16 26  4  0
 17 20  4  0
 17 28  1  0
 18 21  4  0
 21 26  4  0
 22 26  4  0
M  END
$$$$

 Created by Python create_sdf_string function

 28 30  0  0  0  0  0  0  0  0999 V2000
    5.7174   -8.4529   26.7190 C   0  0  0  0  0  0  0  0  0  0  0  0
    0.3974   -7.0711   27.5149 C   0  0  0  0  0  0  0  0  0  0  0  0
    2.5338   -7.6891   16.0102 C   0  0  0  0  0  0  0  0  0  0  0  0
    4.8690   -7.4380   26.4151 C   0  0  0  0  0  0  0  0  0  0  0  0
    2.3021   -5.6726   26.0378 C   0  0  0  0  0  0  0  0  0  0  0  0
    7.0880   -4.6163   27.0010 C   0  0  0  0  0  0  0  0  0  0  0  0
    8.3117   -4.3698   27.4436 C   0  0  0  0  0  0  0  0  0  0  0  0
    1.1339   -5.0515   26.3541 C   0  0  0  0  0  0  0  0  0  0  0  0
    4.8080   -8.0362   16.7101 C   0  0  0  0  0  0  0  0  0  0  0  0
   -1.2173   -3.9294   26.9717 O   0  0  0  0  0  0  0  0  0  0  0  0
   -1.0025   -5.0942   27.4586 C   0  0  0  0  0  0  0  0  0  0  0  0
    2.2474   -8.9123   16.6273 C   0  0  0  0  0  0  0  0  0  0  0  0
    4.4957   -9.2636   17.3041 C   0  0  0  0  0  0  0  0  0  0  0  0
   -1.8070   -5.6086   28.1920 O   0  0  0  0  0  0  0  0  0  0  0  0
   10.4296   -5.1799   28.3140 C   0  0  0  0  0  0  0  0  0  0  0  0
    6.6017   -5.9004   26.9187 C   0  0  0  0  0  0  0  0  0  0  0  0
    2.4761   -6.9940   26.4111 N   0  0  0  0  0  0  0  0  0  0  0  0
    9.1353   -5.4053   27.8239 C   0  0  0  0  0  0  0  0  0  0  0  0
    0.9922   -9.3232   16.5995 O   0  0  0  0  0  0  0  0  0  0  0  0
    1.5232   -7.6869   27.1182 C   0  0  0  0  0  0  0  0  0  0  0  0
    8.6878   -6.6715   27.7262 N   0  0  0  0  0  0  0  0  0  0  0  0
    6.9911   -8.2423   27.1808 C   0  0  0  0  0  0  0  0  0  0  0  0
    3.8436   -7.2758   16.0578 C   0  0  0  0  0  0  0  0  0  0  0  0
    3.1882   -9.7190   17.2566 C   0  0  0  0  0  0  0  0  0  0  0  0
    5.3488   -6.1737   26.5092 C   0  0  0  0  0  0  0  0  0  0  0  0
    7.4567   -6.9464   27.2858 C   0  0  0  0  0  0  0  0  0  0  0  0
    0.1921   -5.7592   27.1123 C   0  0  0  0  0  0  0  0  0  0  0  0
    3.5517   -7.7407   25.9711 C   0  0  0  0  0  0  0  0  0  0  0  0
  1  4  4  0
  1 22  4  0
  2 20  4  0
  2 27  4  0
  3 12  4  0
  3 23  4  0
  4 25  4  0
  4 28  1  0
  5  8  4  0
  5 17  4  0
  6  7  4  0
  6 16  4  0
  7 18  4  0
  8 27  4  0
  9 13  4  0
  9 23  4  0
 10 11  1  0
 11 14  2  0
 11 27  1  0
 12 19  1  0
 12 24  4  0
 13 24  4  0
 15 18  1  0
 16 25  4  0
 16 26  4  0
 17 20  4  0
 17 28  1  0
 18 21  4  0
 21 26  4  0
 22 26  4  0
M  END
$$$$

 Created by Python create_sdf_string function

 28 30  0  0  0  0  0  0  0  0999 V2000
    5.7174   -8.4529   26.7190 C   0  0  0  0  0  0  0  0  0  0  0  0
    0.3974   -7.0711   27.5149 C   0  0  0  0  0  0  0  0  0  0  0  0
    2.5338   -7.6891   16.0102 C   0  0  0  0  0  0  0  0  0  0  0  0
    4.8690   -7.4380   26.4151 C   0  0  0  0  0  0  0  0  0  0  0  0
    2.3021   -5.6726   26.0378 C   0  0  0  0  0  0  0  0  0  0  0  0
    7.0880   -4.6163   27.0010 C   0  0  0  0  0  0  0  0  0  0  0  0
    8.3117   -4.3698   27.4436 C   0  0  0  0  0  0  0  0  0  0  0  0
    1.1339   -5.0515   26.3541 C   0  0  0  0  0  0  0  0  0  0  0  0
    4.8080   -8.0362   16.7101 C   0  0  0  0  0  0  0  0  0  0  0  0
   -1.2173   -3.9294   26.9717 O   0  0  0  0  0  0  0  0  0  0  0  0
   -1.0025   -5.0942   27.4586 C   0  0  0  0  0  0  0  0  0  0  0  0
    2.2474   -8.9123   16.6273 C   0  0  0  0  0  0  0  0  0  0  0  0
    4.4957   -9.2636   17.3041 C   0  0  0  0  0  0  0  0  0  0  0  0
   -1.8070   -5.6086   28.1920 O   0  0  0  0  0  0  0  0  0  0  0  0
   10.4296   -5.1799   28.3140 C   0  0  0  0  0  0  0  0  0  0  0  0
    6.6017   -5.9004   26.9187 C   0  0  0  0  0  0  0  0  0  0  0  0
    2.4761   -6.9940   26.4111 N   0  0  0  0  0  0  0  0  0  0  0  0
    9.1353   -5.4053   27.8239 C   0  0  0  0  0  0  0  0  0  0  0  0
    0.9922   -9.3232   16.5995 O   0  0  0  0  0  0  0  0  0  0  0  0
    1.5232   -7.6869   27.1182 C   0  0  0  0  0  0  0  0  0  0  0  0
    8.6878   -6.6715   27.7262 N   0  0  0  0  0  0  0  0  0  0  0  0
    6.9911   -8.2423   27.1808 C   0  0  0  0  0  0  0  0  0  0  0  0
    3.8436   -7.2758   16.0578 C   0  0  0  0  0  0  0  0  0  0  0  0
    3.1882   -9.7190   17.2566 C   0  0  0  0  0  0  0  0  0  0  0  0
    5.3488   -6.1737   26.5092 C   0  0  0  0  0  0  0  0  0  0  0  0
    7.4567   -6.9464   27.2858 C   0  0  0  0  0  0  0  0  0  0  0  0
    0.1921   -5.7592   27.1123 C   0  0  0  0  0  0  0  0  0  0  0  0
    3.5517   -7.7407   25.9711 C   0  0  0  0  0  0  0  0  0  0  0  0
  1  4  4  0
  1 22  4  0
  2 20  4  0
  2 27  4  0
  3 12  4  0
  3 23  4  0
  4 25  4  0
  4 28  1  0
  5  8  4  0
  5 17  4  0
  6  7  4  0
  6 16  4  0
  7 18  4  0
  8 27  4  0
  9 13  4  0
  9 23  4  0
 10 11  1  0
 11 14  2  0
 11 27  1  0
 12 19  1  0
 12 24  4  0
 13 24  4  0
 15 18  1  0
 16 25  4  0
 16 26  4  0
 17 20  4  0
 17 28  1  0
 18 21  4  0
 21 26  4  0
 22 26  4  0
M  END
$$$$

 Created by Python create_sdf_string function

 28 30  0  0  0  0  0  0  0  0999 V2000
    5.7174   -8.4529   26.7190 C   0  0  0  0  0  0  0  0  0  0  0  0
    0.3974   -7.0711   27.5149 C   0  0  0  0  0  0  0  0  0  0  0  0
    2.5338   -7.6891   16.0102 C   0  0  0  0  0  0  0  0  0  0  0  0
    4.8690   -7.4380   26.4151 C   0  0  0  0  0  0  0  0  0  0  0  0
    2.3021   -5.6726   26.0378 C   0  0  0  0  0  0  0  0  0  0  0  0
    7.0880   -4.6163   27.0010 C   0  0  0  0  0  0  0  0  0  0  0  0
    8.3117   -4.3698   27.4436 C   0  0  0  0  0  0  0  0  0  0  0  0
    1.1339   -5.0515   26.3541 C   0  0  0  0  0  0  0  0  0  0  0  0
    4.8080   -8.0362   16.7101 C   0  0  0  0  0  0  0  0  0  0  0  0
   -1.2173   -3.9294   26.9717 O   0  0  0  0  0  0  0  0  0  0  0  0
   -1.0025   -5.0942   27.4586 C   0  0  0  0  0  0  0  0  0  0  0  0
    2.2474   -8.9123   16.6273 C   0  0  0  0  0  0  0  0  0  0  0  0
    4.4957   -9.2636   17.3041 C   0  0  0  0  0  0  0  0  0  0  0  0
   -1.8070   -5.6086   28.1920 O   0  0  0  0  0  0  0  0  0  0  0  0
   10.4296   -5.1799   28.3140 C   0  0  0  0  0  0  0  0  0  0  0  0
    6.6017   -5.9004   26.9187 C   0  0  0  0  0  0  0  0  0  0  0  0
    2.4761   -6.9940   26.4111 N   0  0  0  0  0  0  0  0  0  0  0  0
    9.1353   -5.4053   27.8239 C   0  0  0  0  0  0  0  0  0  0  0  0
    0.9922   -9.3232   16.5995 O   0  0  0  0  0  0  0  0  0  0  0  0
    1.5232   -7.6869   27.1182 C   0  0  0  0  0  0  0  0  0  0  0  0
    8.6878   -6.6715   27.7262 N   0  0  0  0  0  0  0  0  0  0  0  0
    6.9911   -8.2423   27.1808 C   0  0  0  0  0  0  0  0  0  0  0  0
    3.8436   -7.2758   16.0578 C   0  0  0  0  0  0  0  0  0  0  0  0
    3.1882   -9.7190   17.2566 C   0  0  0  0  0  0  0  0  0  0  0  0
    5.3488   -6.1737   26.5092 C   0  0  0  0  0  0  0  0  0  0  0  0
    7.4567   -6.9464   27.2858 C   0  0  0  0  0  0  0  0  0  0  0  0
    0.1921   -5.7592   27.1123 C   0  0  0  0  0  0  0  0  0  0  0  0
    3.5517   -7.7407   25.9711 C   0  0  0  0  0  0  0  0  0  0  0  0
  1  4  4  0
  1 22  4  0
  2 20  4  0
  2 27  4  0
  3 12  4  0
  3 23  4  0
  4 25  4  0
  4 28  1  0
  5  8  4  0
  5 17  4  0
  6  7  4  0
  6 16  4  0
  7 18  4  0
  8 27  4  0
  9 13  4  0
  9 23  4  0
 10 11  1  0
 11 14  2  0
 11 27  1  0
 12 19  1  0
 12 24  4  0
 13 24  4  0
 15 18  1  0
 16 25  4  0
 16 26  4  0
 17 20  4  0
 17 28  1  0
 18 21  4  0
 21 26  4  0
 22 26  4  0
M  END
$$$$

 Created by Python create_sdf_string function

 28 30  0  0  0  0  0  0  0  0999 V2000
    5.7174   -8.4529   26.7190 C   0  0  0  0  0  0  0  0  0  0  0  0
    0.3974   -7.0711   27.5149 C   0  0  0  0  0  0  0  0  0  0  0  0
    2.5338   -7.6891   16.0102 C   0  0  0  0  0  0  0  0  0  0  0  0
    4.8690   -7.4380   26.4151 C   0  0  0  0  0  0  0  0  0  0  0  0
    2.3021   -5.6726   26.0378 C   0  0  0  0  0  0  0  0  0  0  0  0
    7.0880   -4.6163   27.0010 C   0  0  0  0  0  0  0  0  0  0  0  0
    8.3117   -4.3698   27.4436 C   0  0  0  0  0  0  0  0  0  0  0  0
    1.1339   -5.0515   26.3541 C   0  0  0  0  0  0  0  0  0  0  0  0
    4.8080   -8.0362   16.7101 C   0  0  0  0  0  0  0  0  0  0  0  0
   -1.2173   -3.9294   26.9717 O   0  0  0  0  0  0  0  0  0  0  0  0
   -1.0025   -5.0942   27.4586 C   0  0  0  0  0  0  0  0  0  0  0  0
    2.2474   -8.9123   16.6273 C   0  0  0  0  0  0  0  0  0  0  0  0
    4.4957   -9.2636   17.3041 C   0  0  0  0  0  0  0  0  0  0  0  0
   -1.8070   -5.6086   28.1920 O   0  0  0  0  0  0  0  0  0  0  0  0
   10.4296   -5.1799   28.3140 C   0  0  0  0  0  0  0  0  0  0  0  0
    6.6017   -5.9004   26.9187 C   0  0  0  0  0  0  0  0  0  0  0  0
    2.4761   -6.9940   26.4111 N   0  0  0  0  0  0  0  0  0  0  0  0
    9.1353   -5.4053   27.8239 C   0  0  0  0  0  0  0  0  0  0  0  0
    0.9922   -9.3232   16.5995 O   0  0  0  0  0  0  0  0  0  0  0  0
    1.5232   -7.6869   27.1182 C   0  0  0  0  0  0  0  0  0  0  0  0
    8.6878   -6.6715   27.7262 N   0  0  0  0  0  0  0  0  0  0  0  0
    6.9911   -8.2423   27.1808 C   0  0  0  0  0  0  0  0  0  0  0  0
    3.8436   -7.2758   16.0578 C   0  0  0  0  0  0  0  0  0  0  0  0
    3.1882   -9.7190   17.2566 C   0  0  0  0  0  0  0  0  0  0  0  0
    5.3488   -6.1737   26.5092 C   0  0  0  0  0  0  0  0  0  0  0  0
    7.4567   -6.9464   27.2858 C   0  0  0  0  0  0  0  0  0  0  0  0
    0.1921   -5.7592   27.1123 C   0  0  0  0  0  0  0  0  0  0  0  0
    3.5517   -7.7407   25.9711 C   0  0  0  0  0  0  0  0  0  0  0  0
  1  4  4  0
  1 22  4  0
  2 20  4  0
  2 27  4  0
  3 12  4  0
  3 23  4  0
  4 25  4  0
  4 28  1  0
  5  8  4  0
  5 17  4  0
  6  7  4  0
  6 16  4  0
  7 18  4  0
  8 27  4  0
  9 13  4  0
  9 23  4  0
 10 11  1  0
 11 14  2  0
 11 27  1  0
 12 19  1  0
 12 24  4  0
 13 24  4  0
 15 18  1  0
 16 25  4  0
 16 26  4  0
 17 20  4  0
 17 28  1  0
 18 21  4  0
 21 26  4  0
 22 26  4  0
M  END
$$$$

 Created by Python create_sdf_string function

 28 30  0  0  0  0  0  0  0  0999 V2000
    5.7174   -8.4529   26.7190 C   0  0  0  0  0  0  0  0  0  0  0  0
    0.3974   -7.0711   27.5149 C   0  0  0  0  0  0  0  0  0  0  0  0
    2.5338   -7.6891   16.0102 C   0  0  0  0  0  0  0  0  0  0  0  0
    4.8690   -7.4380   26.4151 C   0  0  0  0  0  0  0  0  0  0  0  0
    2.3021   -5.6726   26.0378 C   0  0  0  0  0  0  0  0  0  0  0  0
    7.0880   -4.6163   27.0010 C   0  0  0  0  0  0  0  0  0  0  0  0
    8.3117   -4.3698   27.4436 C   0  0  0  0  0  0  0  0  0  0  0  0
    1.1339   -5.0515   26.3541 C   0  0  0  0  0  0  0  0  0  0  0  0
    4.8080   -8.0362   16.7101 C   0  0  0  0  0  0  0  0  0  0  0  0
   -1.2173   -3.9294   26.9717 O   0  0  0  0  0  0  0  0  0  0  0  0
   -1.0025   -5.0942   27.4586 C   0  0  0  0  0  0  0  0  0  0  0  0
    2.2474   -8.9123   16.6273 C   0  0  0  0  0  0  0  0  0  0  0  0
    4.4957   -9.2636   17.3041 C   0  0  0  0  0  0  0  0  0  0  0  0
   -1.8070   -5.6086   28.1920 O   0  0  0  0  0  0  0  0  0  0  0  0
   10.4296   -5.1799   28.3140 C   0  0  0  0  0  0  0  0  0  0  0  0
    6.6017   -5.9004   26.9187 C   0  0  0  0  0  0  0  0  0  0  0  0
    2.4761   -6.9940   26.4111 N   0  0  0  0  0  0  0  0  0  0  0  0
    9.1353   -5.4053   27.8239 C   0  0  0  0  0  0  0  0  0  0  0  0
    0.9922   -9.3232   16.5995 O   0  0  0  0  0  0  0  0  0  0  0  0
    1.5232   -7.6869   27.1182 C   0  0  0  0  0  0  0  0  0  0  0  0
    8.6878   -6.6715   27.7262 N   0  0  0  0  0  0  0  0  0  0  0  0
    6.9911   -8.2423   27.1808 C   0  0  0  0  0  0  0  0  0  0  0  0
    3.8436   -7.2758   16.0578 C   0  0  0  0  0  0  0  0  0  0  0  0
    3.1882   -9.7190   17.2566 C   0  0  0  0  0  0  0  0  0  0  0  0
    5.3488   -6.1737   26.5092 C   0  0  0  0  0  0  0  0  0  0  0  0
    7.4567   -6.9464   27.2858 C   0  0  0  0  0  0  0  0  0  0  0  0
    0.1921   -5.7592   27.1123 C   0  0  0  0  0  0  0  0  0  0  0  0
    3.5517   -7.7407   25.9711 C   0  0  0  0  0  0  0  0  0  0  0  0
  1  4  4  0
  1 22  4  0
  2 20  4  0
  2 27  4  0
  3 12  4  0
  3 23  4  0
  4 25  4  0
  4 28  1  0
  5  8  4  0
  5 17  4  0
  6  7  4  0
  6 16  4  0
  7 18  4  0
  8 27  4  0
  9 13  4  0
  9 23  4  0
 10 11  1  0
 11 14  2  0
 11 27  1  0
 12 19  1  0
 12 24  4  0
 13 24  4  0
 15 18  1  0
 16 25  4  0
 16 26  4  0
 17 20  4  0
 17 28  1  0
 18 21  4  0
 21 26  4  0
 22 26  4  0
M  END
$$$$

 Created by Python create_sdf_string function

 28 30  0  0  0  0  0  0  0  0999 V2000
    5.7174   -8.4529   26.7190 C   0  0  0  0  0  0  0  0  0  0  0  0
    0.3974   -7.0711   27.5149 C   0  0  0  0  0  0  0  0  0  0  0  0
    2.5338   -7.6891   16.0102 C   0  0  0  0  0  0  0  0  0  0  0  0
    4.8690   -7.4380   26.4151 C   0  0  0  0  0  0  0  0  0  0  0  0
    2.3021   -5.6726   26.0378 C   0  0  0  0  0  0  0  0  0  0  0  0
    7.0880   -4.6163   27.0010 C   0  0  0  0  0  0  0  0  0  0  0  0
    8.3117   -4.3698   27.4436 C   0  0  0  0  0  0  0  0  0  0  0  0
    1.1339   -5.0515   26.3541 C   0  0  0  0  0  0  0  0  0  0  0  0
    4.8080   -8.0362   16.7101 C   0  0  0  0  0  0  0  0  0  0  0  0
   -1.2173   -3.9294   26.9717 O   0  0  0  0  0  0  0  0  0  0  0  0
   -1.0025   -5.0942   27.4586 C   0  0  0  0  0  0  0  0  0  0  0  0
    2.2474   -8.9123   16.6273 C   0  0  0  0  0  0  0  0  0  0  0  0
    4.4957   -9.2636   17.3041 C   0  0  0  0  0  0  0  0  0  0  0  0
   -1.8070   -5.6086   28.1920 O   0  0  0  0  0  0  0  0  0  0  0  0
   10.4296   -5.1799   28.3140 C   0  0  0  0  0  0  0  0  0  0  0  0
    6.6017   -5.9004   26.9187 C   0  0  0  0  0  0  0  0  0  0  0  0
    2.4761   -6.9940   26.4111 N   0  0  0  0  0  0  0  0  0  0  0  0
    9.1353   -5.4053   27.8239 C   0  0  0  0  0  0  0  0  0  0  0  0
    0.9922   -9.3232   16.5995 O   0  0  0  0  0  0  0  0  0  0  0  0
    1.5232   -7.6869   27.1182 C   0  0  0  0  0  0  0  0  0  0  0  0
    8.6878   -6.6715   27.7262 N   0  0  0  0  0  0  0  0  0  0  0  0
    6.9911   -8.2423   27.1808 C   0  0  0  0  0  0  0  0  0  0  0  0
    3.8436   -7.2758   16.0578 C   0  0  0  0  0  0  0  0  0  0  0  0
    3.1882   -9.7190   17.2566 C   0  0  0  0  0  0  0  0  0  0  0  0
    5.3488   -6.1737   26.5092 C   0  0  0  0  0  0  0  0  0  0  0  0
    7.4567   -6.9464   27.2858 C   0  0  0  0  0  0  0  0  0  0  0  0
    0.1921   -5.7592   27.1123 C   0  0  0  0  0  0  0  0  0  0  0  0
    3.5517   -7.7407   25.9711 C   0  0  0  0  0  0  0  0  0  0  0  0
  1  4  4  0
  1 22  4  0
  2 20  4  0
  2 27  4  0
  3 12  4  0
  3 23  4  0
  4 25  4  0
  4 28  1  0
  5  8  4  0
  5 17  4  0
  6  7  4  0
  6 16  4  0
  7 18  4  0
  8 27  4  0
  9 13  4  0
  9 23  4  0
 10 11  1  0
 11 14  2  0
 11 27  1  0
 12 19  1  0
 12 24  4  0
 13 24  4  0
 15 18  1  0
 16 25  4  0
 16 26  4  0
 17 20  4  0
 17 28  1  0
 18 21  4  0
 21 26  4  0
 22 26  4  0
M  END
$$$$

 Created by Python create_sdf_string function

 28 30  0  0  0  0  0  0  0  0999 V2000
    5.7174   -8.4529   26.7190 C   0  0  0  0  0  0  0  0  0  0  0  0
    0.3974   -7.0711   27.5149 C   0  0  0  0  0  0  0  0  0  0  0  0
    2.5338   -7.6891   16.0102 C   0  0  0  0  0  0  0  0  0  0  0  0
    4.8690   -7.4380   26.4151 C   0  0  0  0  0  0  0  0  0  0  0  0
    2.3021   -5.6726   26.0378 C   0  0  0  0  0  0  0  0  0  0  0  0
    7.0880   -4.6163   27.0010 C   0  0  0  0  0  0  0  0  0  0  0  0
    8.3117   -4.3698   27.4436 C   0  0  0  0  0  0  0  0  0  0  0  0
    1.1339   -5.0515   26.3541 C   0  0  0  0  0  0  0  0  0  0  0  0
    4.8080   -8.0362   16.7101 C   0  0  0  0  0  0  0  0  0  0  0  0
   -1.2173   -3.9294   26.9717 O   0  0  0  0  0  0  0  0  0  0  0  0
   -1.0025   -5.0942   27.4586 C   0  0  0  0  0  0  0  0  0  0  0  0
    2.2474   -8.9123   16.6273 C   0  0  0  0  0  0  0  0  0  0  0  0
    4.4957   -9.2636   17.3041 C   0  0  0  0  0  0  0  0  0  0  0  0
   -1.8070   -5.6086   28.1920 O   0  0  0  0  0  0  0  0  0  0  0  0
   10.4296   -5.1799   28.3140 C   0  0  0  0  0  0  0  0  0  0  0  0
    6.6017   -5.9004   26.9187 C   0  0  0  0  0  0  0  0  0  0  0  0
    2.4761   -6.9940   26.4111 N   0  0  0  0  0  0  0  0  0  0  0  0
    9.1353   -5.4053   27.8239 C   0  0  0  0  0  0  0  0  0  0  0  0
    0.9922   -9.3232   16.5995 O   0  0  0  0  0  0  0  0  0  0  0  0
    1.5232   -7.6869   27.1182 C   0  0  0  0  0  0  0  0  0  0  0  0
    8.6878   -6.6715   27.7262 N   0  0  0  0  0  0  0  0  0  0  0  0
    6.9911   -8.2423   27.1808 C   0  0  0  0  0  0  0  0  0  0  0  0
    3.8436   -7.2758   16.0578 C   0  0  0  0  0  0  0  0  0  0  0  0
    3.1882   -9.7190   17.2566 C   0  0  0  0  0  0  0  0  0  0  0  0
    5.3488   -6.1737   26.5092 C   0  0  0  0  0  0  0  0  0  0  0  0
    7.4567   -6.9464   27.2858 C   0  0  0  0  0  0  0  0  0  0  0  0
    0.1921   -5.7592   27.1123 C   0  0  0  0  0  0  0  0  0  0  0  0
    3.5517   -7.7407   25.9711 C   0  0  0  0  0  0  0  0  0  0  0  0
  1  4  4  0
  1 22  4  0
  2 20  4  0
  2 27  4  0
  3 12  4  0
  3 23  4  0
  4 25  4  0
  4 28  1  0
  5  8  4  0
  5 17  4  0
  6  7  4  0
  6 16  4  0
  7 18  4  0
  8 27  4  0
  9 13  4  0
  9 23  4  0
 10 11  1  0
 11 14  2  0
 11 27  1  0
 12 19  1  0
 12 24  4  0
 13 24  4  0
 15 18  1  0
 16 25  4  0
 16 26  4  0
 17 20  4  0
 17 28  1  0
 18 21  4  0
 21 26  4  0
 22 26  4  0
M  END
$$$$

 Created by Python create_sdf_string function

 28 30  0  0  0  0  0  0  0  0999 V2000
    5.7174   -8.4529   26.7190 C   0  0  0  0  0  0  0  0  0  0  0  0
    0.3974   -7.0711   27.5149 C   0  0  0  0  0  0  0  0  0  0  0  0
    2.5338   -7.6891   16.0102 C   0  0  0  0  0  0  0  0  0  0  0  0
    4.8690   -7.4380   26.4151 C   0  0  0  0  0  0  0  0  0  0  0  0
    2.3021   -5.6726   26.0378 C   0  0  0  0  0  0  0  0  0  0  0  0
    7.0880   -4.6163   27.0010 C   0  0  0  0  0  0  0  0  0  0  0  0
    8.3117   -4.3698   27.4436 C   0  0  0  0  0  0  0  0  0  0  0  0
    1.1339   -5.0515   26.3541 C   0  0  0  0  0  0  0  0  0  0  0  0
    4.8080   -8.0362   16.7101 C   0  0  0  0  0  0  0  0  0  0  0  0
   -1.2173   -3.9294   26.9717 O   0  0  0  0  0  0  0  0  0  0  0  0
   -1.0025   -5.0942   27.4586 C   0  0  0  0  0  0  0  0  0  0  0  0
    2.2474   -8.9123   16.6273 C   0  0  0  0  0  0  0  0  0  0  0  0
    4.4957   -9.2636   17.3041 C   0  0  0  0  0  0  0  0  0  0  0  0
   -1.8070   -5.6086   28.1920 O   0  0  0  0  0  0  0  0  0  0  0  0
   10.4296   -5.1799   28.3140 C   0  0  0  0  0  0  0  0  0  0  0  0
    6.6017   -5.9004   26.9187 C   0  0  0  0  0  0  0  0  0  0  0  0
    2.4761   -6.9940   26.4111 N   0  0  0  0  0  0  0  0  0  0  0  0
    9.1353   -5.4053   27.8239 C   0  0  0  0  0  0  0  0  0  0  0  0
    0.9922   -9.3232   16.5995 O   0  0  0  0  0  0  0  0  0  0  0  0
    1.5232   -7.6869   27.1182 C   0  0  0  0  0  0  0  0  0  0  0  0
    8.6878   -6.6715   27.7262 N   0  0  0  0  0  0  0  0  0  0  0  0
    6.9911   -8.2423   27.1808 C   0  0  0  0  0  0  0  0  0  0  0  0
    3.8436   -7.2758   16.0578 C   0  0  0  0  0  0  0  0  0  0  0  0
    3.1882   -9.7190   17.2566 C   0  0  0  0  0  0  0  0  0  0  0  0
    5.3488   -6.1737   26.5092 C   0  0  0  0  0  0  0  0  0  0  0  0
    7.4567   -6.9464   27.2858 C   0  0  0  0  0  0  0  0  0  0  0  0
    0.1921   -5.7592   27.1123 C   0  0  0  0  0  0  0  0  0  0  0  0
    3.5517   -7.7407   25.9711 C   0  0  0  0  0  0  0  0  0  0  0  0
  1  4  4  0
  1 22  4  0
  2 20  4  0
  2 27  4  0
  3 12  4  0
  3 23  4  0
  4 25  4  0
  4 28  1  0
  5  8  4  0
  5 17  4  0
  6  7  4  0
  6 16  4  0
  7 18  4  0
  8 27  4  0
  9 13  4  0
  9 23  4  0
 10 11  1  0
 11 14  2  0
 11 27  1  0
 12 19  1  0
 12 24  4  0
 13 24  4  0
 15 18  1  0
 16 25  4  0
 16 26  4  0
 17 20  4  0
 17 28  1  0
 18 21  4  0
 21 26  4  0
 22 26  4  0
M  END
$$$$

 Created by Python create_sdf_string function

 28 30  0  0  0  0  0  0  0  0999 V2000
    5.7174   -8.4529   26.7190 C   0  0  0  0  0  0  0  0  0  0  0  0
    0.3974   -7.0711   27.5149 C   0  0  0  0  0  0  0  0  0  0  0  0
    2.5338   -7.6891   16.0102 C   0  0  0  0  0  0  0  0  0  0  0  0
    4.8690   -7.4380   26.4151 C   0  0  0  0  0  0  0  0  0  0  0  0
    2.3021   -5.6726   26.0378 C   0  0  0  0  0  0  0  0  0  0  0  0
    7.0880   -4.6163   27.0010 C   0  0  0  0  0  0  0  0  0  0  0  0
    8.3117   -4.3698   27.4436 C   0  0  0  0  0  0  0  0  0  0  0  0
    1.1339   -5.0515   26.3541 C   0  0  0  0  0  0  0  0  0  0  0  0
    4.8080   -8.0362   16.7101 C   0  0  0  0  0  0  0  0  0  0  0  0
   -1.2173   -3.9294   26.9717 O   0  0  0  0  0  0  0  0  0  0  0  0
   -1.0025   -5.0942   27.4586 C   0  0  0  0  0  0  0  0  0  0  0  0
    2.2474   -8.9123   16.6273 C   0  0  0  0  0  0  0  0  0  0  0  0
    4.4957   -9.2636   17.3041 C   0  0  0  0  0  0  0  0  0  0  0  0
   -1.8070   -5.6086   28.1920 O   0  0  0  0  0  0  0  0  0  0  0  0
   10.4296   -5.1799   28.3140 C   0  0  0  0  0  0  0  0  0  0  0  0
    6.6017   -5.9004   26.9187 C   0  0  0  0  0  0  0  0  0  0  0  0
    2.4761   -6.9940   26.4111 N   0  0  0  0  0  0  0  0  0  0  0  0
    9.1353   -5.4053   27.8239 C   0  0  0  0  0  0  0  0  0  0  0  0
    0.9922   -9.3232   16.5995 O   0  0  0  0  0  0  0  0  0  0  0  0
    1.5232   -7.6869   27.1182 C   0  0  0  0  0  0  0  0  0  0  0  0
    8.6878   -6.6715   27.7262 N   0  0  0  0  0  0  0  0  0  0  0  0
    6.9911   -8.2423   27.1808 C   0  0  0  0  0  0  0  0  0  0  0  0
    3.8436   -7.2758   16.0578 C   0  0  0  0  0  0  0  0  0  0  0  0
    3.1882   -9.7190   17.2566 C   0  0  0  0  0  0  0  0  0  0  0  0
    5.3488   -6.1737   26.5092 C   0  0  0  0  0  0  0  0  0  0  0  0
    7.4567   -6.9464   27.2858 C   0  0  0  0  0  0  0  0  0  0  0  0
    0.1921   -5.7592   27.1123 C   0  0  0  0  0  0  0  0  0  0  0  0
    3.5517   -7.7407   25.9711 C   0  0  0  0  0  0  0  0  0  0  0  0
  1  4  4  0
  1 22  4  0
  2 20  4  0
  2 27  4  0
  3 12  4  0
  3 23  4  0
  4 25  4  0
  4 28  1  0
  5  8  4  0
  5 17  4  0
  6  7  4  0
  6 16  4  0
  7 18  4  0
  8 27  4  0
  9 13  4  0
  9 23  4  0
 10 11  1  0
 11 14  2  0
 11 27  1  0
 12 19  1  0
 12 24  4  0
 13 24  4  0
 15 18  1  0
 16 25  4  0
 16 26  4  0
 17 20  4  0
 17 28  1  0
 18 21  4  0
 21 26  4  0
 22 26  4  0
M  END
$$$$

 Created by Python create_sdf_string function

 28 30  0  0  0  0  0  0  0  0999 V2000
    5.7174   -8.4529   26.7190 C   0  0  0  0  0  0  0  0  0  0  0  0
    0.3974   -7.0711   27.5149 C   0  0  0  0  0  0  0  0  0  0  0  0
    2.5338   -7.6891   16.0102 C   0  0  0  0  0  0  0  0  0  0  0  0
    4.8690   -7.4380   26.4151 C   0  0  0  0  0  0  0  0  0  0  0  0
    2.3021   -5.6726   26.0378 C   0  0  0  0  0  0  0  0  0  0  0  0
    7.0880   -4.6163   27.0010 C   0  0  0  0  0  0  0  0  0  0  0  0
    8.3117   -4.3698   27.4436 C   0  0  0  0  0  0  0  0  0  0  0  0
    1.1339   -5.0515   26.3541 C   0  0  0  0  0  0  0  0  0  0  0  0
    4.8080   -8.0362   16.7101 C   0  0  0  0  0  0  0  0  0  0  0  0
   -1.2173   -3.9294   26.9717 O   0  0  0  0  0  0  0  0  0  0  0  0
   -1.0025   -5.0942   27.4586 C   0  0  0  0  0  0  0  0  0  0  0  0
    2.2474   -8.9123   16.6273 C   0  0  0  0  0  0  0  0  0  0  0  0
    4.4957   -9.2636   17.3041 C   0  0  0  0  0  0  0  0  0  0  0  0
   -1.8070   -5.6086   28.1920 O   0  0  0  0  0  0  0  0  0  0  0  0
   10.4296   -5.1799   28.3140 C   0  0  0  0  0  0  0  0  0  0  0  0
    6.6017   -5.9004   26.9187 C   0  0  0  0  0  0  0  0  0  0  0  0
    2.4761   -6.9940   26.4111 N   0  0  0  0  0  0  0  0  0  0  0  0
    9.1353   -5.4053   27.8239 C   0  0  0  0  0  0  0  0  0  0  0  0
    0.9922   -9.3232   16.5995 O   0  0  0  0  0  0  0  0  0  0  0  0
    1.5232   -7.6869   27.1182 C   0  0  0  0  0  0  0  0  0  0  0  0
    8.6878   -6.6715   27.7262 N   0  0  0  0  0  0  0  0  0  0  0  0
    6.9911   -8.2423   27.1808 C   0  0  0  0  0  0  0  0  0  0  0  0
    3.8436   -7.2758   16.0578 C   0  0  0  0  0  0  0  0  0  0  0  0
    3.1882   -9.7190   17.2566 C   0  0  0  0  0  0  0  0  0  0  0  0
    5.3488   -6.1737   26.5092 C   0  0  0  0  0  0  0  0  0  0  0  0
    7.4567   -6.9464   27.2858 C   0  0  0  0  0  0  0  0  0  0  0  0
    0.1921   -5.7592   27.1123 C   0  0  0  0  0  0  0  0  0  0  0  0
    3.5517   -7.7407   25.9711 C   0  0  0  0  0  0  0  0  0  0  0  0
  1  4  4  0
  1 22  4  0
  2 20  4  0
  2 27  4  0
  3 12  4  0
  3 23  4  0
  4 25  4  0
  4 28  1  0
  5  8  4  0
  5 17  4  0
  6  7  4  0
  6 16  4  0
  7 18  4  0
  8 27  4  0
  9 13  4  0
  9 23  4  0
 10 11  1  0
 11 14  2  0
 11 27  1  0
 12 19  1  0
 12 24  4  0
 13 24  4  0
 15 18  1  0
 16 25  4  0
 16 26  4  0
 17 20  4  0
 17 28  1  0
 18 21  4  0
 21 26  4  0
 22 26  4  0
M  END
$$$$

 Created by Python create_sdf_string function

 28 30  0  0  0  0  0  0  0  0999 V2000
    5.7174   -8.4529   26.7190 C   0  0  0  0  0  0  0  0  0  0  0  0
    0.3974   -7.0711   27.5149 C   0  0  0  0  0  0  0  0  0  0  0  0
    2.5338   -7.6891   16.0102 C   0  0  0  0  0  0  0  0  0  0  0  0
    4.8690   -7.4380   26.4151 C   0  0  0  0  0  0  0  0  0  0  0  0
    2.3021   -5.6726   26.0378 C   0  0  0  0  0  0  0  0  0  0  0  0
    7.0880   -4.6163   27.0010 C   0  0  0  0  0  0  0  0  0  0  0  0
    8.3117   -4.3698   27.4436 C   0  0  0  0  0  0  0  0  0  0  0  0
    1.1339   -5.0515   26.3541 C   0  0  0  0  0  0  0  0  0  0  0  0
    4.8080   -8.0362   16.7101 C   0  0  0  0  0  0  0  0  0  0  0  0
   -1.2173   -3.9294   26.9717 O   0  0  0  0  0  0  0  0  0  0  0  0
   -1.0025   -5.0942   27.4586 C   0  0  0  0  0  0  0  0  0  0  0  0
    2.2474   -8.9123   16.6273 C   0  0  0  0  0  0  0  0  0  0  0  0
    4.4957   -9.2636   17.3041 C   0  0  0  0  0  0  0  0  0  0  0  0
   -1.8070   -5.6086   28.1920 O   0  0  0  0  0  0  0  0  0  0  0  0
   10.4296   -5.1799   28.3140 C   0  0  0  0  0  0  0  0  0  0  0  0
    6.6017   -5.9004   26.9187 C   0  0  0  0  0  0  0  0  0  0  0  0
    2.4761   -6.9940   26.4111 N   0  0  0  0  0  0  0  0  0  0  0  0
    9.1353   -5.4053   27.8239 C   0  0  0  0  0  0  0  0  0  0  0  0
    0.9922   -9.3232   16.5995 O   0  0  0  0  0  0  0  0  0  0  0  0
    1.5232   -7.6869   27.1182 C   0  0  0  0  0  0  0  0  0  0  0  0
    8.6878   -6.6715   27.7262 N   0  0  0  0  0  0  0  0  0  0  0  0
    6.9911   -8.2423   27.1808 C   0  0  0  0  0  0  0  0  0  0  0  0
    3.8436   -7.2758   16.0578 C   0  0  0  0  0  0  0  0  0  0  0  0
    3.1882   -9.7190   17.2566 C   0  0  0  0  0  0  0  0  0  0  0  0
    5.3488   -6.1737   26.5092 C   0  0  0  0  0  0  0  0  0  0  0  0
    7.4567   -6.9464   27.2858 C   0  0  0  0  0  0  0  0  0  0  0  0
    0.1921   -5.7592   27.1123 C   0  0  0  0  0  0  0  0  0  0  0  0
    3.5517   -7.7407   25.9711 C   0  0  0  0  0  0  0  0  0  0  0  0
  1  4  4  0
  1 22  4  0
  2 20  4  0
  2 27  4  0
  3 12  4  0
  3 23  4  0
  4 25  4  0
  4 28  1  0
  5  8  4  0
  5 17  4  0
  6  7  4  0
  6 16  4  0
  7 18  4  0
  8 27  4  0
  9 13  4  0
  9 23  4  0
 10 11  1  0
 11 14  2  0
 11 27  1  0
 12 19  1  0
 12 24  4  0
 13 24  4  0
 15 18  1  0
 16 25  4  0
 16 26  4  0
 17 20  4  0
 17 28  1  0
 18 21  4  0
 21 26  4  0
 22 26  4  0
M  END
$$$$

 Created by Python create_sdf_string function

 28 30  0  0  0  0  0  0  0  0999 V2000
    5.7174   -8.4529   26.7190 C   0  0  0  0  0  0  0  0  0  0  0  0
    0.3974   -7.0711   27.5149 C   0  0  0  0  0  0  0  0  0  0  0  0
    2.5338   -7.6891   16.0102 C   0  0  0  0  0  0  0  0  0  0  0  0
    4.8690   -7.4380   26.4151 C   0  0  0  0  0  0  0  0  0  0  0  0
    2.3021   -5.6726   26.0378 C   0  0  0  0  0  0  0  0  0  0  0  0
    7.0880   -4.6163   27.0010 C   0  0  0  0  0  0  0  0  0  0  0  0
    8.3117   -4.3698   27.4436 C   0  0  0  0  0  0  0  0  0  0  0  0
    1.1339   -5.0515   26.3541 C   0  0  0  0  0  0  0  0  0  0  0  0
    4.8080   -8.0362   16.7101 C   0  0  0  0  0  0  0  0  0  0  0  0
   -1.2173   -3.9294   26.9717 O   0  0  0  0  0  0  0  0  0  0  0  0
   -1.0025   -5.0942   27.4586 C   0  0  0  0  0  0  0  0  0  0  0  0
    2.2474   -8.9123   16.6273 C   0  0  0  0  0  0  0  0  0  0  0  0
    4.4957   -9.2636   17.3041 C   0  0  0  0  0  0  0  0  0  0  0  0
   -1.8070   -5.6086   28.1920 O   0  0  0  0  0  0  0  0  0  0  0  0
   10.4296   -5.1799   28.3140 C   0  0  0  0  0  0  0  0  0  0  0  0
    6.6017   -5.9004   26.9187 C   0  0  0  0  0  0  0  0  0  0  0  0
    2.4761   -6.9940   26.4111 N   0  0  0  0  0  0  0  0  0  0  0  0
    9.1353   -5.4053   27.8239 C   0  0  0  0  0  0  0  0  0  0  0  0
    0.9922   -9.3232   16.5995 O   0  0  0  0  0  0  0  0  0  0  0  0
    1.5232   -7.6869   27.1182 C   0  0  0  0  0  0  0  0  0  0  0  0
    8.6878   -6.6715   27.7262 N   0  0  0  0  0  0  0  0  0  0  0  0
    6.9911   -8.2423   27.1808 C   0  0  0  0  0  0  0  0  0  0  0  0
    3.8436   -7.2758   16.0578 C   0  0  0  0  0  0  0  0  0  0  0  0
    3.1882   -9.7190   17.2566 C   0  0  0  0  0  0  0  0  0  0  0  0
    5.3488   -6.1737   26.5092 C   0  0  0  0  0  0  0  0  0  0  0  0
    7.4567   -6.9464   27.2858 C   0  0  0  0  0  0  0  0  0  0  0  0
    0.1921   -5.7592   27.1123 C   0  0  0  0  0  0  0  0  0  0  0  0
    3.5517   -7.7407   25.9711 C   0  0  0  0  0  0  0  0  0  0  0  0
  1  4  4  0
  1 22  4  0
  2 20  4  0
  2 27  4  0
  3 12  4  0
  3 23  4  0
  4 25  4  0
  4 28  1  0
  5  8  4  0
  5 17  4  0
  6  7  4  0
  6 16  4  0
  7 18  4  0
  8 27  4  0
  9 13  4  0
  9 23  4  0
 10 11  1  0
 11 14  2  0
 11 27  1  0
 12 19  1  0
 12 24  4  0
 13 24  4  0
 15 18  1  0
 16 25  4  0
 16 26  4  0
 17 20  4  0
 17 28  1  0
 18 21  4  0
 21 26  4  0
 22 26  4  0
M  END
$$$$

 Created by Python create_sdf_string function

 28 30  0  0  0  0  0  0  0  0999 V2000
    5.7174   -8.4529   26.7190 C   0  0  0  0  0  0  0  0  0  0  0  0
    0.3974   -7.0711   27.5149 C   0  0  0  0  0  0  0  0  0  0  0  0
    2.5338   -7.6891   16.0102 C   0  0  0  0  0  0  0  0  0  0  0  0
    4.8690   -7.4380   26.4151 C   0  0  0  0  0  0  0  0  0  0  0  0
    2.3021   -5.6726   26.0378 C   0  0  0  0  0  0  0  0  0  0  0  0
    7.0880   -4.6163   27.0010 C   0  0  0  0  0  0  0  0  0  0  0  0
    8.3117   -4.3698   27.4436 C   0  0  0  0  0  0  0  0  0  0  0  0
    1.1339   -5.0515   26.3541 C   0  0  0  0  0  0  0  0  0  0  0  0
    4.8080   -8.0362   16.7101 C   0  0  0  0  0  0  0  0  0  0  0  0
   -1.2173   -3.9294   26.9717 O   0  0  0  0  0  0  0  0  0  0  0  0
   -1.0025   -5.0942   27.4586 C   0  0  0  0  0  0  0  0  0  0  0  0
    2.2474   -8.9123   16.6273 C   0  0  0  0  0  0  0  0  0  0  0  0
    4.4957   -9.2636   17.3041 C   0  0  0  0  0  0  0  0  0  0  0  0
   -1.8070   -5.6086   28.1920 O   0  0  0  0  0  0  0  0  0  0  0  0
   10.4296   -5.1799   28.3140 C   0  0  0  0  0  0  0  0  0  0  0  0
    6.6017   -5.9004   26.9187 C   0  0  0  0  0  0  0  0  0  0  0  0
    2.4761   -6.9940   26.4111 N   0  0  0  0  0  0  0  0  0  0  0  0
    9.1353   -5.4053   27.8239 C   0  0  0  0  0  0  0  0  0  0  0  0
    0.9922   -9.3232   16.5995 O   0  0  0  0  0  0  0  0  0  0  0  0
    1.5232   -7.6869   27.1182 C   0  0  0  0  0  0  0  0  0  0  0  0
    8.6878   -6.6715   27.7262 N   0  0  0  0  0  0  0  0  0  0  0  0
    6.9911   -8.2423   27.1808 C   0  0  0  0  0  0  0  0  0  0  0  0
    3.8436   -7.2758   16.0578 C   0  0  0  0  0  0  0  0  0  0  0  0
    3.1882   -9.7190   17.2566 C   0  0  0  0  0  0  0  0  0  0  0  0
    5.3488   -6.1737   26.5092 C   0  0  0  0  0  0  0  0  0  0  0  0
    7.4567   -6.9464   27.2858 C   0  0  0  0  0  0  0  0  0  0  0  0
    0.1921   -5.7592   27.1123 C   0  0  0  0  0  0  0  0  0  0  0  0
    3.5517   -7.7407   25.9711 C   0  0  0  0  0  0  0  0  0  0  0  0
  1  4  4  0
  1 22  4  0
  2 20  4  0
  2 27  4  0
  3 12  4  0
  3 23  4  0
  4 25  4  0
  4 28  1  0
  5  8  4  0
  5 17  4  0
  6  7  4  0
  6 16  4  0
  7 18  4  0
  8 27  4  0
  9 13  4  0
  9 23  4  0
 10 11  1  0
 11 14  2  0
 11 27  1  0
 12 19  1  0
 12 24  4  0
 13 24  4  0
 15 18  1  0
 16 25  4  0
 16 26  4  0
 17 20  4  0
 17 28  1  0
 18 21  4  0
 21 26  4  0
 22 26  4  0
M  END
$$$$

 Created by Python create_sdf_string function

 28 30  0  0  0  0  0  0  0  0999 V2000
    5.7174   -8.4529   26.7190 C   0  0  0  0  0  0  0  0  0  0  0  0
    0.3974   -7.0711   27.5149 C   0  0  0  0  0  0  0  0  0  0  0  0
    2.5338   -7.6891   16.0102 C   0  0  0  0  0  0  0  0  0  0  0  0
    4.8690   -7.4380   26.4151 C   0  0  0  0  0  0  0  0  0  0  0  0
    2.3021   -5.6726   26.0378 C   0  0  0  0  0  0  0  0  0  0  0  0
    7.0880   -4.6163   27.0010 C   0  0  0  0  0  0  0  0  0  0  0  0
    8.3117   -4.3698   27.4436 C   0  0  0  0  0  0  0  0  0  0  0  0
    1.1339   -5.0515   26.3541 C   0  0  0  0  0  0  0  0  0  0  0  0
    4.8080   -8.0362   16.7101 C   0  0  0  0  0  0  0  0  0  0  0  0
   -1.2173   -3.9294   26.9717 O   0  0  0  0  0  0  0  0  0  0  0  0
   -1.0025   -5.0942   27.4586 C   0  0  0  0  0  0  0  0  0  0  0  0
    2.2474   -8.9123   16.6273 C   0  0  0  0  0  0  0  0  0  0  0  0
    4.4957   -9.2636   17.3041 C   0  0  0  0  0  0  0  0  0  0  0  0
   -1.8070   -5.6086   28.1920 O   0  0  0  0  0  0  0  0  0  0  0  0
   10.4296   -5.1799   28.3140 C   0  0  0  0  0  0  0  0  0  0  0  0
    6.6017   -5.9004   26.9187 C   0  0  0  0  0  0  0  0  0  0  0  0
    2.4761   -6.9940   26.4111 N   0  0  0  0  0  0  0  0  0  0  0  0
    9.1353   -5.4053   27.8239 C   0  0  0  0  0  0  0  0  0  0  0  0
    0.9922   -9.3232   16.5995 O   0  0  0  0  0  0  0  0  0  0  0  0
    1.5232   -7.6869   27.1182 C   0  0  0  0  0  0  0  0  0  0  0  0
    8.6878   -6.6715   27.7262 N   0  0  0  0  0  0  0  0  0  0  0  0
    6.9911   -8.2423   27.1808 C   0  0  0  0  0  0  0  0  0  0  0  0
    3.8436   -7.2758   16.0578 C   0  0  0  0  0  0  0  0  0  0  0  0
    3.1882   -9.7190   17.2566 C   0  0  0  0  0  0  0  0  0  0  0  0
    5.3488   -6.1737   26.5092 C   0  0  0  0  0  0  0  0  0  0  0  0
    7.4567   -6.9464   27.2858 C   0  0  0  0  0  0  0  0  0  0  0  0
    0.1921   -5.7592   27.1123 C   0  0  0  0  0  0  0  0  0  0  0  0
    3.5517   -7.7407   25.9711 C   0  0  0  0  0  0  0  0  0  0  0  0
  1  4  4  0
  1 22  4  0
  2 20  4  0
  2 27  4  0
  3 12  4  0
  3 23  4  0
  4 25  4  0
  4 28  1  0
  5  8  4  0
  5 17  4  0
  6  7  4  0
  6 16  4  0
  7 18  4  0
  8 27  4  0
  9 13  4  0
  9 23  4  0
 10 11  1  0
 11 14  2  0
 11 27  1  0
 12 19  1  0
 12 24  4  0
 13 24  4  0
 15 18  1  0
 16 25  4  0
 16 26  4  0
 17 20  4  0
 17 28  1  0
 18 21  4  0
 21 26  4  0
 22 26  4  0
M  END
$$$$

 Created by Python create_sdf_string function

 28 30  0  0  0  0  0  0  0  0999 V2000
    5.7174   -8.4529   26.7190 C   0  0  0  0  0  0  0  0  0  0  0  0
    0.3974   -7.0711   27.5149 C   0  0  0  0  0  0  0  0  0  0  0  0
    2.5338   -7.6891   16.0102 C   0  0  0  0  0  0  0  0  0  0  0  0
    4.8690   -7.4380   26.4151 C   0  0  0  0  0  0  0  0  0  0  0  0
    2.3021   -5.6726   26.0378 C   0  0  0  0  0  0  0  0  0  0  0  0
    7.0880   -4.6163   27.0010 C   0  0  0  0  0  0  0  0  0  0  0  0
    8.3117   -4.3698   27.4436 C   0  0  0  0  0  0  0  0  0  0  0  0
    1.1339   -5.0515   26.3541 C   0  0  0  0  0  0  0  0  0  0  0  0
    4.8080   -8.0362   16.7101 C   0  0  0  0  0  0  0  0  0  0  0  0
   -1.2173   -3.9294   26.9717 O   0  0  0  0  0  0  0  0  0  0  0  0
   -1.0025   -5.0942   27.4586 C   0  0  0  0  0  0  0  0  0  0  0  0
    2.2474   -8.9123   16.6273 C   0  0  0  0  0  0  0  0  0  0  0  0
    4.4957   -9.2636   17.3041 C   0  0  0  0  0  0  0  0  0  0  0  0
   -1.8070   -5.6086   28.1920 O   0  0  0  0  0  0  0  0  0  0  0  0
   10.4296   -5.1799   28.3140 C   0  0  0  0  0  0  0  0  0  0  0  0
    6.6017   -5.9004   26.9187 C   0  0  0  0  0  0  0  0  0  0  0  0
    2.4761   -6.9940   26.4111 N   0  0  0  0  0  0  0  0  0  0  0  0
    9.1353   -5.4053   27.8239 C   0  0  0  0  0  0  0  0  0  0  0  0
    0.9922   -9.3232   16.5995 O   0  0  0  0  0  0  0  0  0  0  0  0
    1.5232   -7.6869   27.1182 C   0  0  0  0  0  0  0  0  0  0  0  0
    8.6878   -6.6715   27.7262 N   0  0  0  0  0  0  0  0  0  0  0  0
    6.9911   -8.2423   27.1808 C   0  0  0  0  0  0  0  0  0  0  0  0
    3.8436   -7.2758   16.0578 C   0  0  0  0  0  0  0  0  0  0  0  0
    3.1882   -9.7190   17.2566 C   0  0  0  0  0  0  0  0  0  0  0  0
    5.3488   -6.1737   26.5092 C   0  0  0  0  0  0  0  0  0  0  0  0
    7.4567   -6.9464   27.2858 C   0  0  0  0  0  0  0  0  0  0  0  0
    0.1921   -5.7592   27.1123 C   0  0  0  0  0  0  0  0  0  0  0  0
    3.5517   -7.7407   25.9711 C   0  0  0  0  0  0  0  0  0  0  0  0
  1  4  4  0
  1 22  4  0
  2 20  4  0
  2 27  4  0
  3 12  4  0
  3 23  4  0
  4 25  4  0
  4 28  1  0
  5  8  4  0
  5 17  4  0
  6  7  4  0
  6 16  4  0
  7 18  4  0
  8 27  4  0
  9 13  4  0
  9 23  4  0
 10 11  1  0
 11 14  2  0
 11 27  1  0
 12 19  1  0
 12 24  4  0
 13 24  4  0
 15 18  1  0
 16 25  4  0
 16 26  4  0
 17 20  4  0
 17 28  1  0
 18 21  4  0
 21 26  4  0
 22 26  4  0
M  END
$$$$

 Created by Python create_sdf_string function

 28 30  0  0  0  0  0  0  0  0999 V2000
    5.7174   -8.4529   26.7190 C   0  0  0  0  0  0  0  0  0  0  0  0
    0.3974   -7.0711   27.5149 C   0  0  0  0  0  0  0  0  0  0  0  0
    2.5338   -7.6891   16.0102 C   0  0  0  0  0  0  0  0  0  0  0  0
    4.8690   -7.4380   26.4151 C   0  0  0  0  0  0  0  0  0  0  0  0
    2.3021   -5.6726   26.0378 C   0  0  0  0  0  0  0  0  0  0  0  0
    7.0880   -4.6163   27.0010 C   0  0  0  0  0  0  0  0  0  0  0  0
    8.3117   -4.3698   27.4436 C   0  0  0  0  0  0  0  0  0  0  0  0
    1.1339   -5.0515   26.3541 C   0  0  0  0  0  0  0  0  0  0  0  0
    4.8080   -8.0362   16.7101 C   0  0  0  0  0  0  0  0  0  0  0  0
   -1.2173   -3.9294   26.9717 O   0  0  0  0  0  0  0  0  0  0  0  0
   -1.0025   -5.0942   27.4586 C   0  0  0  0  0  0  0  0  0  0  0  0
    2.2474   -8.9123   16.6273 C   0  0  0  0  0  0  0  0  0  0  0  0
    4.4957   -9.2636   17.3041 C   0  0  0  0  0  0  0  0  0  0  0  0
   -1.8070   -5.6086   28.1920 O   0  0  0  0  0  0  0  0  0  0  0  0
   10.4296   -5.1799   28.3140 C   0  0  0  0  0  0  0  0  0  0  0  0
    6.6017   -5.9004   26.9187 C   0  0  0  0  0  0  0  0  0  0  0  0
    2.4761   -6.9940   26.4111 N   0  0  0  0  0  0  0  0  0  0  0  0
    9.1353   -5.4053   27.8239 C   0  0  0  0  0  0  0  0  0  0  0  0
    0.9922   -9.3232   16.5995 O   0  0  0  0  0  0  0  0  0  0  0  0
    1.5232   -7.6869   27.1182 C   0  0  0  0  0  0  0  0  0  0  0  0
    8.6878   -6.6715   27.7262 N   0  0  0  0  0  0  0  0  0  0  0  0
    6.9911   -8.2423   27.1808 C   0  0  0  0  0  0  0  0  0  0  0  0
    3.8436   -7.2758   16.0578 C   0  0  0  0  0  0  0  0  0  0  0  0
    3.1882   -9.7190   17.2566 C   0  0  0  0  0  0  0  0  0  0  0  0
    5.3488   -6.1737   26.5092 C   0  0  0  0  0  0  0  0  0  0  0  0
    7.4567   -6.9464   27.2858 C   0  0  0  0  0  0  0  0  0  0  0  0
    0.1921   -5.7592   27.1123 C   0  0  0  0  0  0  0  0  0  0  0  0
    3.5517   -7.7407   25.9711 C   0  0  0  0  0  0  0  0  0  0  0  0
  1  4  4  0
  1 22  4  0
  2 20  4  0
  2 27  4  0
  3 12  4  0
  3 23  4  0
  4 25  4  0
  4 28  1  0
  5  8  4  0
  5 17  4  0
  6  7  4  0
  6 16  4  0
  7 18  4  0
  8 27  4  0
  9 13  4  0
  9 23  4  0
 10 11  1  0
 11 14  2  0
 11 27  1  0
 12 19  1  0
 12 24  4  0
 13 24  4  0
 15 18  1  0
 16 25  4  0
 16 26  4  0
 17 20  4  0
 17 28  1  0
 18 21  4  0
 21 26  4  0
 22 26  4  0
M  END
$$$$

 Created by Python create_sdf_string function

 28 30  0  0  0  0  0  0  0  0999 V2000
    5.7174   -8.4529   26.7190 C   0  0  0  0  0  0  0  0  0  0  0  0
    0.3974   -7.0711   27.5149 C   0  0  0  0  0  0  0  0  0  0  0  0
    2.5338   -7.6891   16.0102 C   0  0  0  0  0  0  0  0  0  0  0  0
    4.8690   -7.4380   26.4151 C   0  0  0  0  0  0  0  0  0  0  0  0
    2.3021   -5.6726   26.0378 C   0  0  0  0  0  0  0  0  0  0  0  0
    7.0880   -4.6163   27.0010 C   0  0  0  0  0  0  0  0  0  0  0  0
    8.3117   -4.3698   27.4436 C   0  0  0  0  0  0  0  0  0  0  0  0
    1.1339   -5.0515   26.3541 C   0  0  0  0  0  0  0  0  0  0  0  0
    4.8080   -8.0362   16.7101 C   0  0  0  0  0  0  0  0  0  0  0  0
   -1.2173   -3.9294   26.9717 O   0  0  0  0  0  0  0  0  0  0  0  0
   -1.0025   -5.0942   27.4586 C   0  0  0  0  0  0  0  0  0  0  0  0
    2.2474   -8.9123   16.6273 C   0  0  0  0  0  0  0  0  0  0  0  0
    4.4957   -9.2636   17.3041 C   0  0  0  0  0  0  0  0  0  0  0  0
   -1.8070   -5.6086   28.1920 O   0  0  0  0  0  0  0  0  0  0  0  0
   10.4296   -5.1799   28.3140 C   0  0  0  0  0  0  0  0  0  0  0  0
    6.6017   -5.9004   26.9187 C   0  0  0  0  0  0  0  0  0  0  0  0
    2.4761   -6.9940   26.4111 N   0  0  0  0  0  0  0  0  0  0  0  0
    9.1353   -5.4053   27.8239 C   0  0  0  0  0  0  0  0  0  0  0  0
    0.9922   -9.3232   16.5995 O   0  0  0  0  0  0  0  0  0  0  0  0
    1.5232   -7.6869   27.1182 C   0  0  0  0  0  0  0  0  0  0  0  0
    8.6878   -6.6715   27.7262 N   0  0  0  0  0  0  0  0  0  0  0  0
    6.9911   -8.2423   27.1808 C   0  0  0  0  0  0  0  0  0  0  0  0
    3.8436   -7.2758   16.0578 C   0  0  0  0  0  0  0  0  0  0  0  0
    3.1882   -9.7190   17.2566 C   0  0  0  0  0  0  0  0  0  0  0  0
    5.3488   -6.1737   26.5092 C   0  0  0  0  0  0  0  0  0  0  0  0
    7.4567   -6.9464   27.2858 C   0  0  0  0  0  0  0  0  0  0  0  0
    0.1921   -5.7592   27.1123 C   0  0  0  0  0  0  0  0  0  0  0  0
    3.5517   -7.7407   25.9711 C   0  0  0  0  0  0  0  0  0  0  0  0
  1  4  4  0
  1 22  4  0
  2 20  4  0
  2 27  4  0
  3 12  4  0
  3 23  4  0
  4 25  4  0
  4 28  1  0
  5  8  4  0
  5 17  4  0
  6  7  4  0
  6 16  4  0
  7 18  4  0
  8 27  4  0
  9 13  4  0
  9 23  4  0
 10 11  1  0
 11 14  2  0
 11 27  1  0
 12 19  1  0
 12 24  4  0
 13 24  4  0
 15 18  1  0
 16 25  4  0
 16 26  4  0
 17 20  4  0
 17 28  1  0
 18 21  4  0
 21 26  4  0
 22 26  4  0
M  END
$$$$

 Created by Python create_sdf_string function

 28 30  0  0  0  0  0  0  0  0999 V2000
    5.7174   -8.4529   26.7190 C   0  0  0  0  0  0  0  0  0  0  0  0
    0.3974   -7.0711   27.5149 C   0  0  0  0  0  0  0  0  0  0  0  0
    2.5338   -7.6891   16.0102 C   0  0  0  0  0  0  0  0  0  0  0  0
    4.8690   -7.4380   26.4151 C   0  0  0  0  0  0  0  0  0  0  0  0
    2.3021   -5.6726   26.0378 C   0  0  0  0  0  0  0  0  0  0  0  0
    7.0880   -4.6163   27.0010 C   0  0  0  0  0  0  0  0  0  0  0  0
    8.3117   -4.3698   27.4436 C   0  0  0  0  0  0  0  0  0  0  0  0
    1.1339   -5.0515   26.3541 C   0  0  0  0  0  0  0  0  0  0  0  0
    4.8080   -8.0362   16.7101 C   0  0  0  0  0  0  0  0  0  0  0  0
   -1.2173   -3.9294   26.9717 O   0  0  0  0  0  0  0  0  0  0  0  0
   -1.0025   -5.0942   27.4586 C   0  0  0  0  0  0  0  0  0  0  0  0
    2.2474   -8.9123   16.6273 C   0  0  0  0  0  0  0  0  0  0  0  0
    4.4957   -9.2636   17.3041 C   0  0  0  0  0  0  0  0  0  0  0  0
   -1.8070   -5.6086   28.1920 O   0  0  0  0  0  0  0  0  0  0  0  0
   10.4296   -5.1799   28.3140 C   0  0  0  0  0  0  0  0  0  0  0  0
    6.6017   -5.9004   26.9187 C   0  0  0  0  0  0  0  0  0  0  0  0
    2.4761   -6.9940   26.4111 N   0  0  0  0  0  0  0  0  0  0  0  0
    9.1353   -5.4053   27.8239 C   0  0  0  0  0  0  0  0  0  0  0  0
    0.9922   -9.3232   16.5995 O   0  0  0  0  0  0  0  0  0  0  0  0
    1.5232   -7.6869   27.1182 C   0  0  0  0  0  0  0  0  0  0  0  0
    8.6878   -6.6715   27.7262 N   0  0  0  0  0  0  0  0  0  0  0  0
    6.9911   -8.2423   27.1808 C   0  0  0  0  0  0  0  0  0  0  0  0
    3.8436   -7.2758   16.0578 C   0  0  0  0  0  0  0  0  0  0  0  0
    3.1882   -9.7190   17.2566 C   0  0  0  0  0  0  0  0  0  0  0  0
    5.3488   -6.1737   26.5092 C   0  0  0  0  0  0  0  0  0  0  0  0
    7.4567   -6.9464   27.2858 C   0  0  0  0  0  0  0  0  0  0  0  0
    0.1921   -5.7592   27.1123 C   0  0  0  0  0  0  0  0  0  0  0  0
    3.5517   -7.7407   25.9711 C   0  0  0  0  0  0  0  0  0  0  0  0
  1  4  4  0
  1 22  4  0
  2 20  4  0
  2 27  4  0
  3 12  4  0
  3 23  4  0
  4 25  4  0
  4 28  1  0
  5  8  4  0
  5 17  4  0
  6  7  4  0
  6 16  4  0
  7 18  4  0
  8 27  4  0
  9 13  4  0
  9 23  4  0
 10 11  1  0
 11 14  2  0
 11 27  1  0
 12 19  1  0
 12 24  4  0
 13 24  4  0
 15 18  1  0
 16 25  4  0
 16 26  4  0
 17 20  4  0
 17 28  1  0
 18 21  4  0
 21 26  4  0
 22 26  4  0
M  END
$$$$

 Created by Python create_sdf_string function

 28 30  0  0  0  0  0  0  0  0999 V2000
    5.7174   -8.4529   26.7190 C   0  0  0  0  0  0  0  0  0  0  0  0
    0.3974   -7.0711   27.5149 C   0  0  0  0  0  0  0  0  0  0  0  0
    2.5338   -7.6891   16.0102 C   0  0  0  0  0  0  0  0  0  0  0  0
    4.8690   -7.4380   26.4151 C   0  0  0  0  0  0  0  0  0  0  0  0
    2.3021   -5.6726   26.0378 C   0  0  0  0  0  0  0  0  0  0  0  0
    7.0880   -4.6163   27.0010 C   0  0  0  0  0  0  0  0  0  0  0  0
    8.3117   -4.3698   27.4436 C   0  0  0  0  0  0  0  0  0  0  0  0
    1.1339   -5.0515   26.3541 C   0  0  0  0  0  0  0  0  0  0  0  0
    4.8080   -8.0362   16.7101 C   0  0  0  0  0  0  0  0  0  0  0  0
   -1.2173   -3.9294   26.9717 O   0  0  0  0  0  0  0  0  0  0  0  0
   -1.0025   -5.0942   27.4586 C   0  0  0  0  0  0  0  0  0  0  0  0
    2.2474   -8.9123   16.6273 C   0  0  0  0  0  0  0  0  0  0  0  0
    4.4957   -9.2636   17.3041 C   0  0  0  0  0  0  0  0  0  0  0  0
   -1.8070   -5.6086   28.1920 O   0  0  0  0  0  0  0  0  0  0  0  0
   10.4296   -5.1799   28.3140 C   0  0  0  0  0  0  0  0  0  0  0  0
    6.6017   -5.9004   26.9187 C   0  0  0  0  0  0  0  0  0  0  0  0
    2.4761   -6.9940   26.4111 N   0  0  0  0  0  0  0  0  0  0  0  0
    9.1353   -5.4053   27.8239 C   0  0  0  0  0  0  0  0  0  0  0  0
    0.9922   -9.3232   16.5995 O   0  0  0  0  0  0  0  0  0  0  0  0
    1.5232   -7.6869   27.1182 C   0  0  0  0  0  0  0  0  0  0  0  0
    8.6878   -6.6715   27.7262 N   0  0  0  0  0  0  0  0  0  0  0  0
    6.9911   -8.2423   27.1808 C   0  0  0  0  0  0  0  0  0  0  0  0
    3.8436   -7.2758   16.0578 C   0  0  0  0  0  0  0  0  0  0  0  0
    3.1882   -9.7190   17.2566 C   0  0  0  0  0  0  0  0  0  0  0  0
    5.3488   -6.1737   26.5092 C   0  0  0  0  0  0  0  0  0  0  0  0
    7.4567   -6.9464   27.2858 C   0  0  0  0  0  0  0  0  0  0  0  0
    0.1921   -5.7592   27.1123 C   0  0  0  0  0  0  0  0  0  0  0  0
    3.5517   -7.7407   25.9711 C   0  0  0  0  0  0  0  0  0  0  0  0
  1  4  4  0
  1 22  4  0
  2 20  4  0
  2 27  4  0
  3 12  4  0
  3 23  4  0
  4 25  4  0
  4 28  1  0
  5  8  4  0
  5 17  4  0
  6  7  4  0
  6 16  4  0
  7 18  4  0
  8 27  4  0
  9 13  4  0
  9 23  4  0
 10 11  1  0
 11 14  2  0
 11 27  1  0
 12 19  1  0
 12 24  4  0
 13 24  4  0
 15 18  1  0
 16 25  4  0
 16 26  4  0
 17 20  4  0
 17 28  1  0
 18 21  4  0
 21 26  4  0
 22 26  4  0
M  END
$$$$

 Created by Python create_sdf_string function

 28 30  0  0  0  0  0  0  0  0999 V2000
    5.7174   -8.4529   26.7190 C   0  0  0  0  0  0  0  0  0  0  0  0
    0.3974   -7.0711   27.5149 C   0  0  0  0  0  0  0  0  0  0  0  0
    2.5338   -7.6891   16.0102 C   0  0  0  0  0  0  0  0  0  0  0  0
    4.8690   -7.4380   26.4151 C   0  0  0  0  0  0  0  0  0  0  0  0
    2.3021   -5.6726   26.0378 C   0  0  0  0  0  0  0  0  0  0  0  0
    7.0880   -4.6163   27.0010 C   0  0  0  0  0  0  0  0  0  0  0  0
    8.3117   -4.3698   27.4436 C   0  0  0  0  0  0  0  0  0  0  0  0
    1.1339   -5.0515   26.3541 C   0  0  0  0  0  0  0  0  0  0  0  0
    4.8080   -8.0362   16.7101 C   0  0  0  0  0  0  0  0  0  0  0  0
   -1.2173   -3.9294   26.9717 O   0  0  0  0  0  0  0  0  0  0  0  0
   -1.0025   -5.0942   27.4586 C   0  0  0  0  0  0  0  0  0  0  0  0
    2.2474   -8.9123   16.6273 C   0  0  0  0  0  0  0  0  0  0  0  0
    4.4957   -9.2636   17.3041 C   0  0  0  0  0  0  0  0  0  0  0  0
   -1.8070   -5.6086   28.1920 O   0  0  0  0  0  0  0  0  0  0  0  0
   10.4296   -5.1799   28.3140 C   0  0  0  0  0  0  0  0  0  0  0  0
    6.6017   -5.9004   26.9187 C   0  0  0  0  0  0  0  0  0  0  0  0
    2.4761   -6.9940   26.4111 N   0  0  0  0  0  0  0  0  0  0  0  0
    9.1353   -5.4053   27.8239 C   0  0  0  0  0  0  0  0  0  0  0  0
    0.9922   -9.3232   16.5995 O   0  0  0  0  0  0  0  0  0  0  0  0
    1.5232   -7.6869   27.1182 C   0  0  0  0  0  0  0  0  0  0  0  0
    8.6878   -6.6715   27.7262 N   0  0  0  0  0  0  0  0  0  0  0  0
    6.9911   -8.2423   27.1808 C   0  0  0  0  0  0  0  0  0  0  0  0
    3.8436   -7.2758   16.0578 C   0  0  0  0  0  0  0  0  0  0  0  0
    3.1882   -9.7190   17.2566 C   0  0  0  0  0  0  0  0  0  0  0  0
    5.3488   -6.1737   26.5092 C   0  0  0  0  0  0  0  0  0  0  0  0
    7.4567   -6.9464   27.2858 C   0  0  0  0  0  0  0  0  0  0  0  0
    0.1921   -5.7592   27.1123 C   0  0  0  0  0  0  0  0  0  0  0  0
    3.5517   -7.7407   25.9711 C   0  0  0  0  0  0  0  0  0  0  0  0
  1  4  4  0
  1 22  4  0
  2 20  4  0
  2 27  4  0
  3 12  4  0
  3 23  4  0
  4 25  4  0
  4 28  1  0
  5  8  4  0
  5 17  4  0
  6  7  4  0
  6 16  4  0
  7 18  4  0
  8 27  4  0
  9 13  4  0
  9 23  4  0
 10 11  1  0
 11 14  2  0
 11 27  1  0
 12 19  1  0
 12 24  4  0
 13 24  4  0
 15 18  1  0
 16 25  4  0
 16 26  4  0
 17 20  4  0
 17 28  1  0
 18 21  4  0
 21 26  4  0
 22 26  4  0
M  END
$$$$

 Created by Python create_sdf_string function

 28 30  0  0  0  0  0  0  0  0999 V2000
    5.7174   -8.4529   26.7190 C   0  0  0  0  0  0  0  0  0  0  0  0
    0.3974   -7.0711   27.5149 C   0  0  0  0  0  0  0  0  0  0  0  0
    2.5338   -7.6891   16.0102 C   0  0  0  0  0  0  0  0  0  0  0  0
    4.8690   -7.4380   26.4151 C   0  0  0  0  0  0  0  0  0  0  0  0
    2.3021   -5.6726   26.0378 C   0  0  0  0  0  0  0  0  0  0  0  0
    7.0880   -4.6163   27.0010 C   0  0  0  0  0  0  0  0  0  0  0  0
    8.3117   -4.3698   27.4436 C   0  0  0  0  0  0  0  0  0  0  0  0
    1.1339   -5.0515   26.3541 C   0  0  0  0  0  0  0  0  0  0  0  0
    4.8080   -8.0362   16.7101 C   0  0  0  0  0  0  0  0  0  0  0  0
   -1.2173   -3.9294   26.9717 O   0  0  0  0  0  0  0  0  0  0  0  0
   -1.0025   -5.0942   27.4586 C   0  0  0  0  0  0  0  0  0  0  0  0
    2.2474   -8.9123   16.6273 C   0  0  0  0  0  0  0  0  0  0  0  0
    4.4957   -9.2636   17.3041 C   0  0  0  0  0  0  0  0  0  0  0  0
   -1.8070   -5.6086   28.1920 O   0  0  0  0  0  0  0  0  0  0  0  0
   10.4296   -5.1799   28.3140 C   0  0  0  0  0  0  0  0  0  0  0  0
    6.6017   -5.9004   26.9187 C   0  0  0  0  0  0  0  0  0  0  0  0
    2.4761   -6.9940   26.4111 N   0  0  0  0  0  0  0  0  0  0  0  0
    9.1353   -5.4053   27.8239 C   0  0  0  0  0  0  0  0  0  0  0  0
    0.9922   -9.3232   16.5995 O   0  0  0  0  0  0  0  0  0  0  0  0
    1.5232   -7.6869   27.1182 C   0  0  0  0  0  0  0  0  0  0  0  0
    8.6878   -6.6715   27.7262 N   0  0  0  0  0  0  0  0  0  0  0  0
    6.9911   -8.2423   27.1808 C   0  0  0  0  0  0  0  0  0  0  0  0
    3.8436   -7.2758   16.0578 C   0  0  0  0  0  0  0  0  0  0  0  0
    3.1882   -9.7190   17.2566 C   0  0  0  0  0  0  0  0  0  0  0  0
    5.3488   -6.1737   26.5092 C   0  0  0  0  0  0  0  0  0  0  0  0
    7.4567   -6.9464   27.2858 C   0  0  0  0  0  0  0  0  0  0  0  0
    0.1921   -5.7592   27.1123 C   0  0  0  0  0  0  0  0  0  0  0  0
    3.5517   -7.7407   25.9711 C   0  0  0  0  0  0  0  0  0  0  0  0
  1  4  4  0
  1 22  4  0
  2 20  4  0
  2 27  4  0
  3 12  4  0
  3 23  4  0
  4 25  4  0
  4 28  1  0
  5  8  4  0
  5 17  4  0
  6  7  4  0
  6 16  4  0
  7 18  4  0
  8 27  4  0
  9 13  4  0
  9 23  4  0
 10 11  1  0
 11 14  2  0
 11 27  1  0
 12 19  1  0
 12 24  4  0
 13 24  4  0
 15 18  1  0
 16 25  4  0
 16 26  4  0
 17 20  4  0
 17 28  1  0
 18 21  4  0
 21 26  4  0
 22 26  4  0
M  END
$$$$

 Created by Python create_sdf_string function

 28 30  0  0  0  0  0  0  0  0999 V2000
    5.7174   -8.4529   26.7190 C   0  0  0  0  0  0  0  0  0  0  0  0
    0.3974   -7.0711   27.5149 C   0  0  0  0  0  0  0  0  0  0  0  0
    2.5338   -7.6891   16.0102 C   0  0  0  0  0  0  0  0  0  0  0  0
    4.8690   -7.4380   26.4151 C   0  0  0  0  0  0  0  0  0  0  0  0
    2.3021   -5.6726   26.0378 C   0  0  0  0  0  0  0  0  0  0  0  0
    7.0880   -4.6163   27.0010 C   0  0  0  0  0  0  0  0  0  0  0  0
    8.3117   -4.3698   27.4436 C   0  0  0  0  0  0  0  0  0  0  0  0
    1.1339   -5.0515   26.3541 C   0  0  0  0  0  0  0  0  0  0  0  0
    4.8080   -8.0362   16.7101 C   0  0  0  0  0  0  0  0  0  0  0  0
   -1.2173   -3.9294   26.9717 O   0  0  0  0  0  0  0  0  0  0  0  0
   -1.0025   -5.0942   27.4586 C   0  0  0  0  0  0  0  0  0  0  0  0
    2.2474   -8.9123   16.6273 C   0  0  0  0  0  0  0  0  0  0  0  0
    4.4957   -9.2636   17.3041 C   0  0  0  0  0  0  0  0  0  0  0  0
   -1.8070   -5.6086   28.1920 O   0  0  0  0  0  0  0  0  0  0  0  0
   10.4296   -5.1799   28.3140 C   0  0  0  0  0  0  0  0  0  0  0  0
    6.6017   -5.9004   26.9187 C   0  0  0  0  0  0  0  0  0  0  0  0
    2.4761   -6.9940   26.4111 N   0  0  0  0  0  0  0  0  0  0  0  0
    9.1353   -5.4053   27.8239 C   0  0  0  0  0  0  0  0  0  0  0  0
    0.9922   -9.3232   16.5995 O   0  0  0  0  0  0  0  0  0  0  0  0
    1.5232   -7.6869   27.1182 C   0  0  0  0  0  0  0  0  0  0  0  0
    8.6878   -6.6715   27.7262 N   0  0  0  0  0  0  0  0  0  0  0  0
    6.9911   -8.2423   27.1808 C   0  0  0  0  0  0  0  0  0  0  0  0
    3.8436   -7.2758   16.0578 C   0  0  0  0  0  0  0  0  0  0  0  0
    3.1882   -9.7190   17.2566 C   0  0  0  0  0  0  0  0  0  0  0  0
    5.3488   -6.1737   26.5092 C   0  0  0  0  0  0  0  0  0  0  0  0
    7.4567   -6.9464   27.2858 C   0  0  0  0  0  0  0  0  0  0  0  0
    0.1921   -5.7592   27.1123 C   0  0  0  0  0  0  0  0  0  0  0  0
    3.5517   -7.7407   25.9711 C   0  0  0  0  0  0  0  0  0  0  0  0
  1  4  4  0
  1 22  4  0
  2 20  4  0
  2 27  4  0
  3 12  4  0
  3 23  4  0
  4 25  4  0
  4 28  1  0
  5  8  4  0
  5 17  4  0
  6  7  4  0
  6 16  4  0
  7 18  4  0
  8 27  4  0
  9 13  4  0
  9 23  4  0
 10 11  1  0
 11 14  2  0
 11 27  1  0
 12 19  1  0
 12 24  4  0
 13 24  4  0
 15 18  1  0
 16 25  4  0
 16 26  4  0
 17 20  4  0
 17 28  1  0
 18 21  4  0
 21 26  4  0
 22 26  4  0
M  END
$$$$

 Created by Python create_sdf_string function

 28 30  0  0  0  0  0  0  0  0999 V2000
    5.7174   -8.4529   26.7190 C   0  0  0  0  0  0  0  0  0  0  0  0
    0.3974   -7.0711   27.5149 C   0  0  0  0  0  0  0  0  0  0  0  0
    2.5338   -7.6891   16.0102 C   0  0  0  0  0  0  0  0  0  0  0  0
    4.8690   -7.4380   26.4151 C   0  0  0  0  0  0  0  0  0  0  0  0
    2.3021   -5.6726   26.0378 C   0  0  0  0  0  0  0  0  0  0  0  0
    7.0880   -4.6163   27.0010 C   0  0  0  0  0  0  0  0  0  0  0  0
    8.3117   -4.3698   27.4436 C   0  0  0  0  0  0  0  0  0  0  0  0
    1.1339   -5.0515   26.3541 C   0  0  0  0  0  0  0  0  0  0  0  0
    4.8080   -8.0362   16.7101 C   0  0  0  0  0  0  0  0  0  0  0  0
   -1.2173   -3.9294   26.9717 O   0  0  0  0  0  0  0  0  0  0  0  0
   -1.0025   -5.0942   27.4586 C   0  0  0  0  0  0  0  0  0  0  0  0
    2.2474   -8.9123   16.6273 C   0  0  0  0  0  0  0  0  0  0  0  0
    4.4957   -9.2636   17.3041 C   0  0  0  0  0  0  0  0  0  0  0  0
   -1.8070   -5.6086   28.1920 O   0  0  0  0  0  0  0  0  0  0  0  0
   10.4296   -5.1799   28.3140 C   0  0  0  0  0  0  0  0  0  0  0  0
    6.6017   -5.9004   26.9187 C   0  0  0  0  0  0  0  0  0  0  0  0
    2.4761   -6.9940   26.4111 N   0  0  0  0  0  0  0  0  0  0  0  0
    9.1353   -5.4053   27.8239 C   0  0  0  0  0  0  0  0  0  0  0  0
    0.9922   -9.3232   16.5995 O   0  0  0  0  0  0  0  0  0  0  0  0
    1.5232   -7.6869   27.1182 C   0  0  0  0  0  0  0  0  0  0  0  0
    8.6878   -6.6715   27.7262 N   0  0  0  0  0  0  0  0  0  0  0  0
    6.9911   -8.2423   27.1808 C   0  0  0  0  0  0  0  0  0  0  0  0
    3.8436   -7.2758   16.0578 C   0  0  0  0  0  0  0  0  0  0  0  0
    3.1882   -9.7190   17.2566 C   0  0  0  0  0  0  0  0  0  0  0  0
    5.3488   -6.1737   26.5092 C   0  0  0  0  0  0  0  0  0  0  0  0
    7.4567   -6.9464   27.2858 C   0  0  0  0  0  0  0  0  0  0  0  0
    0.1921   -5.7592   27.1123 C   0  0  0  0  0  0  0  0  0  0  0  0
    3.5517   -7.7407   25.9711 C   0  0  0  0  0  0  0  0  0  0  0  0
  1  4  4  0
  1 22  4  0
  2 20  4  0
  2 27  4  0
  3 12  4  0
  3 23  4  0
  4 25  4  0
  4 28  1  0
  5  8  4  0
  5 17  4  0
  6  7  4  0
  6 16  4  0
  7 18  4  0
  8 27  4  0
  9 13  4  0
  9 23  4  0
 10 11  1  0
 11 14  2  0
 11 27  1  0
 12 19  1  0
 12 24  4  0
 13 24  4  0
 15 18  1  0
 16 25  4  0
 16 26  4  0
 17 20  4  0
 17 28  1  0
 18 21  4  0
 21 26  4  0
 22 26  4  0
M  END
$$$$

 Created by Python create_sdf_string function

 28 30  0  0  0  0  0  0  0  0999 V2000
    5.7174   -8.4529   26.7190 C   0  0  0  0  0  0  0  0  0  0  0  0
    0.3974   -7.0711   27.5149 C   0  0  0  0  0  0  0  0  0  0  0  0
    2.5338   -7.6891   16.0102 C   0  0  0  0  0  0  0  0  0  0  0  0
    4.8690   -7.4380   26.4151 C   0  0  0  0  0  0  0  0  0  0  0  0
    2.3021   -5.6726   26.0378 C   0  0  0  0  0  0  0  0  0  0  0  0
    7.0880   -4.6163   27.0010 C   0  0  0  0  0  0  0  0  0  0  0  0
    8.3117   -4.3698   27.4436 C   0  0  0  0  0  0  0  0  0  0  0  0
    1.1339   -5.0515   26.3541 C   0  0  0  0  0  0  0  0  0  0  0  0
    4.8080   -8.0362   16.7101 C   0  0  0  0  0  0  0  0  0  0  0  0
   -1.2173   -3.9294   26.9717 O   0  0  0  0  0  0  0  0  0  0  0  0
   -1.0025   -5.0942   27.4586 C   0  0  0  0  0  0  0  0  0  0  0  0
    2.2474   -8.9123   16.6273 C   0  0  0  0  0  0  0  0  0  0  0  0
    4.4957   -9.2636   17.3041 C   0  0  0  0  0  0  0  0  0  0  0  0
   -1.8070   -5.6086   28.1920 O   0  0  0  0  0  0  0  0  0  0  0  0
   10.4296   -5.1799   28.3140 C   0  0  0  0  0  0  0  0  0  0  0  0
    6.6017   -5.9004   26.9187 C   0  0  0  0  0  0  0  0  0  0  0  0
    2.4761   -6.9940   26.4111 N   0  0  0  0  0  0  0  0  0  0  0  0
    9.1353   -5.4053   27.8239 C   0  0  0  0  0  0  0  0  0  0  0  0
    0.9922   -9.3232   16.5995 O   0  0  0  0  0  0  0  0  0  0  0  0
    1.5232   -7.6869   27.1182 C   0  0  0  0  0  0  0  0  0  0  0  0
    8.6878   -6.6715   27.7262 N   0  0  0  0  0  0  0  0  0  0  0  0
    6.9911   -8.2423   27.1808 C   0  0  0  0  0  0  0  0  0  0  0  0
    3.8436   -7.2758   16.0578 C   0  0  0  0  0  0  0  0  0  0  0  0
    3.1882   -9.7190   17.2566 C   0  0  0  0  0  0  0  0  0  0  0  0
    5.3488   -6.1737   26.5092 C   0  0  0  0  0  0  0  0  0  0  0  0
    7.4567   -6.9464   27.2858 C   0  0  0  0  0  0  0  0  0  0  0  0
    0.1921   -5.7592   27.1123 C   0  0  0  0  0  0  0  0  0  0  0  0
    3.5517   -7.7407   25.9711 C   0  0  0  0  0  0  0  0  0  0  0  0
  1  4  4  0
  1 22  4  0
  2 20  4  0
  2 27  4  0
  3 12  4  0
  3 23  4  0
  4 25  4  0
  4 28  1  0
  5  8  4  0
  5 17  4  0
  6  7  4  0
  6 16  4  0
  7 18  4  0
  8 27  4  0
  9 13  4  0
  9 23  4  0
 10 11  1  0
 11 14  2  0
 11 27  1  0
 12 19  1  0
 12 24  4  0
 13 24  4  0
 15 18  1  0
 16 25  4  0
 16 26  4  0
 17 20  4  0
 17 28  1  0
 18 21  4  0
 21 26  4  0
 22 26  4  0
M  END
$$$$

 Created by Python create_sdf_string function

 28 30  0  0  0  0  0  0  0  0999 V2000
    5.7174   -8.4529   26.7190 C   0  0  0  0  0  0  0  0  0  0  0  0
    0.3974   -7.0711   27.5149 C   0  0  0  0  0  0  0  0  0  0  0  0
    2.5338   -7.6891   16.0102 C   0  0  0  0  0  0  0  0  0  0  0  0
    4.8690   -7.4380   26.4151 C   0  0  0  0  0  0  0  0  0  0  0  0
    2.3021   -5.6726   26.0378 C   0  0  0  0  0  0  0  0  0  0  0  0
    7.0880   -4.6163   27.0010 C   0  0  0  0  0  0  0  0  0  0  0  0
    8.3117   -4.3698   27.4436 C   0  0  0  0  0  0  0  0  0  0  0  0
    1.1339   -5.0515   26.3541 C   0  0  0  0  0  0  0  0  0  0  0  0
    4.8080   -8.0362   16.7101 C   0  0  0  0  0  0  0  0  0  0  0  0
   -1.2173   -3.9294   26.9717 O   0  0  0  0  0  0  0  0  0  0  0  0
   -1.0025   -5.0942   27.4586 C   0  0  0  0  0  0  0  0  0  0  0  0
    2.2474   -8.9123   16.6273 C   0  0  0  0  0  0  0  0  0  0  0  0
    4.4957   -9.2636   17.3041 C   0  0  0  0  0  0  0  0  0  0  0  0
   -1.8070   -5.6086   28.1920 O   0  0  0  0  0  0  0  0  0  0  0  0
   10.4296   -5.1799   28.3140 C   0  0  0  0  0  0  0  0  0  0  0  0
    6.6017   -5.9004   26.9187 C   0  0  0  0  0  0  0  0  0  0  0  0
    2.4761   -6.9940   26.4111 N   0  0  0  0  0  0  0  0  0  0  0  0
    9.1353   -5.4053   27.8239 C   0  0  0  0  0  0  0  0  0  0  0  0
    0.9922   -9.3232   16.5995 O   0  0  0  0  0  0  0  0  0  0  0  0
    1.5232   -7.6869   27.1182 C   0  0  0  0  0  0  0  0  0  0  0  0
    8.6878   -6.6715   27.7262 N   0  0  0  0  0  0  0  0  0  0  0  0
    6.9911   -8.2423   27.1808 C   0  0  0  0  0  0  0  0  0  0  0  0
    3.8436   -7.2758   16.0578 C   0  0  0  0  0  0  0  0  0  0  0  0
    3.1882   -9.7190   17.2566 C   0  0  0  0  0  0  0  0  0  0  0  0
    5.3488   -6.1737   26.5092 C   0  0  0  0  0  0  0  0  0  0  0  0
    7.4567   -6.9464   27.2858 C   0  0  0  0  0  0  0  0  0  0  0  0
    0.1921   -5.7592   27.1123 C   0  0  0  0  0  0  0  0  0  0  0  0
    3.5517   -7.7407   25.9711 C   0  0  0  0  0  0  0  0  0  0  0  0
  1  4  4  0
  1 22  4  0
  2 20  4  0
  2 27  4  0
  3 12  4  0
  3 23  4  0
  4 25  4  0
  4 28  1  0
  5  8  4  0
  5 17  4  0
  6  7  4  0
  6 16  4  0
  7 18  4  0
  8 27  4  0
  9 13  4  0
  9 23  4  0
 10 11  1  0
 11 14  2  0
 11 27  1  0
 12 19  1  0
 12 24  4  0
 13 24  4  0
 15 18  1  0
 16 25  4  0
 16 26  4  0
 17 20  4  0
 17 28  1  0
 18 21  4  0
 21 26  4  0
 22 26  4  0
M  END
$$$$

 Created by Python create_sdf_string function

 28 30  0  0  0  0  0  0  0  0999 V2000
    5.7174   -8.4529   26.7190 C   0  0  0  0  0  0  0  0  0  0  0  0
    0.3974   -7.0711   27.5149 C   0  0  0  0  0  0  0  0  0  0  0  0
    2.5338   -7.6891   16.0102 C   0  0  0  0  0  0  0  0  0  0  0  0
    4.8690   -7.4380   26.4151 C   0  0  0  0  0  0  0  0  0  0  0  0
    2.3021   -5.6726   26.0378 C   0  0  0  0  0  0  0  0  0  0  0  0
    7.0880   -4.6163   27.0010 C   0  0  0  0  0  0  0  0  0  0  0  0
    8.3117   -4.3698   27.4436 C   0  0  0  0  0  0  0  0  0  0  0  0
    1.1339   -5.0515   26.3541 C   0  0  0  0  0  0  0  0  0  0  0  0
    4.8080   -8.0362   16.7101 C   0  0  0  0  0  0  0  0  0  0  0  0
   -1.2173   -3.9294   26.9717 O   0  0  0  0  0  0  0  0  0  0  0  0
   -1.0025   -5.0942   27.4586 C   0  0  0  0  0  0  0  0  0  0  0  0
    2.2474   -8.9123   16.6273 C   0  0  0  0  0  0  0  0  0  0  0  0
    4.4957   -9.2636   17.3041 C   0  0  0  0  0  0  0  0  0  0  0  0
   -1.8070   -5.6086   28.1920 O   0  0  0  0  0  0  0  0  0  0  0  0
   10.4296   -5.1799   28.3140 C   0  0  0  0  0  0  0  0  0  0  0  0
    6.6017   -5.9004   26.9187 C   0  0  0  0  0  0  0  0  0  0  0  0
    2.4761   -6.9940   26.4111 N   0  0  0  0  0  0  0  0  0  0  0  0
    9.1353   -5.4053   27.8239 C   0  0  0  0  0  0  0  0  0  0  0  0
    0.9922   -9.3232   16.5995 O   0  0  0  0  0  0  0  0  0  0  0  0
    1.5232   -7.6869   27.1182 C   0  0  0  0  0  0  0  0  0  0  0  0
    8.6878   -6.6715   27.7262 N   0  0  0  0  0  0  0  0  0  0  0  0
    6.9911   -8.2423   27.1808 C   0  0  0  0  0  0  0  0  0  0  0  0
    3.8436   -7.2758   16.0578 C   0  0  0  0  0  0  0  0  0  0  0  0
    3.1882   -9.7190   17.2566 C   0  0  0  0  0  0  0  0  0  0  0  0
    5.3488   -6.1737   26.5092 C   0  0  0  0  0  0  0  0  0  0  0  0
    7.4567   -6.9464   27.2858 C   0  0  0  0  0  0  0  0  0  0  0  0
    0.1921   -5.7592   27.1123 C   0  0  0  0  0  0  0  0  0  0  0  0
    3.5517   -7.7407   25.9711 C   0  0  0  0  0  0  0  0  0  0  0  0
  1  4  4  0
  1 22  4  0
  2 20  4  0
  2 27  4  0
  3 12  4  0
  3 23  4  0
  4 25  4  0
  4 28  1  0
  5  8  4  0
  5 17  4  0
  6  7  4  0
  6 16  4  0
  7 18  4  0
  8 27  4  0
  9 13  4  0
  9 23  4  0
 10 11  1  0
 11 14  2  0
 11 27  1  0
 12 19  1  0
 12 24  4  0
 13 24  4  0
 15 18  1  0
 16 25  4  0
 16 26  4  0
 17 20  4  0
 17 28  1  0
 18 21  4  0
 21 26  4  0
 22 26  4  0
M  END
$$$$

 Created by Python create_sdf_string function

 28 30  0  0  0  0  0  0  0  0999 V2000
    5.7174   -8.4529   26.7190 C   0  0  0  0  0  0  0  0  0  0  0  0
    0.3974   -7.0711   27.5149 C   0  0  0  0  0  0  0  0  0  0  0  0
    2.5338   -7.6891   16.0102 C   0  0  0  0  0  0  0  0  0  0  0  0
    4.8690   -7.4380   26.4151 C   0  0  0  0  0  0  0  0  0  0  0  0
    2.3021   -5.6726   26.0378 C   0  0  0  0  0  0  0  0  0  0  0  0
    7.0880   -4.6163   27.0010 C   0  0  0  0  0  0  0  0  0  0  0  0
    8.3117   -4.3698   27.4436 C   0  0  0  0  0  0  0  0  0  0  0  0
    1.1339   -5.0515   26.3541 C   0  0  0  0  0  0  0  0  0  0  0  0
    4.8080   -8.0362   16.7101 C   0  0  0  0  0  0  0  0  0  0  0  0
   -1.2173   -3.9294   26.9717 O   0  0  0  0  0  0  0  0  0  0  0  0
   -1.0025   -5.0942   27.4586 C   0  0  0  0  0  0  0  0  0  0  0  0
    2.2474   -8.9123   16.6273 C   0  0  0  0  0  0  0  0  0  0  0  0
    4.4957   -9.2636   17.3041 C   0  0  0  0  0  0  0  0  0  0  0  0
   -1.8070   -5.6086   28.1920 O   0  0  0  0  0  0  0  0  0  0  0  0
   10.4296   -5.1799   28.3140 C   0  0  0  0  0  0  0  0  0  0  0  0
    6.6017   -5.9004   26.9187 C   0  0  0  0  0  0  0  0  0  0  0  0
    2.4761   -6.9940   26.4111 N   0  0  0  0  0  0  0  0  0  0  0  0
    9.1353   -5.4053   27.8239 C   0  0  0  0  0  0  0  0  0  0  0  0
    0.9922   -9.3232   16.5995 O   0  0  0  0  0  0  0  0  0  0  0  0
    1.5232   -7.6869   27.1182 C   0  0  0  0  0  0  0  0  0  0  0  0
    8.6878   -6.6715   27.7262 N   0  0  0  0  0  0  0  0  0  0  0  0
    6.9911   -8.2423   27.1808 C   0  0  0  0  0  0  0  0  0  0  0  0
    3.8436   -7.2758   16.0578 C   0  0  0  0  0  0  0  0  0  0  0  0
    3.1882   -9.7190   17.2566 C   0  0  0  0  0  0  0  0  0  0  0  0
    5.3488   -6.1737   26.5092 C   0  0  0  0  0  0  0  0  0  0  0  0
    7.4567   -6.9464   27.2858 C   0  0  0  0  0  0  0  0  0  0  0  0
    0.1921   -5.7592   27.1123 C   0  0  0  0  0  0  0  0  0  0  0  0
    3.5517   -7.7407   25.9711 C   0  0  0  0  0  0  0  0  0  0  0  0
  1  4  4  0
  1 22  4  0
  2 20  4  0
  2 27  4  0
  3 12  4  0
  3 23  4  0
  4 25  4  0
  4 28  1  0
  5  8  4  0
  5 17  4  0
  6  7  4  0
  6 16  4  0
  7 18  4  0
  8 27  4  0
  9 13  4  0
  9 23  4  0
 10 11  1  0
 11 14  2  0
 11 27  1  0
 12 19  1  0
 12 24  4  0
 13 24  4  0
 15 18  1  0
 16 25  4  0
 16 26  4  0
 17 20  4  0
 17 28  1  0
 18 21  4  0
 21 26  4  0
 22 26  4  0
M  END
$$$$

 Created by Python create_sdf_string function

 28 30  0  0  0  0  0  0  0  0999 V2000
    5.7174   -8.4529   26.7190 C   0  0  0  0  0  0  0  0  0  0  0  0
    0.3974   -7.0711   27.5149 C   0  0  0  0  0  0  0  0  0  0  0  0
    2.5338   -7.6891   16.0102 C   0  0  0  0  0  0  0  0  0  0  0  0
    4.8690   -7.4380   26.4151 C   0  0  0  0  0  0  0  0  0  0  0  0
    2.3021   -5.6726   26.0378 C   0  0  0  0  0  0  0  0  0  0  0  0
    7.0880   -4.6163   27.0010 C   0  0  0  0  0  0  0  0  0  0  0  0
    8.3117   -4.3698   27.4436 C   0  0  0  0  0  0  0  0  0  0  0  0
    1.1339   -5.0515   26.3541 C   0  0  0  0  0  0  0  0  0  0  0  0
    4.8080   -8.0362   16.7101 C   0  0  0  0  0  0  0  0  0  0  0  0
   -1.2173   -3.9294   26.9717 O   0  0  0  0  0  0  0  0  0  0  0  0
   -1.0025   -5.0942   27.4586 C   0  0  0  0  0  0  0  0  0  0  0  0
    2.2474   -8.9123   16.6273 C   0  0  0  0  0  0  0  0  0  0  0  0
    4.4957   -9.2636   17.3041 C   0  0  0  0  0  0  0  0  0  0  0  0
   -1.8070   -5.6086   28.1920 O   0  0  0  0  0  0  0  0  0  0  0  0
   10.4296   -5.1799   28.3140 C   0  0  0  0  0  0  0  0  0  0  0  0
    6.6017   -5.9004   26.9187 C   0  0  0  0  0  0  0  0  0  0  0  0
    2.4761   -6.9940   26.4111 N   0  0  0  0  0  0  0  0  0  0  0  0
    9.1353   -5.4053   27.8239 C   0  0  0  0  0  0  0  0  0  0  0  0
    0.9922   -9.3232   16.5995 O   0  0  0  0  0  0  0  0  0  0  0  0
    1.5232   -7.6869   27.1182 C   0  0  0  0  0  0  0  0  0  0  0  0
    8.6878   -6.6715   27.7262 N   0  0  0  0  0  0  0  0  0  0  0  0
    6.9911   -8.2423   27.1808 C   0  0  0  0  0  0  0  0  0  0  0  0
    3.8436   -7.2758   16.0578 C   0  0  0  0  0  0  0  0  0  0  0  0
    3.1882   -9.7190   17.2566 C   0  0  0  0  0  0  0  0  0  0  0  0
    5.3488   -6.1737   26.5092 C   0  0  0  0  0  0  0  0  0  0  0  0
    7.4567   -6.9464   27.2858 C   0  0  0  0  0  0  0  0  0  0  0  0
    0.1921   -5.7592   27.1123 C   0  0  0  0  0  0  0  0  0  0  0  0
    3.5517   -7.7407   25.9711 C   0  0  0  0  0  0  0  0  0  0  0  0
  1  4  4  0
  1 22  4  0
  2 20  4  0
  2 27  4  0
  3 12  4  0
  3 23  4  0
  4 25  4  0
  4 28  1  0
  5  8  4  0
  5 17  4  0
  6  7  4  0
  6 16  4  0
  7 18  4  0
  8 27  4  0
  9 13  4  0
  9 23  4  0
 10 11  1  0
 11 14  2  0
 11 27  1  0
 12 19  1  0
 12 24  4  0
 13 24  4  0
 15 18  1  0
 16 25  4  0
 16 26  4  0
 17 20  4  0
 17 28  1  0
 18 21  4  0
 21 26  4  0
 22 26  4  0
M  END
$$$$

 Created by Python create_sdf_string function

 28 30  0  0  0  0  0  0  0  0999 V2000
    5.7174   -8.4529   26.7190 C   0  0  0  0  0  0  0  0  0  0  0  0
    0.3974   -7.0711   27.5149 C   0  0  0  0  0  0  0  0  0  0  0  0
    2.5338   -7.6891   16.0102 C   0  0  0  0  0  0  0  0  0  0  0  0
    4.8690   -7.4380   26.4151 C   0  0  0  0  0  0  0  0  0  0  0  0
    2.3021   -5.6726   26.0378 C   0  0  0  0  0  0  0  0  0  0  0  0
    7.0880   -4.6163   27.0010 C   0  0  0  0  0  0  0  0  0  0  0  0
    8.3117   -4.3698   27.4436 C   0  0  0  0  0  0  0  0  0  0  0  0
    1.1339   -5.0515   26.3541 C   0  0  0  0  0  0  0  0  0  0  0  0
    4.8080   -8.0362   16.7101 C   0  0  0  0  0  0  0  0  0  0  0  0
   -1.2173   -3.9294   26.9717 O   0  0  0  0  0  0  0  0  0  0  0  0
   -1.0025   -5.0942   27.4586 C   0  0  0  0  0  0  0  0  0  0  0  0
    2.2474   -8.9123   16.6273 C   0  0  0  0  0  0  0  0  0  0  0  0
    4.4957   -9.2636   17.3041 C   0  0  0  0  0  0  0  0  0  0  0  0
   -1.8070   -5.6086   28.1920 O   0  0  0  0  0  0  0  0  0  0  0  0
   10.4296   -5.1799   28.3140 C   0  0  0  0  0  0  0  0  0  0  0  0
    6.6017   -5.9004   26.9187 C   0  0  0  0  0  0  0  0  0  0  0  0
    2.4761   -6.9940   26.4111 N   0  0  0  0  0  0  0  0  0  0  0  0
    9.1353   -5.4053   27.8239 C   0  0  0  0  0  0  0  0  0  0  0  0
    0.9922   -9.3232   16.5995 O   0  0  0  0  0  0  0  0  0  0  0  0
    1.5232   -7.6869   27.1182 C   0  0  0  0  0  0  0  0  0  0  0  0
    8.6878   -6.6715   27.7262 N   0  0  0  0  0  0  0  0  0  0  0  0
    6.9911   -8.2423   27.1808 C   0  0  0  0  0  0  0  0  0  0  0  0
    3.8436   -7.2758   16.0578 C   0  0  0  0  0  0  0  0  0  0  0  0
    3.1882   -9.7190   17.2566 C   0  0  0  0  0  0  0  0  0  0  0  0
    5.3488   -6.1737   26.5092 C   0  0  0  0  0  0  0  0  0  0  0  0
    7.4567   -6.9464   27.2858 C   0  0  0  0  0  0  0  0  0  0  0  0
    0.1921   -5.7592   27.1123 C   0  0  0  0  0  0  0  0  0  0  0  0
    3.5517   -7.7407   25.9711 C   0  0  0  0  0  0  0  0  0  0  0  0
  1  4  4  0
  1 22  4  0
  2 20  4  0
  2 27  4  0
  3 12  4  0
  3 23  4  0
  4 25  4  0
  4 28  1  0
  5  8  4  0
  5 17  4  0
  6  7  4  0
  6 16  4  0
  7 18  4  0
  8 27  4  0
  9 13  4  0
  9 23  4  0
 10 11  1  0
 11 14  2  0
 11 27  1  0
 12 19  1  0
 12 24  4  0
 13 24  4  0
 15 18  1  0
 16 25  4  0
 16 26  4  0
 17 20  4  0
 17 28  1  0
 18 21  4  0
 21 26  4  0
 22 26  4  0
M  END
$$$$

 Created by Python create_sdf_string function

 28 30  0  0  0  0  0  0  0  0999 V2000
    5.7174   -8.4529   26.7190 C   0  0  0  0  0  0  0  0  0  0  0  0
    0.3974   -7.0711   27.5149 C   0  0  0  0  0  0  0  0  0  0  0  0
    2.5338   -7.6891   16.0102 C   0  0  0  0  0  0  0  0  0  0  0  0
    4.8690   -7.4380   26.4151 C   0  0  0  0  0  0  0  0  0  0  0  0
    2.3021   -5.6726   26.0378 C   0  0  0  0  0  0  0  0  0  0  0  0
    7.0880   -4.6163   27.0010 C   0  0  0  0  0  0  0  0  0  0  0  0
    8.3117   -4.3698   27.4436 C   0  0  0  0  0  0  0  0  0  0  0  0
    1.1339   -5.0515   26.3541 C   0  0  0  0  0  0  0  0  0  0  0  0
    4.8080   -8.0362   16.7101 C   0  0  0  0  0  0  0  0  0  0  0  0
   -1.2173   -3.9294   26.9717 O   0  0  0  0  0  0  0  0  0  0  0  0
   -1.0025   -5.0942   27.4586 C   0  0  0  0  0  0  0  0  0  0  0  0
    2.2474   -8.9123   16.6273 C   0  0  0  0  0  0  0  0  0  0  0  0
    4.4957   -9.2636   17.3041 C   0  0  0  0  0  0  0  0  0  0  0  0
   -1.8070   -5.6086   28.1920 O   0  0  0  0  0  0  0  0  0  0  0  0
   10.4296   -5.1799   28.3140 C   0  0  0  0  0  0  0  0  0  0  0  0
    6.6017   -5.9004   26.9187 C   0  0  0  0  0  0  0  0  0  0  0  0
    2.4761   -6.9940   26.4111 N   0  0  0  0  0  0  0  0  0  0  0  0
    9.1353   -5.4053   27.8239 C   0  0  0  0  0  0  0  0  0  0  0  0
    0.9922   -9.3232   16.5995 O   0  0  0  0  0  0  0  0  0  0  0  0
    1.5232   -7.6869   27.1182 C   0  0  0  0  0  0  0  0  0  0  0  0
    8.6878   -6.6715   27.7262 N   0  0  0  0  0  0  0  0  0  0  0  0
    6.9911   -8.2423   27.1808 C   0  0  0  0  0  0  0  0  0  0  0  0
    3.8436   -7.2758   16.0578 C   0  0  0  0  0  0  0  0  0  0  0  0
    3.1882   -9.7190   17.2566 C   0  0  0  0  0  0  0  0  0  0  0  0
    5.3488   -6.1737   26.5092 C   0  0  0  0  0  0  0  0  0  0  0  0
    7.4567   -6.9464   27.2858 C   0  0  0  0  0  0  0  0  0  0  0  0
    0.1921   -5.7592   27.1123 C   0  0  0  0  0  0  0  0  0  0  0  0
    3.5517   -7.7407   25.9711 C   0  0  0  0  0  0  0  0  0  0  0  0
  1  4  4  0
  1 22  4  0
  2 20  4  0
  2 27  4  0
  3 12  4  0
  3 23  4  0
  4 25  4  0
  4 28  1  0
  5  8  4  0
  5 17  4  0
  6  7  4  0
  6 16  4  0
  7 18  4  0
  8 27  4  0
  9 13  4  0
  9 23  4  0
 10 11  1  0
 11 14  2  0
 11 27  1  0
 12 19  1  0
 12 24  4  0
 13 24  4  0
 15 18  1  0
 16 25  4  0
 16 26  4  0
 17 20  4  0
 17 28  1  0
 18 21  4  0
 21 26  4  0
 22 26  4  0
M  END
$$$$

 Created by Python create_sdf_string function

 28 30  0  0  0  0  0  0  0  0999 V2000
    5.7174   -8.4529   26.7190 C   0  0  0  0  0  0  0  0  0  0  0  0
    0.3974   -7.0711   27.5149 C   0  0  0  0  0  0  0  0  0  0  0  0
    2.5338   -7.6891   16.0102 C   0  0  0  0  0  0  0  0  0  0  0  0
    4.8690   -7.4380   26.4151 C   0  0  0  0  0  0  0  0  0  0  0  0
    2.3021   -5.6726   26.0378 C   0  0  0  0  0  0  0  0  0  0  0  0
    7.0880   -4.6163   27.0010 C   0  0  0  0  0  0  0  0  0  0  0  0
    8.3117   -4.3698   27.4436 C   0  0  0  0  0  0  0  0  0  0  0  0
    1.1339   -5.0515   26.3541 C   0  0  0  0  0  0  0  0  0  0  0  0
    4.8080   -8.0362   16.7101 C   0  0  0  0  0  0  0  0  0  0  0  0
   -1.2173   -3.9294   26.9717 O   0  0  0  0  0  0  0  0  0  0  0  0
   -1.0025   -5.0942   27.4586 C   0  0  0  0  0  0  0  0  0  0  0  0
    2.2474   -8.9123   16.6273 C   0  0  0  0  0  0  0  0  0  0  0  0
    4.4957   -9.2636   17.3041 C   0  0  0  0  0  0  0  0  0  0  0  0
   -1.8070   -5.6086   28.1920 O   0  0  0  0  0  0  0  0  0  0  0  0
   10.4296   -5.1799   28.3140 C   0  0  0  0  0  0  0  0  0  0  0  0
    6.6017   -5.9004   26.9187 C   0  0  0  0  0  0  0  0  0  0  0  0
    2.4761   -6.9940   26.4111 N   0  0  0  0  0  0  0  0  0  0  0  0
    9.1353   -5.4053   27.8239 C   0  0  0  0  0  0  0  0  0  0  0  0
    0.9922   -9.3232   16.5995 O   0  0  0  0  0  0  0  0  0  0  0  0
    1.5232   -7.6869   27.1182 C   0  0  0  0  0  0  0  0  0  0  0  0
    8.6878   -6.6715   27.7262 N   0  0  0  0  0  0  0  0  0  0  0  0
    6.9911   -8.2423   27.1808 C   0  0  0  0  0  0  0  0  0  0  0  0
    3.8436   -7.2758   16.0578 C   0  0  0  0  0  0  0  0  0  0  0  0
    3.1882   -9.7190   17.2566 C   0  0  0  0  0  0  0  0  0  0  0  0
    5.3488   -6.1737   26.5092 C   0  0  0  0  0  0  0  0  0  0  0  0
    7.4567   -6.9464   27.2858 C   0  0  0  0  0  0  0  0  0  0  0  0
    0.1921   -5.7592   27.1123 C   0  0  0  0  0  0  0  0  0  0  0  0
    3.5517   -7.7407   25.9711 C   0  0  0  0  0  0  0  0  0  0  0  0
  1  4  4  0
  1 22  4  0
  2 20  4  0
  2 27  4  0
  3 12  4  0
  3 23  4  0
  4 25  4  0
  4 28  1  0
  5  8  4  0
  5 17  4  0
  6  7  4  0
  6 16  4  0
  7 18  4  0
  8 27  4  0
  9 13  4  0
  9 23  4  0
 10 11  1  0
 11 14  2  0
 11 27  1  0
 12 19  1  0
 12 24  4  0
 13 24  4  0
 15 18  1  0
 16 25  4  0
 16 26  4  0
 17 20  4  0
 17 28  1  0
 18 21  4  0
 21 26  4  0
 22 26  4  0
M  END
$$$$

 Created by Python create_sdf_string function

 28 30  0  0  0  0  0  0  0  0999 V2000
    5.7174   -8.4529   26.7190 C   0  0  0  0  0  0  0  0  0  0  0  0
    0.3974   -7.0711   27.5149 C   0  0  0  0  0  0  0  0  0  0  0  0
    2.5338   -7.6891   16.0102 C   0  0  0  0  0  0  0  0  0  0  0  0
    4.8690   -7.4380   26.4151 C   0  0  0  0  0  0  0  0  0  0  0  0
    2.3021   -5.6726   26.0378 C   0  0  0  0  0  0  0  0  0  0  0  0
    7.0880   -4.6163   27.0010 C   0  0  0  0  0  0  0  0  0  0  0  0
    8.3117   -4.3698   27.4436 C   0  0  0  0  0  0  0  0  0  0  0  0
    1.1339   -5.0515   26.3541 C   0  0  0  0  0  0  0  0  0  0  0  0
    4.8080   -8.0362   16.7101 C   0  0  0  0  0  0  0  0  0  0  0  0
   -1.2173   -3.9294   26.9717 O   0  0  0  0  0  0  0  0  0  0  0  0
   -1.0025   -5.0942   27.4586 C   0  0  0  0  0  0  0  0  0  0  0  0
    2.2474   -8.9123   16.6273 C   0  0  0  0  0  0  0  0  0  0  0  0
    4.4957   -9.2636   17.3041 C   0  0  0  0  0  0  0  0  0  0  0  0
   -1.8070   -5.6086   28.1920 O   0  0  0  0  0  0  0  0  0  0  0  0
   10.4296   -5.1799   28.3140 C   0  0  0  0  0  0  0  0  0  0  0  0
    6.6017   -5.9004   26.9187 C   0  0  0  0  0  0  0  0  0  0  0  0
    2.4761   -6.9940   26.4111 N   0  0  0  0  0  0  0  0  0  0  0  0
    9.1353   -5.4053   27.8239 C   0  0  0  0  0  0  0  0  0  0  0  0
    0.9922   -9.3232   16.5995 O   0  0  0  0  0  0  0  0  0  0  0  0
    1.5232   -7.6869   27.1182 C   0  0  0  0  0  0  0  0  0  0  0  0
    8.6878   -6.6715   27.7262 N   0  0  0  0  0  0  0  0  0  0  0  0
    6.9911   -8.2423   27.1808 C   0  0  0  0  0  0  0  0  0  0  0  0
    3.8436   -7.2758   16.0578 C   0  0  0  0  0  0  0  0  0  0  0  0
    3.1882   -9.7190   17.2566 C   0  0  0  0  0  0  0  0  0  0  0  0
    5.3488   -6.1737   26.5092 C   0  0  0  0  0  0  0  0  0  0  0  0
    7.4567   -6.9464   27.2858 C   0  0  0  0  0  0  0  0  0  0  0  0
    0.1921   -5.7592   27.1123 C   0  0  0  0  0  0  0  0  0  0  0  0
    3.5517   -7.7407   25.9711 C   0  0  0  0  0  0  0  0  0  0  0  0
  1  4  4  0
  1 22  4  0
  2 20  4  0
  2 27  4  0
  3 12  4  0
  3 23  4  0
  4 25  4  0
  4 28  1  0
  5  8  4  0
  5 17  4  0
  6  7  4  0
  6 16  4  0
  7 18  4  0
  8 27  4  0
  9 13  4  0
  9 23  4  0
 10 11  1  0
 11 14  2  0
 11 27  1  0
 12 19  1  0
 12 24  4  0
 13 24  4  0
 15 18  1  0
 16 25  4  0
 16 26  4  0
 17 20  4  0
 17 28  1  0
 18 21  4  0
 21 26  4  0
 22 26  4  0
M  END
$$$$

 Created by Python create_sdf_string function

 28 30  0  0  0  0  0  0  0  0999 V2000
    5.7174   -8.4529   26.7190 C   0  0  0  0  0  0  0  0  0  0  0  0
    0.3974   -7.0711   27.5149 C   0  0  0  0  0  0  0  0  0  0  0  0
    2.5338   -7.6891   16.0102 C   0  0  0  0  0  0  0  0  0  0  0  0
    4.8690   -7.4380   26.4151 C   0  0  0  0  0  0  0  0  0  0  0  0
    2.3021   -5.6726   26.0378 C   0  0  0  0  0  0  0  0  0  0  0  0
    7.0880   -4.6163   27.0010 C   0  0  0  0  0  0  0  0  0  0  0  0
    8.3117   -4.3698   27.4436 C   0  0  0  0  0  0  0  0  0  0  0  0
    1.1339   -5.0515   26.3541 C   0  0  0  0  0  0  0  0  0  0  0  0
    4.8080   -8.0362   16.7101 C   0  0  0  0  0  0  0  0  0  0  0  0
   -1.2173   -3.9294   26.9717 O   0  0  0  0  0  0  0  0  0  0  0  0
   -1.0025   -5.0942   27.4586 C   0  0  0  0  0  0  0  0  0  0  0  0
    2.2474   -8.9123   16.6273 C   0  0  0  0  0  0  0  0  0  0  0  0
    4.4957   -9.2636   17.3041 C   0  0  0  0  0  0  0  0  0  0  0  0
   -1.8070   -5.6086   28.1920 O   0  0  0  0  0  0  0  0  0  0  0  0
   10.4296   -5.1799   28.3140 C   0  0  0  0  0  0  0  0  0  0  0  0
    6.6017   -5.9004   26.9187 C   0  0  0  0  0  0  0  0  0  0  0  0
    2.4761   -6.9940   26.4111 N   0  0  0  0  0  0  0  0  0  0  0  0
    9.1353   -5.4053   27.8239 C   0  0  0  0  0  0  0  0  0  0  0  0
    0.9922   -9.3232   16.5995 O   0  0  0  0  0  0  0  0  0  0  0  0
    1.5232   -7.6869   27.1182 C   0  0  0  0  0  0  0  0  0  0  0  0
    8.6878   -6.6715   27.7262 N   0  0  0  0  0  0  0  0  0  0  0  0
    6.9911   -8.2423   27.1808 C   0  0  0  0  0  0  0  0  0  0  0  0
    3.8436   -7.2758   16.0578 C   0  0  0  0  0  0  0  0  0  0  0  0
    3.1882   -9.7190   17.2566 C   0  0  0  0  0  0  0  0  0  0  0  0
    5.3488   -6.1737   26.5092 C   0  0  0  0  0  0  0  0  0  0  0  0
    7.4567   -6.9464   27.2858 C   0  0  0  0  0  0  0  0  0  0  0  0
    0.1921   -5.7592   27.1123 C   0  0  0  0  0  0  0  0  0  0  0  0
    3.5517   -7.7407   25.9711 C   0  0  0  0  0  0  0  0  0  0  0  0
  1  4  4  0
  1 22  4  0
  2 20  4  0
  2 27  4  0
  3 12  4  0
  3 23  4  0
  4 25  4  0
  4 28  1  0
  5  8  4  0
  5 17  4  0
  6  7  4  0
  6 16  4  0
  7 18  4  0
  8 27  4  0
  9 13  4  0
  9 23  4  0
 10 11  1  0
 11 14  2  0
 11 27  1  0
 12 19  1  0
 12 24  4  0
 13 24  4  0
 15 18  1  0
 16 25  4  0
 16 26  4  0
 17 20  4  0
 17 28  1  0
 18 21  4  0
 21 26  4  0
 22 26  4  0
M  END
$$$$

 Created by Python create_sdf_string function

 28 30  0  0  0  0  0  0  0  0999 V2000
    5.7174   -8.4529   26.7190 C   0  0  0  0  0  0  0  0  0  0  0  0
    0.3974   -7.0711   27.5149 C   0  0  0  0  0  0  0  0  0  0  0  0
    2.5338   -7.6891   16.0102 C   0  0  0  0  0  0  0  0  0  0  0  0
    4.8690   -7.4380   26.4151 C   0  0  0  0  0  0  0  0  0  0  0  0
    2.3021   -5.6726   26.0378 C   0  0  0  0  0  0  0  0  0  0  0  0
    7.0880   -4.6163   27.0010 C   0  0  0  0  0  0  0  0  0  0  0  0
    8.3117   -4.3698   27.4436 C   0  0  0  0  0  0  0  0  0  0  0  0
    1.1339   -5.0515   26.3541 C   0  0  0  0  0  0  0  0  0  0  0  0
    4.8080   -8.0362   16.7101 C   0  0  0  0  0  0  0  0  0  0  0  0
   -1.2173   -3.9294   26.9717 O   0  0  0  0  0  0  0  0  0  0  0  0
   -1.0025   -5.0942   27.4586 C   0  0  0  0  0  0  0  0  0  0  0  0
    2.2474   -8.9123   16.6273 C   0  0  0  0  0  0  0  0  0  0  0  0
    4.4957   -9.2636   17.3041 C   0  0  0  0  0  0  0  0  0  0  0  0
   -1.8070   -5.6086   28.1920 O   0  0  0  0  0  0  0  0  0  0  0  0
   10.4296   -5.1799   28.3140 C   0  0  0  0  0  0  0  0  0  0  0  0
    6.6017   -5.9004   26.9187 C   0  0  0  0  0  0  0  0  0  0  0  0
    2.4761   -6.9940   26.4111 N   0  0  0  0  0  0  0  0  0  0  0  0
    9.1353   -5.4053   27.8239 C   0  0  0  0  0  0  0  0  0  0  0  0
    0.9922   -9.3232   16.5995 O   0  0  0  0  0  0  0  0  0  0  0  0
    1.5232   -7.6869   27.1182 C   0  0  0  0  0  0  0  0  0  0  0  0
    8.6878   -6.6715   27.7262 N   0  0  0  0  0  0  0  0  0  0  0  0
    6.9911   -8.2423   27.1808 C   0  0  0  0  0  0  0  0  0  0  0  0
    3.8436   -7.2758   16.0578 C   0  0  0  0  0  0  0  0  0  0  0  0
    3.1882   -9.7190   17.2566 C   0  0  0  0  0  0  0  0  0  0  0  0
    5.3488   -6.1737   26.5092 C   0  0  0  0  0  0  0  0  0  0  0  0
    7.4567   -6.9464   27.2858 C   0  0  0  0  0  0  0  0  0  0  0  0
    0.1921   -5.7592   27.1123 C   0  0  0  0  0  0  0  0  0  0  0  0
    3.5517   -7.7407   25.9711 C   0  0  0  0  0  0  0  0  0  0  0  0
  1  4  4  0
  1 22  4  0
  2 20  4  0
  2 27  4  0
  3 12  4  0
  3 23  4  0
  4 25  4  0
  4 28  1  0
  5  8  4  0
  5 17  4  0
  6  7  4  0
  6 16  4  0
  7 18  4  0
  8 27  4  0
  9 13  4  0
  9 23  4  0
 10 11  1  0
 11 14  2  0
 11 27  1  0
 12 19  1  0
 12 24  4  0
 13 24  4  0
 15 18  1  0
 16 25  4  0
 16 26  4  0
 17 20  4  0
 17 28  1  0
 18 21  4  0
 21 26  4  0
 22 26  4  0
M  END
$$$$

 Created by Python create_sdf_string function

 28 30  0  0  0  0  0  0  0  0999 V2000
    5.7174   -8.4529   26.7190 C   0  0  0  0  0  0  0  0  0  0  0  0
    0.3974   -7.0711   27.5149 C   0  0  0  0  0  0  0  0  0  0  0  0
    2.5338   -7.6891   16.0102 C   0  0  0  0  0  0  0  0  0  0  0  0
    4.8690   -7.4380   26.4151 C   0  0  0  0  0  0  0  0  0  0  0  0
    2.3021   -5.6726   26.0378 C   0  0  0  0  0  0  0  0  0  0  0  0
    7.0880   -4.6163   27.0010 C   0  0  0  0  0  0  0  0  0  0  0  0
    8.3117   -4.3698   27.4436 C   0  0  0  0  0  0  0  0  0  0  0  0
    1.1339   -5.0515   26.3541 C   0  0  0  0  0  0  0  0  0  0  0  0
    4.8080   -8.0362   16.7101 C   0  0  0  0  0  0  0  0  0  0  0  0
   -1.2173   -3.9294   26.9717 O   0  0  0  0  0  0  0  0  0  0  0  0
   -1.0025   -5.0942   27.4586 C   0  0  0  0  0  0  0  0  0  0  0  0
    2.2474   -8.9123   16.6273 C   0  0  0  0  0  0  0  0  0  0  0  0
    4.4957   -9.2636   17.3041 C   0  0  0  0  0  0  0  0  0  0  0  0
   -1.8070   -5.6086   28.1920 O   0  0  0  0  0  0  0  0  0  0  0  0
   10.4296   -5.1799   28.3140 C   0  0  0  0  0  0  0  0  0  0  0  0
    6.6017   -5.9004   26.9187 C   0  0  0  0  0  0  0  0  0  0  0  0
    2.4761   -6.9940   26.4111 N   0  0  0  0  0  0  0  0  0  0  0  0
    9.1353   -5.4053   27.8239 C   0  0  0  0  0  0  0  0  0  0  0  0
    0.9922   -9.3232   16.5995 O   0  0  0  0  0  0  0  0  0  0  0  0
    1.5232   -7.6869   27.1182 C   0  0  0  0  0  0  0  0  0  0  0  0
    8.6878   -6.6715   27.7262 N   0  0  0  0  0  0  0  0  0  0  0  0
    6.9911   -8.2423   27.1808 C   0  0  0  0  0  0  0  0  0  0  0  0
    3.8436   -7.2758   16.0578 C   0  0  0  0  0  0  0  0  0  0  0  0
    3.1882   -9.7190   17.2566 C   0  0  0  0  0  0  0  0  0  0  0  0
    5.3488   -6.1737   26.5092 C   0  0  0  0  0  0  0  0  0  0  0  0
    7.4567   -6.9464   27.2858 C   0  0  0  0  0  0  0  0  0  0  0  0
    0.1921   -5.7592   27.1123 C   0  0  0  0  0  0  0  0  0  0  0  0
    3.5517   -7.7407   25.9711 C   0  0  0  0  0  0  0  0  0  0  0  0
  1  4  4  0
  1 22  4  0
  2 20  4  0
  2 27  4  0
  3 12  4  0
  3 23  4  0
  4 25  4  0
  4 28  1  0
  5  8  4  0
  5 17  4  0
  6  7  4  0
  6 16  4  0
  7 18  4  0
  8 27  4  0
  9 13  4  0
  9 23  4  0
 10 11  1  0
 11 14  2  0
 11 27  1  0
 12 19  1  0
 12 24  4  0
 13 24  4  0
 15 18  1  0
 16 25  4  0
 16 26  4  0
 17 20  4  0
 17 28  1  0
 18 21  4  0
 21 26  4  0
 22 26  4  0
M  END
$$$$

 Created by Python create_sdf_string function

 28 30  0  0  0  0  0  0  0  0999 V2000
    5.7174   -8.4529   26.7190 C   0  0  0  0  0  0  0  0  0  0  0  0
    0.3974   -7.0711   27.5149 C   0  0  0  0  0  0  0  0  0  0  0  0
    2.5338   -7.6891   16.0102 C   0  0  0  0  0  0  0  0  0  0  0  0
    4.8690   -7.4380   26.4151 C   0  0  0  0  0  0  0  0  0  0  0  0
    2.3021   -5.6726   26.0378 C   0  0  0  0  0  0  0  0  0  0  0  0
    7.0880   -4.6163   27.0010 C   0  0  0  0  0  0  0  0  0  0  0  0
    8.3117   -4.3698   27.4436 C   0  0  0  0  0  0  0  0  0  0  0  0
    1.1339   -5.0515   26.3541 C   0  0  0  0  0  0  0  0  0  0  0  0
    4.8080   -8.0362   16.7101 C   0  0  0  0  0  0  0  0  0  0  0  0
   -1.2173   -3.9294   26.9717 O   0  0  0  0  0  0  0  0  0  0  0  0
   -1.0025   -5.0942   27.4586 C   0  0  0  0  0  0  0  0  0  0  0  0
    2.2474   -8.9123   16.6273 C   0  0  0  0  0  0  0  0  0  0  0  0
    4.4957   -9.2636   17.3041 C   0  0  0  0  0  0  0  0  0  0  0  0
   -1.8070   -5.6086   28.1920 O   0  0  0  0  0  0  0  0  0  0  0  0
   10.4296   -5.1799   28.3140 C   0  0  0  0  0  0  0  0  0  0  0  0
    6.6017   -5.9004   26.9187 C   0  0  0  0  0  0  0  0  0  0  0  0
    2.4761   -6.9940   26.4111 N   0  0  0  0  0  0  0  0  0  0  0  0
    9.1353   -5.4053   27.8239 C   0  0  0  0  0  0  0  0  0  0  0  0
    0.9922   -9.3232   16.5995 O   0  0  0  0  0  0  0  0  0  0  0  0
    1.5232   -7.6869   27.1182 C   0  0  0  0  0  0  0  0  0  0  0  0
    8.6878   -6.6715   27.7262 N   0  0  0  0  0  0  0  0  0  0  0  0
    6.9911   -8.2423   27.1808 C   0  0  0  0  0  0  0  0  0  0  0  0
    3.8436   -7.2758   16.0578 C   0  0  0  0  0  0  0  0  0  0  0  0
    3.1882   -9.7190   17.2566 C   0  0  0  0  0  0  0  0  0  0  0  0
    5.3488   -6.1737   26.5092 C   0  0  0  0  0  0  0  0  0  0  0  0
    7.4567   -6.9464   27.2858 C   0  0  0  0  0  0  0  0  0  0  0  0
    0.1921   -5.7592   27.1123 C   0  0  0  0  0  0  0  0  0  0  0  0
    3.5517   -7.7407   25.9711 C   0  0  0  0  0  0  0  0  0  0  0  0
  1  4  4  0
  1 22  4  0
  2 20  4  0
  2 27  4  0
  3 12  4  0
  3 23  4  0
  4 25  4  0
  4 28  1  0
  5  8  4  0
  5 17  4  0
  6  7  4  0
  6 16  4  0
  7 18  4  0
  8 27  4  0
  9 13  4  0
  9 23  4  0
 10 11  1  0
 11 14  2  0
 11 27  1  0
 12 19  1  0
 12 24  4  0
 13 24  4  0
 15 18  1  0
 16 25  4  0
 16 26  4  0
 17 20  4  0
 17 28  1  0
 18 21  4  0
 21 26  4  0
 22 26  4  0
M  END
$$$$

 Created by Python create_sdf_string function

 28 30  0  0  0  0  0  0  0  0999 V2000
    5.7174   -8.4529   26.7190 C   0  0  0  0  0  0  0  0  0  0  0  0
    0.3974   -7.0711   27.5149 C   0  0  0  0  0  0  0  0  0  0  0  0
    2.5338   -7.6891   16.0102 C   0  0  0  0  0  0  0  0  0  0  0  0
    4.8690   -7.4380   26.4151 C   0  0  0  0  0  0  0  0  0  0  0  0
    2.3021   -5.6726   26.0378 C   0  0  0  0  0  0  0  0  0  0  0  0
    7.0880   -4.6163   27.0010 C   0  0  0  0  0  0  0  0  0  0  0  0
    8.3117   -4.3698   27.4436 C   0  0  0  0  0  0  0  0  0  0  0  0
    1.1339   -5.0515   26.3541 C   0  0  0  0  0  0  0  0  0  0  0  0
    4.8080   -8.0362   16.7101 C   0  0  0  0  0  0  0  0  0  0  0  0
   -1.2173   -3.9294   26.9717 O   0  0  0  0  0  0  0  0  0  0  0  0
   -1.0025   -5.0942   27.4586 C   0  0  0  0  0  0  0  0  0  0  0  0
    2.2474   -8.9123   16.6273 C   0  0  0  0  0  0  0  0  0  0  0  0
    4.4957   -9.2636   17.3041 C   0  0  0  0  0  0  0  0  0  0  0  0
   -1.8070   -5.6086   28.1920 O   0  0  0  0  0  0  0  0  0  0  0  0
   10.4296   -5.1799   28.3140 C   0  0  0  0  0  0  0  0  0  0  0  0
    6.6017   -5.9004   26.9187 C   0  0  0  0  0  0  0  0  0  0  0  0
    2.4761   -6.9940   26.4111 N   0  0  0  0  0  0  0  0  0  0  0  0
    9.1353   -5.4053   27.8239 C   0  0  0  0  0  0  0  0  0  0  0  0
    0.9922   -9.3232   16.5995 O   0  0  0  0  0  0  0  0  0  0  0  0
    1.5232   -7.6869   27.1182 C   0  0  0  0  0  0  0  0  0  0  0  0
    8.6878   -6.6715   27.7262 N   0  0  0  0  0  0  0  0  0  0  0  0
    6.9911   -8.2423   27.1808 C   0  0  0  0  0  0  0  0  0  0  0  0
    3.8436   -7.2758   16.0578 C   0  0  0  0  0  0  0  0  0  0  0  0
    3.1882   -9.7190   17.2566 C   0  0  0  0  0  0  0  0  0  0  0  0
    5.3488   -6.1737   26.5092 C   0  0  0  0  0  0  0  0  0  0  0  0
    7.4567   -6.9464   27.2858 C   0  0  0  0  0  0  0  0  0  0  0  0
    0.1921   -5.7592   27.1123 C   0  0  0  0  0  0  0  0  0  0  0  0
    3.5517   -7.7407   25.9711 C   0  0  0  0  0  0  0  0  0  0  0  0
  1  4  4  0
  1 22  4  0
  2 20  4  0
  2 27  4  0
  3 12  4  0
  3 23  4  0
  4 25  4  0
  4 28  1  0
  5  8  4  0
  5 17  4  0
  6  7  4  0
  6 16  4  0
  7 18  4  0
  8 27  4  0
  9 13  4  0
  9 23  4  0
 10 11  1  0
 11 14  2  0
 11 27  1  0
 12 19  1  0
 12 24  4  0
 13 24  4  0
 15 18  1  0
 16 25  4  0
 16 26  4  0
 17 20  4  0
 17 28  1  0
 18 21  4  0
 21 26  4  0
 22 26  4  0
M  END
$$$$

 Created by Python create_sdf_string function

 28 30  0  0  0  0  0  0  0  0999 V2000
    5.7174   -8.4529   26.7190 C   0  0  0  0  0  0  0  0  0  0  0  0
    0.3974   -7.0711   27.5149 C   0  0  0  0  0  0  0  0  0  0  0  0
    2.5338   -7.6891   16.0102 C   0  0  0  0  0  0  0  0  0  0  0  0
    4.8690   -7.4380   26.4151 C   0  0  0  0  0  0  0  0  0  0  0  0
    2.3021   -5.6726   26.0378 C   0  0  0  0  0  0  0  0  0  0  0  0
    7.0880   -4.6163   27.0010 C   0  0  0  0  0  0  0  0  0  0  0  0
    8.3117   -4.3698   27.4436 C   0  0  0  0  0  0  0  0  0  0  0  0
    1.1339   -5.0515   26.3541 C   0  0  0  0  0  0  0  0  0  0  0  0
    4.8080   -8.0362   16.7101 C   0  0  0  0  0  0  0  0  0  0  0  0
   -1.2173   -3.9294   26.9717 O   0  0  0  0  0  0  0  0  0  0  0  0
   -1.0025   -5.0942   27.4586 C   0  0  0  0  0  0  0  0  0  0  0  0
    2.2474   -8.9123   16.6273 C   0  0  0  0  0  0  0  0  0  0  0  0
    4.4957   -9.2636   17.3041 C   0  0  0  0  0  0  0  0  0  0  0  0
   -1.8070   -5.6086   28.1920 O   0  0  0  0  0  0  0  0  0  0  0  0
   10.4296   -5.1799   28.3140 C   0  0  0  0  0  0  0  0  0  0  0  0
    6.6017   -5.9004   26.9187 C   0  0  0  0  0  0  0  0  0  0  0  0
    2.4761   -6.9940   26.4111 N   0  0  0  0  0  0  0  0  0  0  0  0
    9.1353   -5.4053   27.8239 C   0  0  0  0  0  0  0  0  0  0  0  0
    0.9922   -9.3232   16.5995 O   0  0  0  0  0  0  0  0  0  0  0  0
    1.5232   -7.6869   27.1182 C   0  0  0  0  0  0  0  0  0  0  0  0
    8.6878   -6.6715   27.7262 N   0  0  0  0  0  0  0  0  0  0  0  0
    6.9911   -8.2423   27.1808 C   0  0  0  0  0  0  0  0  0  0  0  0
    3.8436   -7.2758   16.0578 C   0  0  0  0  0  0  0  0  0  0  0  0
    3.1882   -9.7190   17.2566 C   0  0  0  0  0  0  0  0  0  0  0  0
    5.3488   -6.1737   26.5092 C   0  0  0  0  0  0  0  0  0  0  0  0
    7.4567   -6.9464   27.2858 C   0  0  0  0  0  0  0  0  0  0  0  0
    0.1921   -5.7592   27.1123 C   0  0  0  0  0  0  0  0  0  0  0  0
    3.5517   -7.7407   25.9711 C   0  0  0  0  0  0  0  0  0  0  0  0
  1  4  4  0
  1 22  4  0
  2 20  4  0
  2 27  4  0
  3 12  4  0
  3 23  4  0
  4 25  4  0
  4 28  1  0
  5  8  4  0
  5 17  4  0
  6  7  4  0
  6 16  4  0
  7 18  4  0
  8 27  4  0
  9 13  4  0
  9 23  4  0
 10 11  1  0
 11 14  2  0
 11 27  1  0
 12 19  1  0
 12 24  4  0
 13 24  4  0
 15 18  1  0
 16 25  4  0
 16 26  4  0
 17 20  4  0
 17 28  1  0
 18 21  4  0
 21 26  4  0
 22 26  4  0
M  END
$$$$

 Created by Python create_sdf_string function

 28 30  0  0  0  0  0  0  0  0999 V2000
    5.7174   -8.4529   26.7190 C   0  0  0  0  0  0  0  0  0  0  0  0
    0.3974   -7.0711   27.5149 C   0  0  0  0  0  0  0  0  0  0  0  0
    2.5338   -7.6891   16.0102 C   0  0  0  0  0  0  0  0  0  0  0  0
    4.8690   -7.4380   26.4151 C   0  0  0  0  0  0  0  0  0  0  0  0
    2.3021   -5.6726   26.0378 C   0  0  0  0  0  0  0  0  0  0  0  0
    7.0880   -4.6163   27.0010 C   0  0  0  0  0  0  0  0  0  0  0  0
    8.3117   -4.3698   27.4436 C   0  0  0  0  0  0  0  0  0  0  0  0
    1.1339   -5.0515   26.3541 C   0  0  0  0  0  0  0  0  0  0  0  0
    4.8080   -8.0362   16.7101 C   0  0  0  0  0  0  0  0  0  0  0  0
   -1.2173   -3.9294   26.9717 O   0  0  0  0  0  0  0  0  0  0  0  0
   -1.0025   -5.0942   27.4586 C   0  0  0  0  0  0  0  0  0  0  0  0
    2.2474   -8.9123   16.6273 C   0  0  0  0  0  0  0  0  0  0  0  0
    4.4957   -9.2636   17.3041 C   0  0  0  0  0  0  0  0  0  0  0  0
   -1.8070   -5.6086   28.1920 O   0  0  0  0  0  0  0  0  0  0  0  0
   10.4296   -5.1799   28.3140 C   0  0  0  0  0  0  0  0  0  0  0  0
    6.6017   -5.9004   26.9187 C   0  0  0  0  0  0  0  0  0  0  0  0
    2.4761   -6.9940   26.4111 N   0  0  0  0  0  0  0  0  0  0  0  0
    9.1353   -5.4053   27.8239 C   0  0  0  0  0  0  0  0  0  0  0  0
    0.9922   -9.3232   16.5995 O   0  0  0  0  0  0  0  0  0  0  0  0
    1.5232   -7.6869   27.1182 C   0  0  0  0  0  0  0  0  0  0  0  0
    8.6878   -6.6715   27.7262 N   0  0  0  0  0  0  0  0  0  0  0  0
    6.9911   -8.2423   27.1808 C   0  0  0  0  0  0  0  0  0  0  0  0
    3.8436   -7.2758   16.0578 C   0  0  0  0  0  0  0  0  0  0  0  0
    3.1882   -9.7190   17.2566 C   0  0  0  0  0  0  0  0  0  0  0  0
    5.3488   -6.1737   26.5092 C   0  0  0  0  0  0  0  0  0  0  0  0
    7.4567   -6.9464   27.2858 C   0  0  0  0  0  0  0  0  0  0  0  0
    0.1921   -5.7592   27.1123 C   0  0  0  0  0  0  0  0  0  0  0  0
    3.5517   -7.7407   25.9711 C   0  0  0  0  0  0  0  0  0  0  0  0
  1  4  4  0
  1 22  4  0
  2 20  4  0
  2 27  4  0
  3 12  4  0
  3 23  4  0
  4 25  4  0
  4 28  1  0
  5  8  4  0
  5 17  4  0
  6  7  4  0
  6 16  4  0
  7 18  4  0
  8 27  4  0
  9 13  4  0
  9 23  4  0
 10 11  1  0
 11 14  2  0
 11 27  1  0
 12 19  1  0
 12 24  4  0
 13 24  4  0
 15 18  1  0
 16 25  4  0
 16 26  4  0
 17 20  4  0
 17 28  1  0
 18 21  4  0
 21 26  4  0
 22 26  4  0
M  END
$$$$

 Created by Python create_sdf_string function

 28 30  0  0  0  0  0  0  0  0999 V2000
    5.7174   -8.4529   26.7190 C   0  0  0  0  0  0  0  0  0  0  0  0
    0.3974   -7.0711   27.5149 C   0  0  0  0  0  0  0  0  0  0  0  0
    2.5338   -7.6891   16.0102 C   0  0  0  0  0  0  0  0  0  0  0  0
    4.8690   -7.4380   26.4151 C   0  0  0  0  0  0  0  0  0  0  0  0
    2.3021   -5.6726   26.0378 C   0  0  0  0  0  0  0  0  0  0  0  0
    7.0880   -4.6163   27.0010 C   0  0  0  0  0  0  0  0  0  0  0  0
    8.3117   -4.3698   27.4436 C   0  0  0  0  0  0  0  0  0  0  0  0
    1.1339   -5.0515   26.3541 C   0  0  0  0  0  0  0  0  0  0  0  0
    4.8080   -8.0362   16.7101 C   0  0  0  0  0  0  0  0  0  0  0  0
   -1.2173   -3.9294   26.9717 O   0  0  0  0  0  0  0  0  0  0  0  0
   -1.0025   -5.0942   27.4586 C   0  0  0  0  0  0  0  0  0  0  0  0
    2.2474   -8.9123   16.6273 C   0  0  0  0  0  0  0  0  0  0  0  0
    4.4957   -9.2636   17.3041 C   0  0  0  0  0  0  0  0  0  0  0  0
   -1.8070   -5.6086   28.1920 O   0  0  0  0  0  0  0  0  0  0  0  0
   10.4296   -5.1799   28.3140 C   0  0  0  0  0  0  0  0  0  0  0  0
    6.6017   -5.9004   26.9187 C   0  0  0  0  0  0  0  0  0  0  0  0
    2.4761   -6.9940   26.4111 N   0  0  0  0  0  0  0  0  0  0  0  0
    9.1353   -5.4053   27.8239 C   0  0  0  0  0  0  0  0  0  0  0  0
    0.9922   -9.3232   16.5995 O   0  0  0  0  0  0  0  0  0  0  0  0
    1.5232   -7.6869   27.1182 C   0  0  0  0  0  0  0  0  0  0  0  0
    8.6878   -6.6715   27.7262 N   0  0  0  0  0  0  0  0  0  0  0  0
    6.9911   -8.2423   27.1808 C   0  0  0  0  0  0  0  0  0  0  0  0
    3.8436   -7.2758   16.0578 C   0  0  0  0  0  0  0  0  0  0  0  0
    3.1882   -9.7190   17.2566 C   0  0  0  0  0  0  0  0  0  0  0  0
    5.3488   -6.1737   26.5092 C   0  0  0  0  0  0  0  0  0  0  0  0
    7.4567   -6.9464   27.2858 C   0  0  0  0  0  0  0  0  0  0  0  0
    0.1921   -5.7592   27.1123 C   0  0  0  0  0  0  0  0  0  0  0  0
    3.5517   -7.7407   25.9711 C   0  0  0  0  0  0  0  0  0  0  0  0
  1  4  4  0
  1 22  4  0
  2 20  4  0
  2 27  4  0
  3 12  4  0
  3 23  4  0
  4 25  4  0
  4 28  1  0
  5  8  4  0
  5 17  4  0
  6  7  4  0
  6 16  4  0
  7 18  4  0
  8 27  4  0
  9 13  4  0
  9 23  4  0
 10 11  1  0
 11 14  2  0
 11 27  1  0
 12 19  1  0
 12 24  4  0
 13 24  4  0
 15 18  1  0
 16 25  4  0
 16 26  4  0
 17 20  4  0
 17 28  1  0
 18 21  4  0
 21 26  4  0
 22 26  4  0
M  END
$$$$

 Created by Python create_sdf_string function

 28 30  0  0  0  0  0  0  0  0999 V2000
    5.7174   -8.4529   26.7190 C   0  0  0  0  0  0  0  0  0  0  0  0
    0.3974   -7.0711   27.5149 C   0  0  0  0  0  0  0  0  0  0  0  0
    2.5338   -7.6891   16.0102 C   0  0  0  0  0  0  0  0  0  0  0  0
    4.8690   -7.4380   26.4151 C   0  0  0  0  0  0  0  0  0  0  0  0
    2.3021   -5.6726   26.0378 C   0  0  0  0  0  0  0  0  0  0  0  0
    7.0880   -4.6163   27.0010 C   0  0  0  0  0  0  0  0  0  0  0  0
    8.3117   -4.3698   27.4436 C   0  0  0  0  0  0  0  0  0  0  0  0
    1.1339   -5.0515   26.3541 C   0  0  0  0  0  0  0  0  0  0  0  0
    4.8080   -8.0362   16.7101 C   0  0  0  0  0  0  0  0  0  0  0  0
   -1.2173   -3.9294   26.9717 O   0  0  0  0  0  0  0  0  0  0  0  0
   -1.0025   -5.0942   27.4586 C   0  0  0  0  0  0  0  0  0  0  0  0
    2.2474   -8.9123   16.6273 C   0  0  0  0  0  0  0  0  0  0  0  0
    4.4957   -9.2636   17.3041 C   0  0  0  0  0  0  0  0  0  0  0  0
   -1.8070   -5.6086   28.1920 O   0  0  0  0  0  0  0  0  0  0  0  0
   10.4296   -5.1799   28.3140 C   0  0  0  0  0  0  0  0  0  0  0  0
    6.6017   -5.9004   26.9187 C   0  0  0  0  0  0  0  0  0  0  0  0
    2.4761   -6.9940   26.4111 N   0  0  0  0  0  0  0  0  0  0  0  0
    9.1353   -5.4053   27.8239 C   0  0  0  0  0  0  0  0  0  0  0  0
    0.9922   -9.3232   16.5995 O   0  0  0  0  0  0  0  0  0  0  0  0
    1.5232   -7.6869   27.1182 C   0  0  0  0  0  0  0  0  0  0  0  0
    8.6878   -6.6715   27.7262 N   0  0  0  0  0  0  0  0  0  0  0  0
    6.9911   -8.2423   27.1808 C   0  0  0  0  0  0  0  0  0  0  0  0
    3.8436   -7.2758   16.0578 C   0  0  0  0  0  0  0  0  0  0  0  0
    3.1882   -9.7190   17.2566 C   0  0  0  0  0  0  0  0  0  0  0  0
    5.3488   -6.1737   26.5092 C   0  0  0  0  0  0  0  0  0  0  0  0
    7.4567   -6.9464   27.2858 C   0  0  0  0  0  0  0  0  0  0  0  0
    0.1921   -5.7592   27.1123 C   0  0  0  0  0  0  0  0  0  0  0  0
    3.5517   -7.7407   25.9711 C   0  0  0  0  0  0  0  0  0  0  0  0
  1  4  4  0
  1 22  4  0
  2 20  4  0
  2 27  4  0
  3 12  4  0
  3 23  4  0
  4 25  4  0
  4 28  1  0
  5  8  4  0
  5 17  4  0
  6  7  4  0
  6 16  4  0
  7 18  4  0
  8 27  4  0
  9 13  4  0
  9 23  4  0
 10 11  1  0
 11 14  2  0
 11 27  1  0
 12 19  1  0
 12 24  4  0
 13 24  4  0
 15 18  1  0
 16 25  4  0
 16 26  4  0
 17 20  4  0
 17 28  1  0
 18 21  4  0
 21 26  4  0
 22 26  4  0
M  END
$$$$

 Created by Python create_sdf_string function

 28 30  0  0  0  0  0  0  0  0999 V2000
    5.7174   -8.4529   26.7190 C   0  0  0  0  0  0  0  0  0  0  0  0
    0.3974   -7.0711   27.5149 C   0  0  0  0  0  0  0  0  0  0  0  0
    2.5338   -7.6891   16.0102 C   0  0  0  0  0  0  0  0  0  0  0  0
    4.8690   -7.4380   26.4151 C   0  0  0  0  0  0  0  0  0  0  0  0
    2.3021   -5.6726   26.0378 C   0  0  0  0  0  0  0  0  0  0  0  0
    7.0880   -4.6163   27.0010 C   0  0  0  0  0  0  0  0  0  0  0  0
    8.3117   -4.3698   27.4436 C   0  0  0  0  0  0  0  0  0  0  0  0
    1.1339   -5.0515   26.3541 C   0  0  0  0  0  0  0  0  0  0  0  0
    4.8080   -8.0362   16.7101 C   0  0  0  0  0  0  0  0  0  0  0  0
   -1.2173   -3.9294   26.9717 O   0  0  0  0  0  0  0  0  0  0  0  0
   -1.0025   -5.0942   27.4586 C   0  0  0  0  0  0  0  0  0  0  0  0
    2.2474   -8.9123   16.6273 C   0  0  0  0  0  0  0  0  0  0  0  0
    4.4957   -9.2636   17.3041 C   0  0  0  0  0  0  0  0  0  0  0  0
   -1.8070   -5.6086   28.1920 O   0  0  0  0  0  0  0  0  0  0  0  0
   10.4296   -5.1799   28.3140 C   0  0  0  0  0  0  0  0  0  0  0  0
    6.6017   -5.9004   26.9187 C   0  0  0  0  0  0  0  0  0  0  0  0
    2.4761   -6.9940   26.4111 N   0  0  0  0  0  0  0  0  0  0  0  0
    9.1353   -5.4053   27.8239 C   0  0  0  0  0  0  0  0  0  0  0  0
    0.9922   -9.3232   16.5995 O   0  0  0  0  0  0  0  0  0  0  0  0
    1.5232   -7.6869   27.1182 C   0  0  0  0  0  0  0  0  0  0  0  0
    8.6878   -6.6715   27.7262 N   0  0  0  0  0  0  0  0  0  0  0  0
    6.9911   -8.2423   27.1808 C   0  0  0  0  0  0  0  0  0  0  0  0
    3.8436   -7.2758   16.0578 C   0  0  0  0  0  0  0  0  0  0  0  0
    3.1882   -9.7190   17.2566 C   0  0  0  0  0  0  0  0  0  0  0  0
    5.3488   -6.1737   26.5092 C   0  0  0  0  0  0  0  0  0  0  0  0
    7.4567   -6.9464   27.2858 C   0  0  0  0  0  0  0  0  0  0  0  0
    0.1921   -5.7592   27.1123 C   0  0  0  0  0  0  0  0  0  0  0  0
    3.5517   -7.7407   25.9711 C   0  0  0  0  0  0  0  0  0  0  0  0
  1  4  4  0
  1 22  4  0
  2 20  4  0
  2 27  4  0
  3 12  4  0
  3 23  4  0
  4 25  4  0
  4 28  1  0
  5  8  4  0
  5 17  4  0
  6  7  4  0
  6 16  4  0
  7 18  4  0
  8 27  4  0
  9 13  4  0
  9 23  4  0
 10 11  1  0
 11 14  2  0
 11 27  1  0
 12 19  1  0
 12 24  4  0
 13 24  4  0
 15 18  1  0
 16 25  4  0
 16 26  4  0
 17 20  4  0
 17 28  1  0
 18 21  4  0
 21 26  4  0
 22 26  4  0
M  END
$$$$

 Created by Python create_sdf_string function

 28 30  0  0  0  0  0  0  0  0999 V2000
    5.7174   -8.4529   26.7190 C   0  0  0  0  0  0  0  0  0  0  0  0
    0.3974   -7.0711   27.5149 C   0  0  0  0  0  0  0  0  0  0  0  0
    2.5338   -7.6891   16.0102 C   0  0  0  0  0  0  0  0  0  0  0  0
    4.8690   -7.4380   26.4151 C   0  0  0  0  0  0  0  0  0  0  0  0
    2.3021   -5.6726   26.0378 C   0  0  0  0  0  0  0  0  0  0  0  0
    7.0880   -4.6163   27.0010 C   0  0  0  0  0  0  0  0  0  0  0  0
    8.3117   -4.3698   27.4436 C   0  0  0  0  0  0  0  0  0  0  0  0
    1.1339   -5.0515   26.3541 C   0  0  0  0  0  0  0  0  0  0  0  0
    4.8080   -8.0362   16.7101 C   0  0  0  0  0  0  0  0  0  0  0  0
   -1.2173   -3.9294   26.9717 O   0  0  0  0  0  0  0  0  0  0  0  0
   -1.0025   -5.0942   27.4586 C   0  0  0  0  0  0  0  0  0  0  0  0
    2.2474   -8.9123   16.6273 C   0  0  0  0  0  0  0  0  0  0  0  0
    4.4957   -9.2636   17.3041 C   0  0  0  0  0  0  0  0  0  0  0  0
   -1.8070   -5.6086   28.1920 O   0  0  0  0  0  0  0  0  0  0  0  0
   10.4296   -5.1799   28.3140 C   0  0  0  0  0  0  0  0  0  0  0  0
    6.6017   -5.9004   26.9187 C   0  0  0  0  0  0  0  0  0  0  0  0
    2.4761   -6.9940   26.4111 N   0  0  0  0  0  0  0  0  0  0  0  0
    9.1353   -5.4053   27.8239 C   0  0  0  0  0  0  0  0  0  0  0  0
    0.9922   -9.3232   16.5995 O   0  0  0  0  0  0  0  0  0  0  0  0
    1.5232   -7.6869   27.1182 C   0  0  0  0  0  0  0  0  0  0  0  0
    8.6878   -6.6715   27.7262 N   0  0  0  0  0  0  0  0  0  0  0  0
    6.9911   -8.2423   27.1808 C   0  0  0  0  0  0  0  0  0  0  0  0
    3.8436   -7.2758   16.0578 C   0  0  0  0  0  0  0  0  0  0  0  0
    3.1882   -9.7190   17.2566 C   0  0  0  0  0  0  0  0  0  0  0  0
    5.3488   -6.1737   26.5092 C   0  0  0  0  0  0  0  0  0  0  0  0
    7.4567   -6.9464   27.2858 C   0  0  0  0  0  0  0  0  0  0  0  0
    0.1921   -5.7592   27.1123 C   0  0  0  0  0  0  0  0  0  0  0  0
    3.5517   -7.7407   25.9711 C   0  0  0  0  0  0  0  0  0  0  0  0
  1  4  4  0
  1 22  4  0
  2 20  4  0
  2 27  4  0
  3 12  4  0
  3 23  4  0
  4 25  4  0
  4 28  1  0
  5  8  4  0
  5 17  4  0
  6  7  4  0
  6 16  4  0
  7 18  4  0
  8 27  4  0
  9 13  4  0
  9 23  4  0
 10 11  1  0
 11 14  2  0
 11 27  1  0
 12 19  1  0
 12 24  4  0
 13 24  4  0
 15 18  1  0
 16 25  4  0
 16 26  4  0
 17 20  4  0
 17 28  1  0
 18 21  4  0
 21 26  4  0
 22 26  4  0
M  END
$$$$

 Created by Python create_sdf_string function

 28 30  0  0  0  0  0  0  0  0999 V2000
    5.7174   -8.4529   26.7190 C   0  0  0  0  0  0  0  0  0  0  0  0
    0.3974   -7.0711   27.5149 C   0  0  0  0  0  0  0  0  0  0  0  0
    2.5338   -7.6891   16.0102 C   0  0  0  0  0  0  0  0  0  0  0  0
    4.8690   -7.4380   26.4151 C   0  0  0  0  0  0  0  0  0  0  0  0
    2.3021   -5.6726   26.0378 C   0  0  0  0  0  0  0  0  0  0  0  0
    7.0880   -4.6163   27.0010 C   0  0  0  0  0  0  0  0  0  0  0  0
    8.3117   -4.3698   27.4436 C   0  0  0  0  0  0  0  0  0  0  0  0
    1.1339   -5.0515   26.3541 C   0  0  0  0  0  0  0  0  0  0  0  0
    4.8080   -8.0362   16.7101 C   0  0  0  0  0  0  0  0  0  0  0  0
   -1.2173   -3.9294   26.9717 O   0  0  0  0  0  0  0  0  0  0  0  0
   -1.0025   -5.0942   27.4586 C   0  0  0  0  0  0  0  0  0  0  0  0
    2.2474   -8.9123   16.6273 C   0  0  0  0  0  0  0  0  0  0  0  0
    4.4957   -9.2636   17.3041 C   0  0  0  0  0  0  0  0  0  0  0  0
   -1.8070   -5.6086   28.1920 O   0  0  0  0  0  0  0  0  0  0  0  0
   10.4296   -5.1799   28.3140 C   0  0  0  0  0  0  0  0  0  0  0  0
    6.6017   -5.9004   26.9187 C   0  0  0  0  0  0  0  0  0  0  0  0
    2.4761   -6.9940   26.4111 N   0  0  0  0  0  0  0  0  0  0  0  0
    9.1353   -5.4053   27.8239 C   0  0  0  0  0  0  0  0  0  0  0  0
    0.9922   -9.3232   16.5995 O   0  0  0  0  0  0  0  0  0  0  0  0
    1.5232   -7.6869   27.1182 C   0  0  0  0  0  0  0  0  0  0  0  0
    8.6878   -6.6715   27.7262 N   0  0  0  0  0  0  0  0  0  0  0  0
    6.9911   -8.2423   27.1808 C   0  0  0  0  0  0  0  0  0  0  0  0
    3.8436   -7.2758   16.0578 C   0  0  0  0  0  0  0  0  0  0  0  0
    3.1882   -9.7190   17.2566 C   0  0  0  0  0  0  0  0  0  0  0  0
    5.3488   -6.1737   26.5092 C   0  0  0  0  0  0  0  0  0  0  0  0
    7.4567   -6.9464   27.2858 C   0  0  0  0  0  0  0  0  0  0  0  0
    0.1921   -5.7592   27.1123 C   0  0  0  0  0  0  0  0  0  0  0  0
    3.5517   -7.7407   25.9711 C   0  0  0  0  0  0  0  0  0  0  0  0
  1  4  4  0
  1 22  4  0
  2 20  4  0
  2 27  4  0
  3 12  4  0
  3 23  4  0
  4 25  4  0
  4 28  1  0
  5  8  4  0
  5 17  4  0
  6  7  4  0
  6 16  4  0
  7 18  4  0
  8 27  4  0
  9 13  4  0
  9 23  4  0
 10 11  1  0
 11 14  2  0
 11 27  1  0
 12 19  1  0
 12 24  4  0
 13 24  4  0
 15 18  1  0
 16 25  4  0
 16 26  4  0
 17 20  4  0
 17 28  1  0
 18 21  4  0
 21 26  4  0
 22 26  4  0
M  END
$$$$

 Created by Python create_sdf_string function

 28 30  0  0  0  0  0  0  0  0999 V2000
    5.7174   -8.4529   26.7190 C   0  0  0  0  0  0  0  0  0  0  0  0
    0.3974   -7.0711   27.5149 C   0  0  0  0  0  0  0  0  0  0  0  0
    2.5338   -7.6891   16.0102 C   0  0  0  0  0  0  0  0  0  0  0  0
    4.8690   -7.4380   26.4151 C   0  0  0  0  0  0  0  0  0  0  0  0
    2.3021   -5.6726   26.0378 C   0  0  0  0  0  0  0  0  0  0  0  0
    7.0880   -4.6163   27.0010 C   0  0  0  0  0  0  0  0  0  0  0  0
    8.3117   -4.3698   27.4436 C   0  0  0  0  0  0  0  0  0  0  0  0
    1.1339   -5.0515   26.3541 C   0  0  0  0  0  0  0  0  0  0  0  0
    4.8080   -8.0362   16.7101 C   0  0  0  0  0  0  0  0  0  0  0  0
   -1.2173   -3.9294   26.9717 O   0  0  0  0  0  0  0  0  0  0  0  0
   -1.0025   -5.0942   27.4586 C   0  0  0  0  0  0  0  0  0  0  0  0
    2.2474   -8.9123   16.6273 C   0  0  0  0  0  0  0  0  0  0  0  0
    4.4957   -9.2636   17.3041 C   0  0  0  0  0  0  0  0  0  0  0  0
   -1.8070   -5.6086   28.1920 O   0  0  0  0  0  0  0  0  0  0  0  0
   10.4296   -5.1799   28.3140 C   0  0  0  0  0  0  0  0  0  0  0  0
    6.6017   -5.9004   26.9187 C   0  0  0  0  0  0  0  0  0  0  0  0
    2.4761   -6.9940   26.4111 N   0  0  0  0  0  0  0  0  0  0  0  0
    9.1353   -5.4053   27.8239 C   0  0  0  0  0  0  0  0  0  0  0  0
    0.9922   -9.3232   16.5995 O   0  0  0  0  0  0  0  0  0  0  0  0
    1.5232   -7.6869   27.1182 C   0  0  0  0  0  0  0  0  0  0  0  0
    8.6878   -6.6715   27.7262 N   0  0  0  0  0  0  0  0  0  0  0  0
    6.9911   -8.2423   27.1808 C   0  0  0  0  0  0  0  0  0  0  0  0
    3.8436   -7.2758   16.0578 C   0  0  0  0  0  0  0  0  0  0  0  0
    3.1882   -9.7190   17.2566 C   0  0  0  0  0  0  0  0  0  0  0  0
    5.3488   -6.1737   26.5092 C   0  0  0  0  0  0  0  0  0  0  0  0
    7.4567   -6.9464   27.2858 C   0  0  0  0  0  0  0  0  0  0  0  0
    0.1921   -5.7592   27.1123 C   0  0  0  0  0  0  0  0  0  0  0  0
    3.5517   -7.7407   25.9711 C   0  0  0  0  0  0  0  0  0  0  0  0
  1  4  4  0
  1 22  4  0
  2 20  4  0
  2 27  4  0
  3 12  4  0
  3 23  4  0
  4 25  4  0
  4 28  1  0
  5  8  4  0
  5 17  4  0
  6  7  4  0
  6 16  4  0
  7 18  4  0
  8 27  4  0
  9 13  4  0
  9 23  4  0
 10 11  1  0
 11 14  2  0
 11 27  1  0
 12 19  1  0
 12 24  4  0
 13 24  4  0
 15 18  1  0
 16 25  4  0
 16 26  4  0
 17 20  4  0
 17 28  1  0
 18 21  4  0
 21 26  4  0
 22 26  4  0
M  END
$$$$

 Created by Python create_sdf_string function

 28 30  0  0  0  0  0  0  0  0999 V2000
    5.7174   -8.4529   26.7190 C   0  0  0  0  0  0  0  0  0  0  0  0
    0.3974   -7.0711   27.5149 C   0  0  0  0  0  0  0  0  0  0  0  0
    2.5338   -7.6891   16.0102 C   0  0  0  0  0  0  0  0  0  0  0  0
    4.8690   -7.4380   26.4151 C   0  0  0  0  0  0  0  0  0  0  0  0
    2.3021   -5.6726   26.0378 C   0  0  0  0  0  0  0  0  0  0  0  0
    7.0880   -4.6163   27.0010 C   0  0  0  0  0  0  0  0  0  0  0  0
    8.3117   -4.3698   27.4436 C   0  0  0  0  0  0  0  0  0  0  0  0
    1.1339   -5.0515   26.3541 C   0  0  0  0  0  0  0  0  0  0  0  0
    4.8080   -8.0362   16.7101 C   0  0  0  0  0  0  0  0  0  0  0  0
   -1.2173   -3.9294   26.9717 O   0  0  0  0  0  0  0  0  0  0  0  0
   -1.0025   -5.0942   27.4586 C   0  0  0  0  0  0  0  0  0  0  0  0
    2.2474   -8.9123   16.6273 C   0  0  0  0  0  0  0  0  0  0  0  0
    4.4957   -9.2636   17.3041 C   0  0  0  0  0  0  0  0  0  0  0  0
   -1.8070   -5.6086   28.1920 O   0  0  0  0  0  0  0  0  0  0  0  0
   10.4296   -5.1799   28.3140 C   0  0  0  0  0  0  0  0  0  0  0  0
    6.6017   -5.9004   26.9187 C   0  0  0  0  0  0  0  0  0  0  0  0
    2.4761   -6.9940   26.4111 N   0  0  0  0  0  0  0  0  0  0  0  0
    9.1353   -5.4053   27.8239 C   0  0  0  0  0  0  0  0  0  0  0  0
    0.9922   -9.3232   16.5995 O   0  0  0  0  0  0  0  0  0  0  0  0
    1.5232   -7.6869   27.1182 C   0  0  0  0  0  0  0  0  0  0  0  0
    8.6878   -6.6715   27.7262 N   0  0  0  0  0  0  0  0  0  0  0  0
    6.9911   -8.2423   27.1808 C   0  0  0  0  0  0  0  0  0  0  0  0
    3.8436   -7.2758   16.0578 C   0  0  0  0  0  0  0  0  0  0  0  0
    3.1882   -9.7190   17.2566 C   0  0  0  0  0  0  0  0  0  0  0  0
    5.3488   -6.1737   26.5092 C   0  0  0  0  0  0  0  0  0  0  0  0
    7.4567   -6.9464   27.2858 C   0  0  0  0  0  0  0  0  0  0  0  0
    0.1921   -5.7592   27.1123 C   0  0  0  0  0  0  0  0  0  0  0  0
    3.5517   -7.7407   25.9711 C   0  0  0  0  0  0  0  0  0  0  0  0
  1  4  4  0
  1 22  4  0
  2 20  4  0
  2 27  4  0
  3 12  4  0
  3 23  4  0
  4 25  4  0
  4 28  1  0
  5  8  4  0
  5 17  4  0
  6  7  4  0
  6 16  4  0
  7 18  4  0
  8 27  4  0
  9 13  4  0
  9 23  4  0
 10 11  1  0
 11 14  2  0
 11 27  1  0
 12 19  1  0
 12 24  4  0
 13 24  4  0
 15 18  1  0
 16 25  4  0
 16 26  4  0
 17 20  4  0
 17 28  1  0
 18 21  4  0
 21 26  4  0
 22 26  4  0
M  END
$$$$

 Created by Python create_sdf_string function

 28 30  0  0  0  0  0  0  0  0999 V2000
    5.7174   -8.4529   26.7190 C   0  0  0  0  0  0  0  0  0  0  0  0
    0.3974   -7.0711   27.5149 C   0  0  0  0  0  0  0  0  0  0  0  0
    2.5338   -7.6891   16.0102 C   0  0  0  0  0  0  0  0  0  0  0  0
    4.8690   -7.4380   26.4151 C   0  0  0  0  0  0  0  0  0  0  0  0
    2.3021   -5.6726   26.0378 C   0  0  0  0  0  0  0  0  0  0  0  0
    7.0880   -4.6163   27.0010 C   0  0  0  0  0  0  0  0  0  0  0  0
    8.3117   -4.3698   27.4436 C   0  0  0  0  0  0  0  0  0  0  0  0
    1.1339   -5.0515   26.3541 C   0  0  0  0  0  0  0  0  0  0  0  0
    4.8080   -8.0362   16.7101 C   0  0  0  0  0  0  0  0  0  0  0  0
   -1.2173   -3.9294   26.9717 O   0  0  0  0  0  0  0  0  0  0  0  0
   -1.0025   -5.0942   27.4586 C   0  0  0  0  0  0  0  0  0  0  0  0
    2.2474   -8.9123   16.6273 C   0  0  0  0  0  0  0  0  0  0  0  0
    4.4957   -9.2636   17.3041 C   0  0  0  0  0  0  0  0  0  0  0  0
   -1.8070   -5.6086   28.1920 O   0  0  0  0  0  0  0  0  0  0  0  0
   10.4296   -5.1799   28.3140 C   0  0  0  0  0  0  0  0  0  0  0  0
    6.6017   -5.9004   26.9187 C   0  0  0  0  0  0  0  0  0  0  0  0
    2.4761   -6.9940   26.4111 N   0  0  0  0  0  0  0  0  0  0  0  0
    9.1353   -5.4053   27.8239 C   0  0  0  0  0  0  0  0  0  0  0  0
    0.9922   -9.3232   16.5995 O   0  0  0  0  0  0  0  0  0  0  0  0
    1.5232   -7.6869   27.1182 C   0  0  0  0  0  0  0  0  0  0  0  0
    8.6878   -6.6715   27.7262 N   0  0  0  0  0  0  0  0  0  0  0  0
    6.9911   -8.2423   27.1808 C   0  0  0  0  0  0  0  0  0  0  0  0
    3.8436   -7.2758   16.0578 C   0  0  0  0  0  0  0  0  0  0  0  0
    3.1882   -9.7190   17.2566 C   0  0  0  0  0  0  0  0  0  0  0  0
    5.3488   -6.1737   26.5092 C   0  0  0  0  0  0  0  0  0  0  0  0
    7.4567   -6.9464   27.2858 C   0  0  0  0  0  0  0  0  0  0  0  0
    0.1921   -5.7592   27.1123 C   0  0  0  0  0  0  0  0  0  0  0  0
    3.5517   -7.7407   25.9711 C   0  0  0  0  0  0  0  0  0  0  0  0
  1  4  4  0
  1 22  4  0
  2 20  4  0
  2 27  4  0
  3 12  4  0
  3 23  4  0
  4 25  4  0
  4 28  1  0
  5  8  4  0
  5 17  4  0
  6  7  4  0
  6 16  4  0
  7 18  4  0
  8 27  4  0
  9 13  4  0
  9 23  4  0
 10 11  1  0
 11 14  2  0
 11 27  1  0
 12 19  1  0
 12 24  4  0
 13 24  4  0
 15 18  1  0
 16 25  4  0
 16 26  4  0
 17 20  4  0
 17 28  1  0
 18 21  4  0
 21 26  4  0
 22 26  4  0
M  END
$$$$

 Created by Python create_sdf_string function

 28 30  0  0  0  0  0  0  0  0999 V2000
    5.7174   -8.4529   26.7190 C   0  0  0  0  0  0  0  0  0  0  0  0
    0.3974   -7.0711   27.5149 C   0  0  0  0  0  0  0  0  0  0  0  0
    2.5338   -7.6891   16.0102 C   0  0  0  0  0  0  0  0  0  0  0  0
    4.8690   -7.4380   26.4151 C   0  0  0  0  0  0  0  0  0  0  0  0
    2.3021   -5.6726   26.0378 C   0  0  0  0  0  0  0  0  0  0  0  0
    7.0880   -4.6163   27.0010 C   0  0  0  0  0  0  0  0  0  0  0  0
    8.3117   -4.3698   27.4436 C   0  0  0  0  0  0  0  0  0  0  0  0
    1.1339   -5.0515   26.3541 C   0  0  0  0  0  0  0  0  0  0  0  0
    4.8080   -8.0362   16.7101 C   0  0  0  0  0  0  0  0  0  0  0  0
   -1.2173   -3.9294   26.9717 O   0  0  0  0  0  0  0  0  0  0  0  0
   -1.0025   -5.0942   27.4586 C   0  0  0  0  0  0  0  0  0  0  0  0
    2.2474   -8.9123   16.6273 C   0  0  0  0  0  0  0  0  0  0  0  0
    4.4957   -9.2636   17.3041 C   0  0  0  0  0  0  0  0  0  0  0  0
   -1.8070   -5.6086   28.1920 O   0  0  0  0  0  0  0  0  0  0  0  0
   10.4296   -5.1799   28.3140 C   0  0  0  0  0  0  0  0  0  0  0  0
    6.6017   -5.9004   26.9187 C   0  0  0  0  0  0  0  0  0  0  0  0
    2.4761   -6.9940   26.4111 N   0  0  0  0  0  0  0  0  0  0  0  0
    9.1353   -5.4053   27.8239 C   0  0  0  0  0  0  0  0  0  0  0  0
    0.9922   -9.3232   16.5995 O   0  0  0  0  0  0  0  0  0  0  0  0
    1.5232   -7.6869   27.1182 C   0  0  0  0  0  0  0  0  0  0  0  0
    8.6878   -6.6715   27.7262 N   0  0  0  0  0  0  0  0  0  0  0  0
    6.9911   -8.2423   27.1808 C   0  0  0  0  0  0  0  0  0  0  0  0
    3.8436   -7.2758   16.0578 C   0  0  0  0  0  0  0  0  0  0  0  0
    3.1882   -9.7190   17.2566 C   0  0  0  0  0  0  0  0  0  0  0  0
    5.3488   -6.1737   26.5092 C   0  0  0  0  0  0  0  0  0  0  0  0
    7.4567   -6.9464   27.2858 C   0  0  0  0  0  0  0  0  0  0  0  0
    0.1921   -5.7592   27.1123 C   0  0  0  0  0  0  0  0  0  0  0  0
    3.5517   -7.7407   25.9711 C   0  0  0  0  0  0  0  0  0  0  0  0
  1  4  4  0
  1 22  4  0
  2 20  4  0
  2 27  4  0
  3 12  4  0
  3 23  4  0
  4 25  4  0
  4 28  1  0
  5  8  4  0
  5 17  4  0
  6  7  4  0
  6 16  4  0
  7 18  4  0
  8 27  4  0
  9 13  4  0
  9 23  4  0
 10 11  1  0
 11 14  2  0
 11 27  1  0
 12 19  1  0
 12 24  4  0
 13 24  4  0
 15 18  1  0
 16 25  4  0
 16 26  4  0
 17 20  4  0
 17 28  1  0
 18 21  4  0
 21 26  4  0
 22 26  4  0
M  END
$$$$

 Created by Python create_sdf_string function

 28 30  0  0  0  0  0  0  0  0999 V2000
    5.7174   -8.4529   26.7190 C   0  0  0  0  0  0  0  0  0  0  0  0
    0.3974   -7.0711   27.5149 C   0  0  0  0  0  0  0  0  0  0  0  0
    2.5338   -7.6891   16.0102 C   0  0  0  0  0  0  0  0  0  0  0  0
    4.8690   -7.4380   26.4151 C   0  0  0  0  0  0  0  0  0  0  0  0
    2.3021   -5.6726   26.0378 C   0  0  0  0  0  0  0  0  0  0  0  0
    7.0880   -4.6163   27.0010 C   0  0  0  0  0  0  0  0  0  0  0  0
    8.3117   -4.3698   27.4436 C   0  0  0  0  0  0  0  0  0  0  0  0
    1.1339   -5.0515   26.3541 C   0  0  0  0  0  0  0  0  0  0  0  0
    4.8080   -8.0362   16.7101 C   0  0  0  0  0  0  0  0  0  0  0  0
   -1.2173   -3.9294   26.9717 O   0  0  0  0  0  0  0  0  0  0  0  0
   -1.0025   -5.0942   27.4586 C   0  0  0  0  0  0  0  0  0  0  0  0
    2.2474   -8.9123   16.6273 C   0  0  0  0  0  0  0  0  0  0  0  0
    4.4957   -9.2636   17.3041 C   0  0  0  0  0  0  0  0  0  0  0  0
   -1.8070   -5.6086   28.1920 O   0  0  0  0  0  0  0  0  0  0  0  0
   10.4296   -5.1799   28.3140 C   0  0  0  0  0  0  0  0  0  0  0  0
    6.6017   -5.9004   26.9187 C   0  0  0  0  0  0  0  0  0  0  0  0
    2.4761   -6.9940   26.4111 N   0  0  0  0  0  0  0  0  0  0  0  0
    9.1353   -5.4053   27.8239 C   0  0  0  0  0  0  0  0  0  0  0  0
    0.9922   -9.3232   16.5995 O   0  0  0  0  0  0  0  0  0  0  0  0
    1.5232   -7.6869   27.1182 C   0  0  0  0  0  0  0  0  0  0  0  0
    8.6878   -6.6715   27.7262 N   0  0  0  0  0  0  0  0  0  0  0  0
    6.9911   -8.2423   27.1808 C   0  0  0  0  0  0  0  0  0  0  0  0
    3.8436   -7.2758   16.0578 C   0  0  0  0  0  0  0  0  0  0  0  0
    3.1882   -9.7190   17.2566 C   0  0  0  0  0  0  0  0  0  0  0  0
    5.3488   -6.1737   26.5092 C   0  0  0  0  0  0  0  0  0  0  0  0
    7.4567   -6.9464   27.2858 C   0  0  0  0  0  0  0  0  0  0  0  0
    0.1921   -5.7592   27.1123 C   0  0  0  0  0  0  0  0  0  0  0  0
    3.5517   -7.7407   25.9711 C   0  0  0  0  0  0  0  0  0  0  0  0
  1  4  4  0
  1 22  4  0
  2 20  4  0
  2 27  4  0
  3 12  4  0
  3 23  4  0
  4 25  4  0
  4 28  1  0
  5  8  4  0
  5 17  4  0
  6  7  4  0
  6 16  4  0
  7 18  4  0
  8 27  4  0
  9 13  4  0
  9 23  4  0
 10 11  1  0
 11 14  2  0
 11 27  1  0
 12 19  1  0
 12 24  4  0
 13 24  4  0
 15 18  1  0
 16 25  4  0
 16 26  4  0
 17 20  4  0
 17 28  1  0
 18 21  4  0
 21 26  4  0
 22 26  4  0
M  END
$$$$

 Created by Python create_sdf_string function

 28 30  0  0  0  0  0  0  0  0999 V2000
    5.7174   -8.4529   26.7190 C   0  0  0  0  0  0  0  0  0  0  0  0
    0.3974   -7.0711   27.5149 C   0  0  0  0  0  0  0  0  0  0  0  0
    2.5338   -7.6891   16.0102 C   0  0  0  0  0  0  0  0  0  0  0  0
    4.8690   -7.4380   26.4151 C   0  0  0  0  0  0  0  0  0  0  0  0
    2.3021   -5.6726   26.0378 C   0  0  0  0  0  0  0  0  0  0  0  0
    7.0880   -4.6163   27.0010 C   0  0  0  0  0  0  0  0  0  0  0  0
    8.3117   -4.3698   27.4436 C   0  0  0  0  0  0  0  0  0  0  0  0
    1.1339   -5.0515   26.3541 C   0  0  0  0  0  0  0  0  0  0  0  0
    4.8080   -8.0362   16.7101 C   0  0  0  0  0  0  0  0  0  0  0  0
   -1.2173   -3.9294   26.9717 O   0  0  0  0  0  0  0  0  0  0  0  0
   -1.0025   -5.0942   27.4586 C   0  0  0  0  0  0  0  0  0  0  0  0
    2.2474   -8.9123   16.6273 C   0  0  0  0  0  0  0  0  0  0  0  0
    4.4957   -9.2636   17.3041 C   0  0  0  0  0  0  0  0  0  0  0  0
   -1.8070   -5.6086   28.1920 O   0  0  0  0  0  0  0  0  0  0  0  0
   10.4296   -5.1799   28.3140 C   0  0  0  0  0  0  0  0  0  0  0  0
    6.6017   -5.9004   26.9187 C   0  0  0  0  0  0  0  0  0  0  0  0
    2.4761   -6.9940   26.4111 N   0  0  0  0  0  0  0  0  0  0  0  0
    9.1353   -5.4053   27.8239 C   0  0  0  0  0  0  0  0  0  0  0  0
    0.9922   -9.3232   16.5995 O   0  0  0  0  0  0  0  0  0  0  0  0
    1.5232   -7.6869   27.1182 C   0  0  0  0  0  0  0  0  0  0  0  0
    8.6878   -6.6715   27.7262 N   0  0  0  0  0  0  0  0  0  0  0  0
    6.9911   -8.2423   27.1808 C   0  0  0  0  0  0  0  0  0  0  0  0
    3.8436   -7.2758   16.0578 C   0  0  0  0  0  0  0  0  0  0  0  0
    3.1882   -9.7190   17.2566 C   0  0  0  0  0  0  0  0  0  0  0  0
    5.3488   -6.1737   26.5092 C   0  0  0  0  0  0  0  0  0  0  0  0
    7.4567   -6.9464   27.2858 C   0  0  0  0  0  0  0  0  0  0  0  0
    0.1921   -5.7592   27.1123 C   0  0  0  0  0  0  0  0  0  0  0  0
    3.5517   -7.7407   25.9711 C   0  0  0  0  0  0  0  0  0  0  0  0
  1  4  4  0
  1 22  4  0
  2 20  4  0
  2 27  4  0
  3 12  4  0
  3 23  4  0
  4 25  4  0
  4 28  1  0
  5  8  4  0
  5 17  4  0
  6  7  4  0
  6 16  4  0
  7 18  4  0
  8 27  4  0
  9 13  4  0
  9 23  4  0
 10 11  1  0
 11 14  2  0
 11 27  1  0
 12 19  1  0
 12 24  4  0
 13 24  4  0
 15 18  1  0
 16 25  4  0
 16 26  4  0
 17 20  4  0
 17 28  1  0
 18 21  4  0
 21 26  4  0
 22 26  4  0
M  END
$$$$

 Created by Python create_sdf_string function

 28 30  0  0  0  0  0  0  0  0999 V2000
    5.7174   -8.4529   26.7190 C   0  0  0  0  0  0  0  0  0  0  0  0
    0.3974   -7.0711   27.5149 C   0  0  0  0  0  0  0  0  0  0  0  0
    2.5338   -7.6891   16.0102 C   0  0  0  0  0  0  0  0  0  0  0  0
    4.8690   -7.4380   26.4151 C   0  0  0  0  0  0  0  0  0  0  0  0
    2.3021   -5.6726   26.0378 C   0  0  0  0  0  0  0  0  0  0  0  0
    7.0880   -4.6163   27.0010 C   0  0  0  0  0  0  0  0  0  0  0  0
    8.3117   -4.3698   27.4436 C   0  0  0  0  0  0  0  0  0  0  0  0
    1.1339   -5.0515   26.3541 C   0  0  0  0  0  0  0  0  0  0  0  0
    4.8080   -8.0362   16.7101 C   0  0  0  0  0  0  0  0  0  0  0  0
   -1.2173   -3.9294   26.9717 O   0  0  0  0  0  0  0  0  0  0  0  0
   -1.0025   -5.0942   27.4586 C   0  0  0  0  0  0  0  0  0  0  0  0
    2.2474   -8.9123   16.6273 C   0  0  0  0  0  0  0  0  0  0  0  0
    4.4957   -9.2636   17.3041 C   0  0  0  0  0  0  0  0  0  0  0  0
   -1.8070   -5.6086   28.1920 O   0  0  0  0  0  0  0  0  0  0  0  0
   10.4296   -5.1799   28.3140 C   0  0  0  0  0  0  0  0  0  0  0  0
    6.6017   -5.9004   26.9187 C   0  0  0  0  0  0  0  0  0  0  0  0
    2.4761   -6.9940   26.4111 N   0  0  0  0  0  0  0  0  0  0  0  0
    9.1353   -5.4053   27.8239 C   0  0  0  0  0  0  0  0  0  0  0  0
    0.9922   -9.3232   16.5995 O   0  0  0  0  0  0  0  0  0  0  0  0
    1.5232   -7.6869   27.1182 C   0  0  0  0  0  0  0  0  0  0  0  0
    8.6878   -6.6715   27.7262 N   0  0  0  0  0  0  0  0  0  0  0  0
    6.9911   -8.2423   27.1808 C   0  0  0  0  0  0  0  0  0  0  0  0
    3.8436   -7.2758   16.0578 C   0  0  0  0  0  0  0  0  0  0  0  0
    3.1882   -9.7190   17.2566 C   0  0  0  0  0  0  0  0  0  0  0  0
    5.3488   -6.1737   26.5092 C   0  0  0  0  0  0  0  0  0  0  0  0
    7.4567   -6.9464   27.2858 C   0  0  0  0  0  0  0  0  0  0  0  0
    0.1921   -5.7592   27.1123 C   0  0  0  0  0  0  0  0  0  0  0  0
    3.5517   -7.7407   25.9711 C   0  0  0  0  0  0  0  0  0  0  0  0
  1  4  4  0
  1 22  4  0
  2 20  4  0
  2 27  4  0
  3 12  4  0
  3 23  4  0
  4 25  4  0
  4 28  1  0
  5  8  4  0
  5 17  4  0
  6  7  4  0
  6 16  4  0
  7 18  4  0
  8 27  4  0
  9 13  4  0
  9 23  4  0
 10 11  1  0
 11 14  2  0
 11 27  1  0
 12 19  1  0
 12 24  4  0
 13 24  4  0
 15 18  1  0
 16 25  4  0
 16 26  4  0
 17 20  4  0
 17 28  1  0
 18 21  4  0
 21 26  4  0
 22 26  4  0
M  END
$$$$

 Created by Python create_sdf_string function

 28 30  0  0  0  0  0  0  0  0999 V2000
    5.7174   -8.4529   26.7190 C   0  0  0  0  0  0  0  0  0  0  0  0
    0.3974   -7.0711   27.5149 C   0  0  0  0  0  0  0  0  0  0  0  0
    2.5338   -7.6891   16.0102 C   0  0  0  0  0  0  0  0  0  0  0  0
    4.8690   -7.4380   26.4151 C   0  0  0  0  0  0  0  0  0  0  0  0
    2.3021   -5.6726   26.0378 C   0  0  0  0  0  0  0  0  0  0  0  0
    7.0880   -4.6163   27.0010 C   0  0  0  0  0  0  0  0  0  0  0  0
    8.3117   -4.3698   27.4436 C   0  0  0  0  0  0  0  0  0  0  0  0
    1.1339   -5.0515   26.3541 C   0  0  0  0  0  0  0  0  0  0  0  0
    4.8080   -8.0362   16.7101 C   0  0  0  0  0  0  0  0  0  0  0  0
   -1.2173   -3.9294   26.9717 O   0  0  0  0  0  0  0  0  0  0  0  0
   -1.0025   -5.0942   27.4586 C   0  0  0  0  0  0  0  0  0  0  0  0
    2.2474   -8.9123   16.6273 C   0  0  0  0  0  0  0  0  0  0  0  0
    4.4957   -9.2636   17.3041 C   0  0  0  0  0  0  0  0  0  0  0  0
   -1.8070   -5.6086   28.1920 O   0  0  0  0  0  0  0  0  0  0  0  0
   10.4296   -5.1799   28.3140 C   0  0  0  0  0  0  0  0  0  0  0  0
    6.6017   -5.9004   26.9187 C   0  0  0  0  0  0  0  0  0  0  0  0
    2.4761   -6.9940   26.4111 N   0  0  0  0  0  0  0  0  0  0  0  0
    9.1353   -5.4053   27.8239 C   0  0  0  0  0  0  0  0  0  0  0  0
    0.9922   -9.3232   16.5995 O   0  0  0  0  0  0  0  0  0  0  0  0
    1.5232   -7.6869   27.1182 C   0  0  0  0  0  0  0  0  0  0  0  0
    8.6878   -6.6715   27.7262 N   0  0  0  0  0  0  0  0  0  0  0  0
    6.9911   -8.2423   27.1808 C   0  0  0  0  0  0  0  0  0  0  0  0
    3.8436   -7.2758   16.0578 C   0  0  0  0  0  0  0  0  0  0  0  0
    3.1882   -9.7190   17.2566 C   0  0  0  0  0  0  0  0  0  0  0  0
    5.3488   -6.1737   26.5092 C   0  0  0  0  0  0  0  0  0  0  0  0
    7.4567   -6.9464   27.2858 C   0  0  0  0  0  0  0  0  0  0  0  0
    0.1921   -5.7592   27.1123 C   0  0  0  0  0  0  0  0  0  0  0  0
    3.5517   -7.7407   25.9711 C   0  0  0  0  0  0  0  0  0  0  0  0
  1  4  4  0
  1 22  4  0
  2 20  4  0
  2 27  4  0
  3 12  4  0
  3 23  4  0
  4 25  4  0
  4 28  1  0
  5  8  4  0
  5 17  4  0
  6  7  4  0
  6 16  4  0
  7 18  4  0
  8 27  4  0
  9 13  4  0
  9 23  4  0
 10 11  1  0
 11 14  2  0
 11 27  1  0
 12 19  1  0
 12 24  4  0
 13 24  4  0
 15 18  1  0
 16 25  4  0
 16 26  4  0
 17 20  4  0
 17 28  1  0
 18 21  4  0
 21 26  4  0
 22 26  4  0
M  END
$$$$

 Created by Python create_sdf_string function

 28 30  0  0  0  0  0  0  0  0999 V2000
    5.7174   -8.4529   26.7190 C   0  0  0  0  0  0  0  0  0  0  0  0
    0.3974   -7.0711   27.5149 C   0  0  0  0  0  0  0  0  0  0  0  0
    2.5338   -7.6891   16.0102 C   0  0  0  0  0  0  0  0  0  0  0  0
    4.8690   -7.4380   26.4151 C   0  0  0  0  0  0  0  0  0  0  0  0
    2.3021   -5.6726   26.0378 C   0  0  0  0  0  0  0  0  0  0  0  0
    7.0880   -4.6163   27.0010 C   0  0  0  0  0  0  0  0  0  0  0  0
    8.3117   -4.3698   27.4436 C   0  0  0  0  0  0  0  0  0  0  0  0
    1.1339   -5.0515   26.3541 C   0  0  0  0  0  0  0  0  0  0  0  0
    4.8080   -8.0362   16.7101 C   0  0  0  0  0  0  0  0  0  0  0  0
   -1.2173   -3.9294   26.9717 O   0  0  0  0  0  0  0  0  0  0  0  0
   -1.0025   -5.0942   27.4586 C   0  0  0  0  0  0  0  0  0  0  0  0
    2.2474   -8.9123   16.6273 C   0  0  0  0  0  0  0  0  0  0  0  0
    4.4957   -9.2636   17.3041 C   0  0  0  0  0  0  0  0  0  0  0  0
   -1.8070   -5.6086   28.1920 O   0  0  0  0  0  0  0  0  0  0  0  0
   10.4296   -5.1799   28.3140 C   0  0  0  0  0  0  0  0  0  0  0  0
    6.6017   -5.9004   26.9187 C   0  0  0  0  0  0  0  0  0  0  0  0
    2.4761   -6.9940   26.4111 N   0  0  0  0  0  0  0  0  0  0  0  0
    9.1353   -5.4053   27.8239 C   0  0  0  0  0  0  0  0  0  0  0  0
    0.9922   -9.3232   16.5995 O   0  0  0  0  0  0  0  0  0  0  0  0
    1.5232   -7.6869   27.1182 C   0  0  0  0  0  0  0  0  0  0  0  0
    8.6878   -6.6715   27.7262 N   0  0  0  0  0  0  0  0  0  0  0  0
    6.9911   -8.2423   27.1808 C   0  0  0  0  0  0  0  0  0  0  0  0
    3.8436   -7.2758   16.0578 C   0  0  0  0  0  0  0  0  0  0  0  0
    3.1882   -9.7190   17.2566 C   0  0  0  0  0  0  0  0  0  0  0  0
    5.3488   -6.1737   26.5092 C   0  0  0  0  0  0  0  0  0  0  0  0
    7.4567   -6.9464   27.2858 C   0  0  0  0  0  0  0  0  0  0  0  0
    0.1921   -5.7592   27.1123 C   0  0  0  0  0  0  0  0  0  0  0  0
    3.5517   -7.7407   25.9711 C   0  0  0  0  0  0  0  0  0  0  0  0
  1  4  4  0
  1 22  4  0
  2 20  4  0
  2 27  4  0
  3 12  4  0
  3 23  4  0
  4 25  4  0
  4 28  1  0
  5  8  4  0
  5 17  4  0
  6  7  4  0
  6 16  4  0
  7 18  4  0
  8 27  4  0
  9 13  4  0
  9 23  4  0
 10 11  1  0
 11 14  2  0
 11 27  1  0
 12 19  1  0
 12 24  4  0
 13 24  4  0
 15 18  1  0
 16 25  4  0
 16 26  4  0
 17 20  4  0
 17 28  1  0
 18 21  4  0
 21 26  4  0
 22 26  4  0
M  END
$$$$

 Created by Python create_sdf_string function

 28 30  0  0  0  0  0  0  0  0999 V2000
    5.7174   -8.4529   26.7190 C   0  0  0  0  0  0  0  0  0  0  0  0
    0.3974   -7.0711   27.5149 C   0  0  0  0  0  0  0  0  0  0  0  0
    2.5338   -7.6891   16.0102 C   0  0  0  0  0  0  0  0  0  0  0  0
    4.8690   -7.4380   26.4151 C   0  0  0  0  0  0  0  0  0  0  0  0
    2.3021   -5.6726   26.0378 C   0  0  0  0  0  0  0  0  0  0  0  0
    7.0880   -4.6163   27.0010 C   0  0  0  0  0  0  0  0  0  0  0  0
    8.3117   -4.3698   27.4436 C   0  0  0  0  0  0  0  0  0  0  0  0
    1.1339   -5.0515   26.3541 C   0  0  0  0  0  0  0  0  0  0  0  0
    4.8080   -8.0362   16.7101 C   0  0  0  0  0  0  0  0  0  0  0  0
   -1.2173   -3.9294   26.9717 O   0  0  0  0  0  0  0  0  0  0  0  0
   -1.0025   -5.0942   27.4586 C   0  0  0  0  0  0  0  0  0  0  0  0
    2.2474   -8.9123   16.6273 C   0  0  0  0  0  0  0  0  0  0  0  0
    4.4957   -9.2636   17.3041 C   0  0  0  0  0  0  0  0  0  0  0  0
   -1.8070   -5.6086   28.1920 O   0  0  0  0  0  0  0  0  0  0  0  0
   10.4296   -5.1799   28.3140 C   0  0  0  0  0  0  0  0  0  0  0  0
    6.6017   -5.9004   26.9187 C   0  0  0  0  0  0  0  0  0  0  0  0
    2.4761   -6.9940   26.4111 N   0  0  0  0  0  0  0  0  0  0  0  0
    9.1353   -5.4053   27.8239 C   0  0  0  0  0  0  0  0  0  0  0  0
    0.9922   -9.3232   16.5995 O   0  0  0  0  0  0  0  0  0  0  0  0
    1.5232   -7.6869   27.1182 C   0  0  0  0  0  0  0  0  0  0  0  0
    8.6878   -6.6715   27.7262 N   0  0  0  0  0  0  0  0  0  0  0  0
    6.9911   -8.2423   27.1808 C   0  0  0  0  0  0  0  0  0  0  0  0
    3.8436   -7.2758   16.0578 C   0  0  0  0  0  0  0  0  0  0  0  0
    3.1882   -9.7190   17.2566 C   0  0  0  0  0  0  0  0  0  0  0  0
    5.3488   -6.1737   26.5092 C   0  0  0  0  0  0  0  0  0  0  0  0
    7.4567   -6.9464   27.2858 C   0  0  0  0  0  0  0  0  0  0  0  0
    0.1921   -5.7592   27.1123 C   0  0  0  0  0  0  0  0  0  0  0  0
    3.5517   -7.7407   25.9711 C   0  0  0  0  0  0  0  0  0  0  0  0
  1  4  4  0
  1 22  4  0
  2 20  4  0
  2 27  4  0
  3 12  4  0
  3 23  4  0
  4 25  4  0
  4 28  1  0
  5  8  4  0
  5 17  4  0
  6  7  4  0
  6 16  4  0
  7 18  4  0
  8 27  4  0
  9 13  4  0
  9 23  4  0
 10 11  1  0
 11 14  2  0
 11 27  1  0
 12 19  1  0
 12 24  4  0
 13 24  4  0
 15 18  1  0
 16 25  4  0
 16 26  4  0
 17 20  4  0
 17 28  1  0
 18 21  4  0
 21 26  4  0
 22 26  4  0
M  END
$$$$

 Created by Python create_sdf_string function

 28 30  0  0  0  0  0  0  0  0999 V2000
    5.7174   -8.4529   26.7190 C   0  0  0  0  0  0  0  0  0  0  0  0
    0.3974   -7.0711   27.5149 C   0  0  0  0  0  0  0  0  0  0  0  0
    2.5338   -7.6891   16.0102 C   0  0  0  0  0  0  0  0  0  0  0  0
    4.8690   -7.4380   26.4151 C   0  0  0  0  0  0  0  0  0  0  0  0
    2.3021   -5.6726   26.0378 C   0  0  0  0  0  0  0  0  0  0  0  0
    7.0880   -4.6163   27.0010 C   0  0  0  0  0  0  0  0  0  0  0  0
    8.3117   -4.3698   27.4436 C   0  0  0  0  0  0  0  0  0  0  0  0
    1.1339   -5.0515   26.3541 C   0  0  0  0  0  0  0  0  0  0  0  0
    4.8080   -8.0362   16.7101 C   0  0  0  0  0  0  0  0  0  0  0  0
   -1.2173   -3.9294   26.9717 O   0  0  0  0  0  0  0  0  0  0  0  0
   -1.0025   -5.0942   27.4586 C   0  0  0  0  0  0  0  0  0  0  0  0
    2.2474   -8.9123   16.6273 C   0  0  0  0  0  0  0  0  0  0  0  0
    4.4957   -9.2636   17.3041 C   0  0  0  0  0  0  0  0  0  0  0  0
   -1.8070   -5.6086   28.1920 O   0  0  0  0  0  0  0  0  0  0  0  0
   10.4296   -5.1799   28.3140 C   0  0  0  0  0  0  0  0  0  0  0  0
    6.6017   -5.9004   26.9187 C   0  0  0  0  0  0  0  0  0  0  0  0
    2.4761   -6.9940   26.4111 N   0  0  0  0  0  0  0  0  0  0  0  0
    9.1353   -5.4053   27.8239 C   0  0  0  0  0  0  0  0  0  0  0  0
    0.9922   -9.3232   16.5995 O   0  0  0  0  0  0  0  0  0  0  0  0
    1.5232   -7.6869   27.1182 C   0  0  0  0  0  0  0  0  0  0  0  0
    8.6878   -6.6715   27.7262 N   0  0  0  0  0  0  0  0  0  0  0  0
    6.9911   -8.2423   27.1808 C   0  0  0  0  0  0  0  0  0  0  0  0
    3.8436   -7.2758   16.0578 C   0  0  0  0  0  0  0  0  0  0  0  0
    3.1882   -9.7190   17.2566 C   0  0  0  0  0  0  0  0  0  0  0  0
    5.3488   -6.1737   26.5092 C   0  0  0  0  0  0  0  0  0  0  0  0
    7.4567   -6.9464   27.2858 C   0  0  0  0  0  0  0  0  0  0  0  0
    0.1921   -5.7592   27.1123 C   0  0  0  0  0  0  0  0  0  0  0  0
    3.5517   -7.7407   25.9711 C   0  0  0  0  0  0  0  0  0  0  0  0
  1  4  4  0
  1 22  4  0
  2 20  4  0
  2 27  4  0
  3 12  4  0
  3 23  4  0
  4 25  4  0
  4 28  1  0
  5  8  4  0
  5 17  4  0
  6  7  4  0
  6 16  4  0
  7 18  4  0
  8 27  4  0
  9 13  4  0
  9 23  4  0
 10 11  1  0
 11 14  2  0
 11 27  1  0
 12 19  1  0
 12 24  4  0
 13 24  4  0
 15 18  1  0
 16 25  4  0
 16 26  4  0
 17 20  4  0
 17 28  1  0
 18 21  4  0
 21 26  4  0
 22 26  4  0
M  END
$$$$

 Created by Python create_sdf_string function

 28 30  0  0  0  0  0  0  0  0999 V2000
    5.7174   -8.4529   26.7190 C   0  0  0  0  0  0  0  0  0  0  0  0
    0.3974   -7.0711   27.5149 C   0  0  0  0  0  0  0  0  0  0  0  0
    2.5338   -7.6891   16.0102 C   0  0  0  0  0  0  0  0  0  0  0  0
    4.8690   -7.4380   26.4151 C   0  0  0  0  0  0  0  0  0  0  0  0
    2.3021   -5.6726   26.0378 C   0  0  0  0  0  0  0  0  0  0  0  0
    7.0880   -4.6163   27.0010 C   0  0  0  0  0  0  0  0  0  0  0  0
    8.3117   -4.3698   27.4436 C   0  0  0  0  0  0  0  0  0  0  0  0
    1.1339   -5.0515   26.3541 C   0  0  0  0  0  0  0  0  0  0  0  0
    4.8080   -8.0362   16.7101 C   0  0  0  0  0  0  0  0  0  0  0  0
   -1.2173   -3.9294   26.9717 O   0  0  0  0  0  0  0  0  0  0  0  0
   -1.0025   -5.0942   27.4586 C   0  0  0  0  0  0  0  0  0  0  0  0
    2.2474   -8.9123   16.6273 C   0  0  0  0  0  0  0  0  0  0  0  0
    4.4957   -9.2636   17.3041 C   0  0  0  0  0  0  0  0  0  0  0  0
   -1.8070   -5.6086   28.1920 O   0  0  0  0  0  0  0  0  0  0  0  0
   10.4296   -5.1799   28.3140 C   0  0  0  0  0  0  0  0  0  0  0  0
    6.6017   -5.9004   26.9187 C   0  0  0  0  0  0  0  0  0  0  0  0
    2.4761   -6.9940   26.4111 N   0  0  0  0  0  0  0  0  0  0  0  0
    9.1353   -5.4053   27.8239 C   0  0  0  0  0  0  0  0  0  0  0  0
    0.9922   -9.3232   16.5995 O   0  0  0  0  0  0  0  0  0  0  0  0
    1.5232   -7.6869   27.1182 C   0  0  0  0  0  0  0  0  0  0  0  0
    8.6878   -6.6715   27.7262 N   0  0  0  0  0  0  0  0  0  0  0  0
    6.9911   -8.2423   27.1808 C   0  0  0  0  0  0  0  0  0  0  0  0
    3.8436   -7.2758   16.0578 C   0  0  0  0  0  0  0  0  0  0  0  0
    3.1882   -9.7190   17.2566 C   0  0  0  0  0  0  0  0  0  0  0  0
    5.3488   -6.1737   26.5092 C   0  0  0  0  0  0  0  0  0  0  0  0
    7.4567   -6.9464   27.2858 C   0  0  0  0  0  0  0  0  0  0  0  0
    0.1921   -5.7592   27.1123 C   0  0  0  0  0  0  0  0  0  0  0  0
    3.5517   -7.7407   25.9711 C   0  0  0  0  0  0  0  0  0  0  0  0
  1  4  4  0
  1 22  4  0
  2 20  4  0
  2 27  4  0
  3 12  4  0
  3 23  4  0
  4 25  4  0
  4 28  1  0
  5  8  4  0
  5 17  4  0
  6  7  4  0
  6 16  4  0
  7 18  4  0
  8 27  4  0
  9 13  4  0
  9 23  4  0
 10 11  1  0
 11 14  2  0
 11 27  1  0
 12 19  1  0
 12 24  4  0
 13 24  4  0
 15 18  1  0
 16 25  4  0
 16 26  4  0
 17 20  4  0
 17 28  1  0
 18 21  4  0
 21 26  4  0
 22 26  4  0
M  END
$$$$

 Created by Python create_sdf_string function

 28 30  0  0  0  0  0  0  0  0999 V2000
    5.7174   -8.4529   26.7190 C   0  0  0  0  0  0  0  0  0  0  0  0
    0.3974   -7.0711   27.5149 C   0  0  0  0  0  0  0  0  0  0  0  0
    2.5338   -7.6891   16.0102 C   0  0  0  0  0  0  0  0  0  0  0  0
    4.8690   -7.4380   26.4151 C   0  0  0  0  0  0  0  0  0  0  0  0
    2.3021   -5.6726   26.0378 C   0  0  0  0  0  0  0  0  0  0  0  0
    7.0880   -4.6163   27.0010 C   0  0  0  0  0  0  0  0  0  0  0  0
    8.3117   -4.3698   27.4436 C   0  0  0  0  0  0  0  0  0  0  0  0
    1.1339   -5.0515   26.3541 C   0  0  0  0  0  0  0  0  0  0  0  0
    4.8080   -8.0362   16.7101 C   0  0  0  0  0  0  0  0  0  0  0  0
   -1.2173   -3.9294   26.9717 O   0  0  0  0  0  0  0  0  0  0  0  0
   -1.0025   -5.0942   27.4586 C   0  0  0  0  0  0  0  0  0  0  0  0
    2.2474   -8.9123   16.6273 C   0  0  0  0  0  0  0  0  0  0  0  0
    4.4957   -9.2636   17.3041 C   0  0  0  0  0  0  0  0  0  0  0  0
   -1.8070   -5.6086   28.1920 O   0  0  0  0  0  0  0  0  0  0  0  0
   10.4296   -5.1799   28.3140 C   0  0  0  0  0  0  0  0  0  0  0  0
    6.6017   -5.9004   26.9187 C   0  0  0  0  0  0  0  0  0  0  0  0
    2.4761   -6.9940   26.4111 N   0  0  0  0  0  0  0  0  0  0  0  0
    9.1353   -5.4053   27.8239 C   0  0  0  0  0  0  0  0  0  0  0  0
    0.9922   -9.3232   16.5995 O   0  0  0  0  0  0  0  0  0  0  0  0
    1.5232   -7.6869   27.1182 C   0  0  0  0  0  0  0  0  0  0  0  0
    8.6878   -6.6715   27.7262 N   0  0  0  0  0  0  0  0  0  0  0  0
    6.9911   -8.2423   27.1808 C   0  0  0  0  0  0  0  0  0  0  0  0
    3.8436   -7.2758   16.0578 C   0  0  0  0  0  0  0  0  0  0  0  0
    3.1882   -9.7190   17.2566 C   0  0  0  0  0  0  0  0  0  0  0  0
    5.3488   -6.1737   26.5092 C   0  0  0  0  0  0  0  0  0  0  0  0
    7.4567   -6.9464   27.2858 C   0  0  0  0  0  0  0  0  0  0  0  0
    0.1921   -5.7592   27.1123 C   0  0  0  0  0  0  0  0  0  0  0  0
    3.5517   -7.7407   25.9711 C   0  0  0  0  0  0  0  0  0  0  0  0
  1  4  4  0
  1 22  4  0
  2 20  4  0
  2 27  4  0
  3 12  4  0
  3 23  4  0
  4 25  4  0
  4 28  1  0
  5  8  4  0
  5 17  4  0
  6  7  4  0
  6 16  4  0
  7 18  4  0
  8 27  4  0
  9 13  4  0
  9 23  4  0
 10 11  1  0
 11 14  2  0
 11 27  1  0
 12 19  1  0
 12 24  4  0
 13 24  4  0
 15 18  1  0
 16 25  4  0
 16 26  4  0
 17 20  4  0
 17 28  1  0
 18 21  4  0
 21 26  4  0
 22 26  4  0
M  END
$$$$

 Created by Python create_sdf_string function

 28 30  0  0  0  0  0  0  0  0999 V2000
    5.7174   -8.4529   26.7190 C   0  0  0  0  0  0  0  0  0  0  0  0
    0.3974   -7.0711   27.5149 C   0  0  0  0  0  0  0  0  0  0  0  0
    2.5338   -7.6891   16.0102 C   0  0  0  0  0  0  0  0  0  0  0  0
    4.8690   -7.4380   26.4151 C   0  0  0  0  0  0  0  0  0  0  0  0
    2.3021   -5.6726   26.0378 C   0  0  0  0  0  0  0  0  0  0  0  0
    7.0880   -4.6163   27.0010 C   0  0  0  0  0  0  0  0  0  0  0  0
    8.3117   -4.3698   27.4436 C   0  0  0  0  0  0  0  0  0  0  0  0
    1.1339   -5.0515   26.3541 C   0  0  0  0  0  0  0  0  0  0  0  0
    4.8080   -8.0362   16.7101 C   0  0  0  0  0  0  0  0  0  0  0  0
   -1.2173   -3.9294   26.9717 O   0  0  0  0  0  0  0  0  0  0  0  0
   -1.0025   -5.0942   27.4586 C   0  0  0  0  0  0  0  0  0  0  0  0
    2.2474   -8.9123   16.6273 C   0  0  0  0  0  0  0  0  0  0  0  0
    4.4957   -9.2636   17.3041 C   0  0  0  0  0  0  0  0  0  0  0  0
   -1.8070   -5.6086   28.1920 O   0  0  0  0  0  0  0  0  0  0  0  0
   10.4296   -5.1799   28.3140 C   0  0  0  0  0  0  0  0  0  0  0  0
    6.6017   -5.9004   26.9187 C   0  0  0  0  0  0  0  0  0  0  0  0
    2.4761   -6.9940   26.4111 N   0  0  0  0  0  0  0  0  0  0  0  0
    9.1353   -5.4053   27.8239 C   0  0  0  0  0  0  0  0  0  0  0  0
    0.9922   -9.3232   16.5995 O   0  0  0  0  0  0  0  0  0  0  0  0
    1.5232   -7.6869   27.1182 C   0  0  0  0  0  0  0  0  0  0  0  0
    8.6878   -6.6715   27.7262 N   0  0  0  0  0  0  0  0  0  0  0  0
    6.9911   -8.2423   27.1808 C   0  0  0  0  0  0  0  0  0  0  0  0
    3.8436   -7.2758   16.0578 C   0  0  0  0  0  0  0  0  0  0  0  0
    3.1882   -9.7190   17.2566 C   0  0  0  0  0  0  0  0  0  0  0  0
    5.3488   -6.1737   26.5092 C   0  0  0  0  0  0  0  0  0  0  0  0
    7.4567   -6.9464   27.2858 C   0  0  0  0  0  0  0  0  0  0  0  0
    0.1921   -5.7592   27.1123 C   0  0  0  0  0  0  0  0  0  0  0  0
    3.5517   -7.7407   25.9711 C   0  0  0  0  0  0  0  0  0  0  0  0
  1  4  4  0
  1 22  4  0
  2 20  4  0
  2 27  4  0
  3 12  4  0
  3 23  4  0
  4 25  4  0
  4 28  1  0
  5  8  4  0
  5 17  4  0
  6  7  4  0
  6 16  4  0
  7 18  4  0
  8 27  4  0
  9 13  4  0
  9 23  4  0
 10 11  1  0
 11 14  2  0
 11 27  1  0
 12 19  1  0
 12 24  4  0
 13 24  4  0
 15 18  1  0
 16 25  4  0
 16 26  4  0
 17 20  4  0
 17 28  1  0
 18 21  4  0
 21 26  4  0
 22 26  4  0
M  END
$$$$

 Created by Python create_sdf_string function

 28 30  0  0  0  0  0  0  0  0999 V2000
    5.7174   -8.4529   26.7190 C   0  0  0  0  0  0  0  0  0  0  0  0
    0.3974   -7.0711   27.5149 C   0  0  0  0  0  0  0  0  0  0  0  0
    2.5338   -7.6891   16.0102 C   0  0  0  0  0  0  0  0  0  0  0  0
    4.8690   -7.4380   26.4151 C   0  0  0  0  0  0  0  0  0  0  0  0
    2.3021   -5.6726   26.0378 C   0  0  0  0  0  0  0  0  0  0  0  0
    7.0880   -4.6163   27.0010 C   0  0  0  0  0  0  0  0  0  0  0  0
    8.3117   -4.3698   27.4436 C   0  0  0  0  0  0  0  0  0  0  0  0
    1.1339   -5.0515   26.3541 C   0  0  0  0  0  0  0  0  0  0  0  0
    4.8080   -8.0362   16.7101 C   0  0  0  0  0  0  0  0  0  0  0  0
   -1.2173   -3.9294   26.9717 O   0  0  0  0  0  0  0  0  0  0  0  0
   -1.0025   -5.0942   27.4586 C   0  0  0  0  0  0  0  0  0  0  0  0
    2.2474   -8.9123   16.6273 C   0  0  0  0  0  0  0  0  0  0  0  0
    4.4957   -9.2636   17.3041 C   0  0  0  0  0  0  0  0  0  0  0  0
   -1.8070   -5.6086   28.1920 O   0  0  0  0  0  0  0  0  0  0  0  0
   10.4296   -5.1799   28.3140 C   0  0  0  0  0  0  0  0  0  0  0  0
    6.6017   -5.9004   26.9187 C   0  0  0  0  0  0  0  0  0  0  0  0
    2.4761   -6.9940   26.4111 N   0  0  0  0  0  0  0  0  0  0  0  0
    9.1353   -5.4053   27.8239 C   0  0  0  0  0  0  0  0  0  0  0  0
    0.9922   -9.3232   16.5995 O   0  0  0  0  0  0  0  0  0  0  0  0
    1.5232   -7.6869   27.1182 C   0  0  0  0  0  0  0  0  0  0  0  0
    8.6878   -6.6715   27.7262 N   0  0  0  0  0  0  0  0  0  0  0  0
    6.9911   -8.2423   27.1808 C   0  0  0  0  0  0  0  0  0  0  0  0
    3.8436   -7.2758   16.0578 C   0  0  0  0  0  0  0  0  0  0  0  0
    3.1882   -9.7190   17.2566 C   0  0  0  0  0  0  0  0  0  0  0  0
    5.3488   -6.1737   26.5092 C   0  0  0  0  0  0  0  0  0  0  0  0
    7.4567   -6.9464   27.2858 C   0  0  0  0  0  0  0  0  0  0  0  0
    0.1921   -5.7592   27.1123 C   0  0  0  0  0  0  0  0  0  0  0  0
    3.5517   -7.7407   25.9711 C   0  0  0  0  0  0  0  0  0  0  0  0
  1  4  4  0
  1 22  4  0
  2 20  4  0
  2 27  4  0
  3 12  4  0
  3 23  4  0
  4 25  4  0
  4 28  1  0
  5  8  4  0
  5 17  4  0
  6  7  4  0
  6 16  4  0
  7 18  4  0
  8 27  4  0
  9 13  4  0
  9 23  4  0
 10 11  1  0
 11 14  2  0
 11 27  1  0
 12 19  1  0
 12 24  4  0
 13 24  4  0
 15 18  1  0
 16 25  4  0
 16 26  4  0
 17 20  4  0
 17 28  1  0
 18 21  4  0
 21 26  4  0
 22 26  4  0
M  END
$$$$

 Created by Python create_sdf_string function

 28 30  0  0  0  0  0  0  0  0999 V2000
    5.7174   -8.4529   26.7190 C   0  0  0  0  0  0  0  0  0  0  0  0
    0.3974   -7.0711   27.5149 C   0  0  0  0  0  0  0  0  0  0  0  0
    2.5338   -7.6891   16.0102 C   0  0  0  0  0  0  0  0  0  0  0  0
    4.8690   -7.4380   26.4151 C   0  0  0  0  0  0  0  0  0  0  0  0
    2.3021   -5.6726   26.0378 C   0  0  0  0  0  0  0  0  0  0  0  0
    7.0880   -4.6163   27.0010 C   0  0  0  0  0  0  0  0  0  0  0  0
    8.3117   -4.3698   27.4436 C   0  0  0  0  0  0  0  0  0  0  0  0
    1.1339   -5.0515   26.3541 C   0  0  0  0  0  0  0  0  0  0  0  0
    4.8080   -8.0362   16.7101 C   0  0  0  0  0  0  0  0  0  0  0  0
   -1.2173   -3.9294   26.9717 O   0  0  0  0  0  0  0  0  0  0  0  0
   -1.0025   -5.0942   27.4586 C   0  0  0  0  0  0  0  0  0  0  0  0
    2.2474   -8.9123   16.6273 C   0  0  0  0  0  0  0  0  0  0  0  0
    4.4957   -9.2636   17.3041 C   0  0  0  0  0  0  0  0  0  0  0  0
   -1.8070   -5.6086   28.1920 O   0  0  0  0  0  0  0  0  0  0  0  0
   10.4296   -5.1799   28.3140 C   0  0  0  0  0  0  0  0  0  0  0  0
    6.6017   -5.9004   26.9187 C   0  0  0  0  0  0  0  0  0  0  0  0
    2.4761   -6.9940   26.4111 N   0  0  0  0  0  0  0  0  0  0  0  0
    9.1353   -5.4053   27.8239 C   0  0  0  0  0  0  0  0  0  0  0  0
    0.9922   -9.3232   16.5995 O   0  0  0  0  0  0  0  0  0  0  0  0
    1.5232   -7.6869   27.1182 C   0  0  0  0  0  0  0  0  0  0  0  0
    8.6878   -6.6715   27.7262 N   0  0  0  0  0  0  0  0  0  0  0  0
    6.9911   -8.2423   27.1808 C   0  0  0  0  0  0  0  0  0  0  0  0
    3.8436   -7.2758   16.0578 C   0  0  0  0  0  0  0  0  0  0  0  0
    3.1882   -9.7190   17.2566 C   0  0  0  0  0  0  0  0  0  0  0  0
    5.3488   -6.1737   26.5092 C   0  0  0  0  0  0  0  0  0  0  0  0
    7.4567   -6.9464   27.2858 C   0  0  0  0  0  0  0  0  0  0  0  0
    0.1921   -5.7592   27.1123 C   0  0  0  0  0  0  0  0  0  0  0  0
    3.5517   -7.7407   25.9711 C   0  0  0  0  0  0  0  0  0  0  0  0
  1  4  4  0
  1 22  4  0
  2 20  4  0
  2 27  4  0
  3 12  4  0
  3 23  4  0
  4 25  4  0
  4 28  1  0
  5  8  4  0
  5 17  4  0
  6  7  4  0
  6 16  4  0
  7 18  4  0
  8 27  4  0
  9 13  4  0
  9 23  4  0
 10 11  1  0
 11 14  2  0
 11 27  1  0
 12 19  1  0
 12 24  4  0
 13 24  4  0
 15 18  1  0
 16 25  4  0
 16 26  4  0
 17 20  4  0
 17 28  1  0
 18 21  4  0
 21 26  4  0
 22 26  4  0
M  END
$$$$

 Created by Python create_sdf_string function

 28 30  0  0  0  0  0  0  0  0999 V2000
    5.7174   -8.4529   26.7190 C   0  0  0  0  0  0  0  0  0  0  0  0
    0.3974   -7.0711   27.5149 C   0  0  0  0  0  0  0  0  0  0  0  0
    2.5338   -7.6891   16.0102 C   0  0  0  0  0  0  0  0  0  0  0  0
    4.8690   -7.4380   26.4151 C   0  0  0  0  0  0  0  0  0  0  0  0
    2.3021   -5.6726   26.0378 C   0  0  0  0  0  0  0  0  0  0  0  0
    7.0880   -4.6163   27.0010 C   0  0  0  0  0  0  0  0  0  0  0  0
    8.3117   -4.3698   27.4436 C   0  0  0  0  0  0  0  0  0  0  0  0
    1.1339   -5.0515   26.3541 C   0  0  0  0  0  0  0  0  0  0  0  0
    4.8080   -8.0362   16.7101 C   0  0  0  0  0  0  0  0  0  0  0  0
   -1.2173   -3.9294   26.9717 O   0  0  0  0  0  0  0  0  0  0  0  0
   -1.0025   -5.0942   27.4586 C   0  0  0  0  0  0  0  0  0  0  0  0
    2.2474   -8.9123   16.6273 C   0  0  0  0  0  0  0  0  0  0  0  0
    4.4957   -9.2636   17.3041 C   0  0  0  0  0  0  0  0  0  0  0  0
   -1.8070   -5.6086   28.1920 O   0  0  0  0  0  0  0  0  0  0  0  0
   10.4296   -5.1799   28.3140 C   0  0  0  0  0  0  0  0  0  0  0  0
    6.6017   -5.9004   26.9187 C   0  0  0  0  0  0  0  0  0  0  0  0
    2.4761   -6.9940   26.4111 N   0  0  0  0  0  0  0  0  0  0  0  0
    9.1353   -5.4053   27.8239 C   0  0  0  0  0  0  0  0  0  0  0  0
    0.9922   -9.3232   16.5995 O   0  0  0  0  0  0  0  0  0  0  0  0
    1.5232   -7.6869   27.1182 C   0  0  0  0  0  0  0  0  0  0  0  0
    8.6878   -6.6715   27.7262 N   0  0  0  0  0  0  0  0  0  0  0  0
    6.9911   -8.2423   27.1808 C   0  0  0  0  0  0  0  0  0  0  0  0
    3.8436   -7.2758   16.0578 C   0  0  0  0  0  0  0  0  0  0  0  0
    3.1882   -9.7190   17.2566 C   0  0  0  0  0  0  0  0  0  0  0  0
    5.3488   -6.1737   26.5092 C   0  0  0  0  0  0  0  0  0  0  0  0
    7.4567   -6.9464   27.2858 C   0  0  0  0  0  0  0  0  0  0  0  0
    0.1921   -5.7592   27.1123 C   0  0  0  0  0  0  0  0  0  0  0  0
    3.5517   -7.7407   25.9711 C   0  0  0  0  0  0  0  0  0  0  0  0
  1  4  4  0
  1 22  4  0
  2 20  4  0
  2 27  4  0
  3 12  4  0
  3 23  4  0
  4 25  4  0
  4 28  1  0
  5  8  4  0
  5 17  4  0
  6  7  4  0
  6 16  4  0
  7 18  4  0
  8 27  4  0
  9 13  4  0
  9 23  4  0
 10 11  1  0
 11 14  2  0
 11 27  1  0
 12 19  1  0
 12 24  4  0
 13 24  4  0
 15 18  1  0
 16 25  4  0
 16 26  4  0
 17 20  4  0
 17 28  1  0
 18 21  4  0
 21 26  4  0
 22 26  4  0
M  END
$$$$

 Created by Python create_sdf_string function

 28 30  0  0  0  0  0  0  0  0999 V2000
    5.7174   -8.4529   26.7190 C   0  0  0  0  0  0  0  0  0  0  0  0
    0.3974   -7.0711   27.5149 C   0  0  0  0  0  0  0  0  0  0  0  0
    2.5338   -7.6891   16.0102 C   0  0  0  0  0  0  0  0  0  0  0  0
    4.8690   -7.4380   26.4151 C   0  0  0  0  0  0  0  0  0  0  0  0
    2.3021   -5.6726   26.0378 C   0  0  0  0  0  0  0  0  0  0  0  0
    7.0880   -4.6163   27.0010 C   0  0  0  0  0  0  0  0  0  0  0  0
    8.3117   -4.3698   27.4436 C   0  0  0  0  0  0  0  0  0  0  0  0
    1.1339   -5.0515   26.3541 C   0  0  0  0  0  0  0  0  0  0  0  0
    4.8080   -8.0362   16.7101 C   0  0  0  0  0  0  0  0  0  0  0  0
   -1.2173   -3.9294   26.9717 O   0  0  0  0  0  0  0  0  0  0  0  0
   -1.0025   -5.0942   27.4586 C   0  0  0  0  0  0  0  0  0  0  0  0
    2.2474   -8.9123   16.6273 C   0  0  0  0  0  0  0  0  0  0  0  0
    4.4957   -9.2636   17.3041 C   0  0  0  0  0  0  0  0  0  0  0  0
   -1.8070   -5.6086   28.1920 O   0  0  0  0  0  0  0  0  0  0  0  0
   10.4296   -5.1799   28.3140 C   0  0  0  0  0  0  0  0  0  0  0  0
    6.6017   -5.9004   26.9187 C   0  0  0  0  0  0  0  0  0  0  0  0
    2.4761   -6.9940   26.4111 N   0  0  0  0  0  0  0  0  0  0  0  0
    9.1353   -5.4053   27.8239 C   0  0  0  0  0  0  0  0  0  0  0  0
    0.9922   -9.3232   16.5995 O   0  0  0  0  0  0  0  0  0  0  0  0
    1.5232   -7.6869   27.1182 C   0  0  0  0  0  0  0  0  0  0  0  0
    8.6878   -6.6715   27.7262 N   0  0  0  0  0  0  0  0  0  0  0  0
    6.9911   -8.2423   27.1808 C   0  0  0  0  0  0  0  0  0  0  0  0
    3.8436   -7.2758   16.0578 C   0  0  0  0  0  0  0  0  0  0  0  0
    3.1882   -9.7190   17.2566 C   0  0  0  0  0  0  0  0  0  0  0  0
    5.3488   -6.1737   26.5092 C   0  0  0  0  0  0  0  0  0  0  0  0
    7.4567   -6.9464   27.2858 C   0  0  0  0  0  0  0  0  0  0  0  0
    0.1921   -5.7592   27.1123 C   0  0  0  0  0  0  0  0  0  0  0  0
    3.5517   -7.7407   25.9711 C   0  0  0  0  0  0  0  0  0  0  0  0
  1  4  4  0
  1 22  4  0
  2 20  4  0
  2 27  4  0
  3 12  4  0
  3 23  4  0
  4 25  4  0
  4 28  1  0
  5  8  4  0
  5 17  4  0
  6  7  4  0
  6 16  4  0
  7 18  4  0
  8 27  4  0
  9 13  4  0
  9 23  4  0
 10 11  1  0
 11 14  2  0
 11 27  1  0
 12 19  1  0
 12 24  4  0
 13 24  4  0
 15 18  1  0
 16 25  4  0
 16 26  4  0
 17 20  4  0
 17 28  1  0
 18 21  4  0
 21 26  4  0
 22 26  4  0
M  END
$$$$

 Created by Python create_sdf_string function

 28 30  0  0  0  0  0  0  0  0999 V2000
    5.7174   -8.4529   26.7190 C   0  0  0  0  0  0  0  0  0  0  0  0
    0.3974   -7.0711   27.5149 C   0  0  0  0  0  0  0  0  0  0  0  0
    2.5338   -7.6891   16.0102 C   0  0  0  0  0  0  0  0  0  0  0  0
    4.8690   -7.4380   26.4151 C   0  0  0  0  0  0  0  0  0  0  0  0
    2.3021   -5.6726   26.0378 C   0  0  0  0  0  0  0  0  0  0  0  0
    7.0880   -4.6163   27.0010 C   0  0  0  0  0  0  0  0  0  0  0  0
    8.3117   -4.3698   27.4436 C   0  0  0  0  0  0  0  0  0  0  0  0
    1.1339   -5.0515   26.3541 C   0  0  0  0  0  0  0  0  0  0  0  0
    4.8080   -8.0362   16.7101 C   0  0  0  0  0  0  0  0  0  0  0  0
   -1.2173   -3.9294   26.9717 O   0  0  0  0  0  0  0  0  0  0  0  0
   -1.0025   -5.0942   27.4586 C   0  0  0  0  0  0  0  0  0  0  0  0
    2.2474   -8.9123   16.6273 C   0  0  0  0  0  0  0  0  0  0  0  0
    4.4957   -9.2636   17.3041 C   0  0  0  0  0  0  0  0  0  0  0  0
   -1.8070   -5.6086   28.1920 O   0  0  0  0  0  0  0  0  0  0  0  0
   10.4296   -5.1799   28.3140 C   0  0  0  0  0  0  0  0  0  0  0  0
    6.6017   -5.9004   26.9187 C   0  0  0  0  0  0  0  0  0  0  0  0
    2.4761   -6.9940   26.4111 N   0  0  0  0  0  0  0  0  0  0  0  0
    9.1353   -5.4053   27.8239 C   0  0  0  0  0  0  0  0  0  0  0  0
    0.9922   -9.3232   16.5995 O   0  0  0  0  0  0  0  0  0  0  0  0
    1.5232   -7.6869   27.1182 C   0  0  0  0  0  0  0  0  0  0  0  0
    8.6878   -6.6715   27.7262 N   0  0  0  0  0  0  0  0  0  0  0  0
    6.9911   -8.2423   27.1808 C   0  0  0  0  0  0  0  0  0  0  0  0
    3.8436   -7.2758   16.0578 C   0  0  0  0  0  0  0  0  0  0  0  0
    3.1882   -9.7190   17.2566 C   0  0  0  0  0  0  0  0  0  0  0  0
    5.3488   -6.1737   26.5092 C   0  0  0  0  0  0  0  0  0  0  0  0
    7.4567   -6.9464   27.2858 C   0  0  0  0  0  0  0  0  0  0  0  0
    0.1921   -5.7592   27.1123 C   0  0  0  0  0  0  0  0  0  0  0  0
    3.5517   -7.7407   25.9711 C   0  0  0  0  0  0  0  0  0  0  0  0
  1  4  4  0
  1 22  4  0
  2 20  4  0
  2 27  4  0
  3 12  4  0
  3 23  4  0
  4 25  4  0
  4 28  1  0
  5  8  4  0
  5 17  4  0
  6  7  4  0
  6 16  4  0
  7 18  4  0
  8 27  4  0
  9 13  4  0
  9 23  4  0
 10 11  1  0
 11 14  2  0
 11 27  1  0
 12 19  1  0
 12 24  4  0
 13 24  4  0
 15 18  1  0
 16 25  4  0
 16 26  4  0
 17 20  4  0
 17 28  1  0
 18 21  4  0
 21 26  4  0
 22 26  4  0
M  END
$$$$

 Created by Python create_sdf_string function

 28 30  0  0  0  0  0  0  0  0999 V2000
    5.7174   -8.4529   26.7190 C   0  0  0  0  0  0  0  0  0  0  0  0
    0.3974   -7.0711   27.5149 C   0  0  0  0  0  0  0  0  0  0  0  0
    2.5338   -7.6891   16.0102 C   0  0  0  0  0  0  0  0  0  0  0  0
    4.8690   -7.4380   26.4151 C   0  0  0  0  0  0  0  0  0  0  0  0
    2.3021   -5.6726   26.0378 C   0  0  0  0  0  0  0  0  0  0  0  0
    7.0880   -4.6163   27.0010 C   0  0  0  0  0  0  0  0  0  0  0  0
    8.3117   -4.3698   27.4436 C   0  0  0  0  0  0  0  0  0  0  0  0
    1.1339   -5.0515   26.3541 C   0  0  0  0  0  0  0  0  0  0  0  0
    4.8080   -8.0362   16.7101 C   0  0  0  0  0  0  0  0  0  0  0  0
   -1.2173   -3.9294   26.9717 O   0  0  0  0  0  0  0  0  0  0  0  0
   -1.0025   -5.0942   27.4586 C   0  0  0  0  0  0  0  0  0  0  0  0
    2.2474   -8.9123   16.6273 C   0  0  0  0  0  0  0  0  0  0  0  0
    4.4957   -9.2636   17.3041 C   0  0  0  0  0  0  0  0  0  0  0  0
   -1.8070   -5.6086   28.1920 O   0  0  0  0  0  0  0  0  0  0  0  0
   10.4296   -5.1799   28.3140 C   0  0  0  0  0  0  0  0  0  0  0  0
    6.6017   -5.9004   26.9187 C   0  0  0  0  0  0  0  0  0  0  0  0
    2.4761   -6.9940   26.4111 N   0  0  0  0  0  0  0  0  0  0  0  0
    9.1353   -5.4053   27.8239 C   0  0  0  0  0  0  0  0  0  0  0  0
    0.9922   -9.3232   16.5995 O   0  0  0  0  0  0  0  0  0  0  0  0
    1.5232   -7.6869   27.1182 C   0  0  0  0  0  0  0  0  0  0  0  0
    8.6878   -6.6715   27.7262 N   0  0  0  0  0  0  0  0  0  0  0  0
    6.9911   -8.2423   27.1808 C   0  0  0  0  0  0  0  0  0  0  0  0
    3.8436   -7.2758   16.0578 C   0  0  0  0  0  0  0  0  0  0  0  0
    3.1882   -9.7190   17.2566 C   0  0  0  0  0  0  0  0  0  0  0  0
    5.3488   -6.1737   26.5092 C   0  0  0  0  0  0  0  0  0  0  0  0
    7.4567   -6.9464   27.2858 C   0  0  0  0  0  0  0  0  0  0  0  0
    0.1921   -5.7592   27.1123 C   0  0  0  0  0  0  0  0  0  0  0  0
    3.5517   -7.7407   25.9711 C   0  0  0  0  0  0  0  0  0  0  0  0
  1  4  4  0
  1 22  4  0
  2 20  4  0
  2 27  4  0
  3 12  4  0
  3 23  4  0
  4 25  4  0
  4 28  1  0
  5  8  4  0
  5 17  4  0
  6  7  4  0
  6 16  4  0
  7 18  4  0
  8 27  4  0
  9 13  4  0
  9 23  4  0
 10 11  1  0
 11 14  2  0
 11 27  1  0
 12 19  1  0
 12 24  4  0
 13 24  4  0
 15 18  1  0
 16 25  4  0
 16 26  4  0
 17 20  4  0
 17 28  1  0
 18 21  4  0
 21 26  4  0
 22 26  4  0
M  END
$$$$

 Created by Python create_sdf_string function

 28 30  0  0  0  0  0  0  0  0999 V2000
    5.7174   -8.4529   26.7190 C   0  0  0  0  0  0  0  0  0  0  0  0
    0.3974   -7.0711   27.5149 C   0  0  0  0  0  0  0  0  0  0  0  0
    2.5338   -7.6891   16.0102 C   0  0  0  0  0  0  0  0  0  0  0  0
    4.8690   -7.4380   26.4151 C   0  0  0  0  0  0  0  0  0  0  0  0
    2.3021   -5.6726   26.0378 C   0  0  0  0  0  0  0  0  0  0  0  0
    7.0880   -4.6163   27.0010 C   0  0  0  0  0  0  0  0  0  0  0  0
    8.3117   -4.3698   27.4436 C   0  0  0  0  0  0  0  0  0  0  0  0
    1.1339   -5.0515   26.3541 C   0  0  0  0  0  0  0  0  0  0  0  0
    4.8080   -8.0362   16.7101 C   0  0  0  0  0  0  0  0  0  0  0  0
   -1.2173   -3.9294   26.9717 O   0  0  0  0  0  0  0  0  0  0  0  0
   -1.0025   -5.0942   27.4586 C   0  0  0  0  0  0  0  0  0  0  0  0
    2.2474   -8.9123   16.6273 C   0  0  0  0  0  0  0  0  0  0  0  0
    4.4957   -9.2636   17.3041 C   0  0  0  0  0  0  0  0  0  0  0  0
   -1.8070   -5.6086   28.1920 O   0  0  0  0  0  0  0  0  0  0  0  0
   10.4296   -5.1799   28.3140 C   0  0  0  0  0  0  0  0  0  0  0  0
    6.6017   -5.9004   26.9187 C   0  0  0  0  0  0  0  0  0  0  0  0
    2.4761   -6.9940   26.4111 N   0  0  0  0  0  0  0  0  0  0  0  0
    9.1353   -5.4053   27.8239 C   0  0  0  0  0  0  0  0  0  0  0  0
    0.9922   -9.3232   16.5995 O   0  0  0  0  0  0  0  0  0  0  0  0
    1.5232   -7.6869   27.1182 C   0  0  0  0  0  0  0  0  0  0  0  0
    8.6878   -6.6715   27.7262 N   0  0  0  0  0  0  0  0  0  0  0  0
    6.9911   -8.2423   27.1808 C   0  0  0  0  0  0  0  0  0  0  0  0
    3.8436   -7.2758   16.0578 C   0  0  0  0  0  0  0  0  0  0  0  0
    3.1882   -9.7190   17.2566 C   0  0  0  0  0  0  0  0  0  0  0  0
    5.3488   -6.1737   26.5092 C   0  0  0  0  0  0  0  0  0  0  0  0
    7.4567   -6.9464   27.2858 C   0  0  0  0  0  0  0  0  0  0  0  0
    0.1921   -5.7592   27.1123 C   0  0  0  0  0  0  0  0  0  0  0  0
    3.5517   -7.7407   25.9711 C   0  0  0  0  0  0  0  0  0  0  0  0
  1  4  4  0
  1 22  4  0
  2 20  4  0
  2 27  4  0
  3 12  4  0
  3 23  4  0
  4 25  4  0
  4 28  1  0
  5  8  4  0
  5 17  4  0
  6  7  4  0
  6 16  4  0
  7 18  4  0
  8 27  4  0
  9 13  4  0
  9 23  4  0
 10 11  1  0
 11 14  2  0
 11 27  1  0
 12 19  1  0
 12 24  4  0
 13 24  4  0
 15 18  1  0
 16 25  4  0
 16 26  4  0
 17 20  4  0
 17 28  1  0
 18 21  4  0
 21 26  4  0
 22 26  4  0
M  END
$$$$

 Created by Python create_sdf_string function

 28 30  0  0  0  0  0  0  0  0999 V2000
    5.7174   -8.4529   26.7190 C   0  0  0  0  0  0  0  0  0  0  0  0
    0.3974   -7.0711   27.5149 C   0  0  0  0  0  0  0  0  0  0  0  0
    2.5338   -7.6891   16.0102 C   0  0  0  0  0  0  0  0  0  0  0  0
    4.8690   -7.4380   26.4151 C   0  0  0  0  0  0  0  0  0  0  0  0
    2.3021   -5.6726   26.0378 C   0  0  0  0  0  0  0  0  0  0  0  0
    7.0880   -4.6163   27.0010 C   0  0  0  0  0  0  0  0  0  0  0  0
    8.3117   -4.3698   27.4436 C   0  0  0  0  0  0  0  0  0  0  0  0
    1.1339   -5.0515   26.3541 C   0  0  0  0  0  0  0  0  0  0  0  0
    4.8080   -8.0362   16.7101 C   0  0  0  0  0  0  0  0  0  0  0  0
   -1.2173   -3.9294   26.9717 O   0  0  0  0  0  0  0  0  0  0  0  0
   -1.0025   -5.0942   27.4586 C   0  0  0  0  0  0  0  0  0  0  0  0
    2.2474   -8.9123   16.6273 C   0  0  0  0  0  0  0  0  0  0  0  0
    4.4957   -9.2636   17.3041 C   0  0  0  0  0  0  0  0  0  0  0  0
   -1.8070   -5.6086   28.1920 O   0  0  0  0  0  0  0  0  0  0  0  0
   10.4296   -5.1799   28.3140 C   0  0  0  0  0  0  0  0  0  0  0  0
    6.6017   -5.9004   26.9187 C   0  0  0  0  0  0  0  0  0  0  0  0
    2.4761   -6.9940   26.4111 N   0  0  0  0  0  0  0  0  0  0  0  0
    9.1353   -5.4053   27.8239 C   0  0  0  0  0  0  0  0  0  0  0  0
    0.9922   -9.3232   16.5995 O   0  0  0  0  0  0  0  0  0  0  0  0
    1.5232   -7.6869   27.1182 C   0  0  0  0  0  0  0  0  0  0  0  0
    8.6878   -6.6715   27.7262 N   0  0  0  0  0  0  0  0  0  0  0  0
    6.9911   -8.2423   27.1808 C   0  0  0  0  0  0  0  0  0  0  0  0
    3.8436   -7.2758   16.0578 C   0  0  0  0  0  0  0  0  0  0  0  0
    3.1882   -9.7190   17.2566 C   0  0  0  0  0  0  0  0  0  0  0  0
    5.3488   -6.1737   26.5092 C   0  0  0  0  0  0  0  0  0  0  0  0
    7.4567   -6.9464   27.2858 C   0  0  0  0  0  0  0  0  0  0  0  0
    0.1921   -5.7592   27.1123 C   0  0  0  0  0  0  0  0  0  0  0  0
    3.5517   -7.7407   25.9711 C   0  0  0  0  0  0  0  0  0  0  0  0
  1  4  4  0
  1 22  4  0
  2 20  4  0
  2 27  4  0
  3 12  4  0
  3 23  4  0
  4 25  4  0
  4 28  1  0
  5  8  4  0
  5 17  4  0
  6  7  4  0
  6 16  4  0
  7 18  4  0
  8 27  4  0
  9 13  4  0
  9 23  4  0
 10 11  1  0
 11 14  2  0
 11 27  1  0
 12 19  1  0
 12 24  4  0
 13 24  4  0
 15 18  1  0
 16 25  4  0
 16 26  4  0
 17 20  4  0
 17 28  1  0
 18 21  4  0
 21 26  4  0
 22 26  4  0
M  END
$$$$

 Created by Python create_sdf_string function

 28 30  0  0  0  0  0  0  0  0999 V2000
    5.7174   -8.4529   26.7190 C   0  0  0  0  0  0  0  0  0  0  0  0
    0.3974   -7.0711   27.5149 C   0  0  0  0  0  0  0  0  0  0  0  0
    2.5338   -7.6891   16.0102 C   0  0  0  0  0  0  0  0  0  0  0  0
    4.8690   -7.4380   26.4151 C   0  0  0  0  0  0  0  0  0  0  0  0
    2.3021   -5.6726   26.0378 C   0  0  0  0  0  0  0  0  0  0  0  0
    7.0880   -4.6163   27.0010 C   0  0  0  0  0  0  0  0  0  0  0  0
    8.3117   -4.3698   27.4436 C   0  0  0  0  0  0  0  0  0  0  0  0
    1.1339   -5.0515   26.3541 C   0  0  0  0  0  0  0  0  0  0  0  0
    4.8080   -8.0362   16.7101 C   0  0  0  0  0  0  0  0  0  0  0  0
   -1.2173   -3.9294   26.9717 O   0  0  0  0  0  0  0  0  0  0  0  0
   -1.0025   -5.0942   27.4586 C   0  0  0  0  0  0  0  0  0  0  0  0
    2.2474   -8.9123   16.6273 C   0  0  0  0  0  0  0  0  0  0  0  0
    4.4957   -9.2636   17.3041 C   0  0  0  0  0  0  0  0  0  0  0  0
   -1.8070   -5.6086   28.1920 O   0  0  0  0  0  0  0  0  0  0  0  0
   10.4296   -5.1799   28.3140 C   0  0  0  0  0  0  0  0  0  0  0  0
    6.6017   -5.9004   26.9187 C   0  0  0  0  0  0  0  0  0  0  0  0
    2.4761   -6.9940   26.4111 N   0  0  0  0  0  0  0  0  0  0  0  0
    9.1353   -5.4053   27.8239 C   0  0  0  0  0  0  0  0  0  0  0  0
    0.9922   -9.3232   16.5995 O   0  0  0  0  0  0  0  0  0  0  0  0
    1.5232   -7.6869   27.1182 C   0  0  0  0  0  0  0  0  0  0  0  0
    8.6878   -6.6715   27.7262 N   0  0  0  0  0  0  0  0  0  0  0  0
    6.9911   -8.2423   27.1808 C   0  0  0  0  0  0  0  0  0  0  0  0
    3.8436   -7.2758   16.0578 C   0  0  0  0  0  0  0  0  0  0  0  0
    3.1882   -9.7190   17.2566 C   0  0  0  0  0  0  0  0  0  0  0  0
    5.3488   -6.1737   26.5092 C   0  0  0  0  0  0  0  0  0  0  0  0
    7.4567   -6.9464   27.2858 C   0  0  0  0  0  0  0  0  0  0  0  0
    0.1921   -5.7592   27.1123 C   0  0  0  0  0  0  0  0  0  0  0  0
    3.5517   -7.7407   25.9711 C   0  0  0  0  0  0  0  0  0  0  0  0
  1  4  4  0
  1 22  4  0
  2 20  4  0
  2 27  4  0
  3 12  4  0
  3 23  4  0
  4 25  4  0
  4 28  1  0
  5  8  4  0
  5 17  4  0
  6  7  4  0
  6 16  4  0
  7 18  4  0
  8 27  4  0
  9 13  4  0
  9 23  4  0
 10 11  1  0
 11 14  2  0
 11 27  1  0
 12 19  1  0
 12 24  4  0
 13 24  4  0
 15 18  1  0
 16 25  4  0
 16 26  4  0
 17 20  4  0
 17 28  1  0
 18 21  4  0
 21 26  4  0
 22 26  4  0
M  END
$$$$

 Created by Python create_sdf_string function

 28 30  0  0  0  0  0  0  0  0999 V2000
    5.7174   -8.4529   26.7190 C   0  0  0  0  0  0  0  0  0  0  0  0
    0.3974   -7.0711   27.5149 C   0  0  0  0  0  0  0  0  0  0  0  0
    2.5338   -7.6891   16.0102 C   0  0  0  0  0  0  0  0  0  0  0  0
    4.8690   -7.4380   26.4151 C   0  0  0  0  0  0  0  0  0  0  0  0
    2.3021   -5.6726   26.0378 C   0  0  0  0  0  0  0  0  0  0  0  0
    7.0880   -4.6163   27.0010 C   0  0  0  0  0  0  0  0  0  0  0  0
    8.3117   -4.3698   27.4436 C   0  0  0  0  0  0  0  0  0  0  0  0
    1.1339   -5.0515   26.3541 C   0  0  0  0  0  0  0  0  0  0  0  0
    4.8080   -8.0362   16.7101 C   0  0  0  0  0  0  0  0  0  0  0  0
   -1.2173   -3.9294   26.9717 O   0  0  0  0  0  0  0  0  0  0  0  0
   -1.0025   -5.0942   27.4586 C   0  0  0  0  0  0  0  0  0  0  0  0
    2.2474   -8.9123   16.6273 C   0  0  0  0  0  0  0  0  0  0  0  0
    4.4957   -9.2636   17.3041 C   0  0  0  0  0  0  0  0  0  0  0  0
   -1.8070   -5.6086   28.1920 O   0  0  0  0  0  0  0  0  0  0  0  0
   10.4296   -5.1799   28.3140 C   0  0  0  0  0  0  0  0  0  0  0  0
    6.6017   -5.9004   26.9187 C   0  0  0  0  0  0  0  0  0  0  0  0
    2.4761   -6.9940   26.4111 N   0  0  0  0  0  0  0  0  0  0  0  0
    9.1353   -5.4053   27.8239 C   0  0  0  0  0  0  0  0  0  0  0  0
    0.9922   -9.3232   16.5995 O   0  0  0  0  0  0  0  0  0  0  0  0
    1.5232   -7.6869   27.1182 C   0  0  0  0  0  0  0  0  0  0  0  0
    8.6878   -6.6715   27.7262 N   0  0  0  0  0  0  0  0  0  0  0  0
    6.9911   -8.2423   27.1808 C   0  0  0  0  0  0  0  0  0  0  0  0
    3.8436   -7.2758   16.0578 C   0  0  0  0  0  0  0  0  0  0  0  0
    3.1882   -9.7190   17.2566 C   0  0  0  0  0  0  0  0  0  0  0  0
    5.3488   -6.1737   26.5092 C   0  0  0  0  0  0  0  0  0  0  0  0
    7.4567   -6.9464   27.2858 C   0  0  0  0  0  0  0  0  0  0  0  0
    0.1921   -5.7592   27.1123 C   0  0  0  0  0  0  0  0  0  0  0  0
    3.5517   -7.7407   25.9711 C   0  0  0  0  0  0  0  0  0  0  0  0
  1  4  4  0
  1 22  4  0
  2 20  4  0
  2 27  4  0
  3 12  4  0
  3 23  4  0
  4 25  4  0
  4 28  1  0
  5  8  4  0
  5 17  4  0
  6  7  4  0
  6 16  4  0
  7 18  4  0
  8 27  4  0
  9 13  4  0
  9 23  4  0
 10 11  1  0
 11 14  2  0
 11 27  1  0
 12 19  1  0
 12 24  4  0
 13 24  4  0
 15 18  1  0
 16 25  4  0
 16 26  4  0
 17 20  4  0
 17 28  1  0
 18 21  4  0
 21 26  4  0
 22 26  4  0
M  END
$$$$

 Created by Python create_sdf_string function

 28 30  0  0  0  0  0  0  0  0999 V2000
    5.7174   -8.4529   26.7190 C   0  0  0  0  0  0  0  0  0  0  0  0
    0.3974   -7.0711   27.5149 C   0  0  0  0  0  0  0  0  0  0  0  0
    2.5338   -7.6891   16.0102 C   0  0  0  0  0  0  0  0  0  0  0  0
    4.8690   -7.4380   26.4151 C   0  0  0  0  0  0  0  0  0  0  0  0
    2.3021   -5.6726   26.0378 C   0  0  0  0  0  0  0  0  0  0  0  0
    7.0880   -4.6163   27.0010 C   0  0  0  0  0  0  0  0  0  0  0  0
    8.3117   -4.3698   27.4436 C   0  0  0  0  0  0  0  0  0  0  0  0
    1.1339   -5.0515   26.3541 C   0  0  0  0  0  0  0  0  0  0  0  0
    4.8080   -8.0362   16.7101 C   0  0  0  0  0  0  0  0  0  0  0  0
   -1.2173   -3.9294   26.9717 O   0  0  0  0  0  0  0  0  0  0  0  0
   -1.0025   -5.0942   27.4586 C   0  0  0  0  0  0  0  0  0  0  0  0
    2.2474   -8.9123   16.6273 C   0  0  0  0  0  0  0  0  0  0  0  0
    4.4957   -9.2636   17.3041 C   0  0  0  0  0  0  0  0  0  0  0  0
   -1.8070   -5.6086   28.1920 O   0  0  0  0  0  0  0  0  0  0  0  0
   10.4296   -5.1799   28.3140 C   0  0  0  0  0  0  0  0  0  0  0  0
    6.6017   -5.9004   26.9187 C   0  0  0  0  0  0  0  0  0  0  0  0
    2.4761   -6.9940   26.4111 N   0  0  0  0  0  0  0  0  0  0  0  0
    9.1353   -5.4053   27.8239 C   0  0  0  0  0  0  0  0  0  0  0  0
    0.9922   -9.3232   16.5995 O   0  0  0  0  0  0  0  0  0  0  0  0
    1.5232   -7.6869   27.1182 C   0  0  0  0  0  0  0  0  0  0  0  0
    8.6878   -6.6715   27.7262 N   0  0  0  0  0  0  0  0  0  0  0  0
    6.9911   -8.2423   27.1808 C   0  0  0  0  0  0  0  0  0  0  0  0
    3.8436   -7.2758   16.0578 C   0  0  0  0  0  0  0  0  0  0  0  0
    3.1882   -9.7190   17.2566 C   0  0  0  0  0  0  0  0  0  0  0  0
    5.3488   -6.1737   26.5092 C   0  0  0  0  0  0  0  0  0  0  0  0
    7.4567   -6.9464   27.2858 C   0  0  0  0  0  0  0  0  0  0  0  0
    0.1921   -5.7592   27.1123 C   0  0  0  0  0  0  0  0  0  0  0  0
    3.5517   -7.7407   25.9711 C   0  0  0  0  0  0  0  0  0  0  0  0
  1  4  4  0
  1 22  4  0
  2 20  4  0
  2 27  4  0
  3 12  4  0
  3 23  4  0
  4 25  4  0
  4 28  1  0
  5  8  4  0
  5 17  4  0
  6  7  4  0
  6 16  4  0
  7 18  4  0
  8 27  4  0
  9 13  4  0
  9 23  4  0
 10 11  1  0
 11 14  2  0
 11 27  1  0
 12 19  1  0
 12 24  4  0
 13 24  4  0
 15 18  1  0
 16 25  4  0
 16 26  4  0
 17 20  4  0
 17 28  1  0
 18 21  4  0
 21 26  4  0
 22 26  4  0
M  END
$$$$

 Created by Python create_sdf_string function

 28 30  0  0  0  0  0  0  0  0999 V2000
    5.7174   -8.4529   26.7190 C   0  0  0  0  0  0  0  0  0  0  0  0
    0.3974   -7.0711   27.5149 C   0  0  0  0  0  0  0  0  0  0  0  0
    2.5338   -7.6891   16.0102 C   0  0  0  0  0  0  0  0  0  0  0  0
    4.8690   -7.4380   26.4151 C   0  0  0  0  0  0  0  0  0  0  0  0
    2.3021   -5.6726   26.0378 C   0  0  0  0  0  0  0  0  0  0  0  0
    7.0880   -4.6163   27.0010 C   0  0  0  0  0  0  0  0  0  0  0  0
    8.3117   -4.3698   27.4436 C   0  0  0  0  0  0  0  0  0  0  0  0
    1.1339   -5.0515   26.3541 C   0  0  0  0  0  0  0  0  0  0  0  0
    4.8080   -8.0362   16.7101 C   0  0  0  0  0  0  0  0  0  0  0  0
   -1.2173   -3.9294   26.9717 O   0  0  0  0  0  0  0  0  0  0  0  0
   -1.0025   -5.0942   27.4586 C   0  0  0  0  0  0  0  0  0  0  0  0
    2.2474   -8.9123   16.6273 C   0  0  0  0  0  0  0  0  0  0  0  0
    4.4957   -9.2636   17.3041 C   0  0  0  0  0  0  0  0  0  0  0  0
   -1.8070   -5.6086   28.1920 O   0  0  0  0  0  0  0  0  0  0  0  0
   10.4296   -5.1799   28.3140 C   0  0  0  0  0  0  0  0  0  0  0  0
    6.6017   -5.9004   26.9187 C   0  0  0  0  0  0  0  0  0  0  0  0
    2.4761   -6.9940   26.4111 N   0  0  0  0  0  0  0  0  0  0  0  0
    9.1353   -5.4053   27.8239 C   0  0  0  0  0  0  0  0  0  0  0  0
    0.9922   -9.3232   16.5995 O   0  0  0  0  0  0  0  0  0  0  0  0
    1.5232   -7.6869   27.1182 C   0  0  0  0  0  0  0  0  0  0  0  0
    8.6878   -6.6715   27.7262 N   0  0  0  0  0  0  0  0  0  0  0  0
    6.9911   -8.2423   27.1808 C   0  0  0  0  0  0  0  0  0  0  0  0
    3.8436   -7.2758   16.0578 C   0  0  0  0  0  0  0  0  0  0  0  0
    3.1882   -9.7190   17.2566 C   0  0  0  0  0  0  0  0  0  0  0  0
    5.3488   -6.1737   26.5092 C   0  0  0  0  0  0  0  0  0  0  0  0
    7.4567   -6.9464   27.2858 C   0  0  0  0  0  0  0  0  0  0  0  0
    0.1921   -5.7592   27.1123 C   0  0  0  0  0  0  0  0  0  0  0  0
    3.5517   -7.7407   25.9711 C   0  0  0  0  0  0  0  0  0  0  0  0
  1  4  4  0
  1 22  4  0
  2 20  4  0
  2 27  4  0
  3 12  4  0
  3 23  4  0
  4 25  4  0
  4 28  1  0
  5  8  4  0
  5 17  4  0
  6  7  4  0
  6 16  4  0
  7 18  4  0
  8 27  4  0
  9 13  4  0
  9 23  4  0
 10 11  1  0
 11 14  2  0
 11 27  1  0
 12 19  1  0
 12 24  4  0
 13 24  4  0
 15 18  1  0
 16 25  4  0
 16 26  4  0
 17 20  4  0
 17 28  1  0
 18 21  4  0
 21 26  4  0
 22 26  4  0
M  END
$$$$

 Created by Python create_sdf_string function

 28 30  0  0  0  0  0  0  0  0999 V2000
    5.7174   -8.4529   26.7190 C   0  0  0  0  0  0  0  0  0  0  0  0
    0.3974   -7.0711   27.5149 C   0  0  0  0  0  0  0  0  0  0  0  0
    2.5338   -7.6891   16.0102 C   0  0  0  0  0  0  0  0  0  0  0  0
    4.8690   -7.4380   26.4151 C   0  0  0  0  0  0  0  0  0  0  0  0
    2.3021   -5.6726   26.0378 C   0  0  0  0  0  0  0  0  0  0  0  0
    7.0880   -4.6163   27.0010 C   0  0  0  0  0  0  0  0  0  0  0  0
    8.3117   -4.3698   27.4436 C   0  0  0  0  0  0  0  0  0  0  0  0
    1.1339   -5.0515   26.3541 C   0  0  0  0  0  0  0  0  0  0  0  0
    4.8080   -8.0362   16.7101 C   0  0  0  0  0  0  0  0  0  0  0  0
   -1.2173   -3.9294   26.9717 O   0  0  0  0  0  0  0  0  0  0  0  0
   -1.0025   -5.0942   27.4586 C   0  0  0  0  0  0  0  0  0  0  0  0
    2.2474   -8.9123   16.6273 C   0  0  0  0  0  0  0  0  0  0  0  0
    4.4957   -9.2636   17.3041 C   0  0  0  0  0  0  0  0  0  0  0  0
   -1.8070   -5.6086   28.1920 O   0  0  0  0  0  0  0  0  0  0  0  0
   10.4296   -5.1799   28.3140 C   0  0  0  0  0  0  0  0  0  0  0  0
    6.6017   -5.9004   26.9187 C   0  0  0  0  0  0  0  0  0  0  0  0
    2.4761   -6.9940   26.4111 N   0  0  0  0  0  0  0  0  0  0  0  0
    9.1353   -5.4053   27.8239 C   0  0  0  0  0  0  0  0  0  0  0  0
    0.9922   -9.3232   16.5995 O   0  0  0  0  0  0  0  0  0  0  0  0
    1.5232   -7.6869   27.1182 C   0  0  0  0  0  0  0  0  0  0  0  0
    8.6878   -6.6715   27.7262 N   0  0  0  0  0  0  0  0  0  0  0  0
    6.9911   -8.2423   27.1808 C   0  0  0  0  0  0  0  0  0  0  0  0
    3.8436   -7.2758   16.0578 C   0  0  0  0  0  0  0  0  0  0  0  0
    3.1882   -9.7190   17.2566 C   0  0  0  0  0  0  0  0  0  0  0  0
    5.3488   -6.1737   26.5092 C   0  0  0  0  0  0  0  0  0  0  0  0
    7.4567   -6.9464   27.2858 C   0  0  0  0  0  0  0  0  0  0  0  0
    0.1921   -5.7592   27.1123 C   0  0  0  0  0  0  0  0  0  0  0  0
    3.5517   -7.7407   25.9711 C   0  0  0  0  0  0  0  0  0  0  0  0
  1  4  4  0
  1 22  4  0
  2 20  4  0
  2 27  4  0
  3 12  4  0
  3 23  4  0
  4 25  4  0
  4 28  1  0
  5  8  4  0
  5 17  4  0
  6  7  4  0
  6 16  4  0
  7 18  4  0
  8 27  4  0
  9 13  4  0
  9 23  4  0
 10 11  1  0
 11 14  2  0
 11 27  1  0
 12 19  1  0
 12 24  4  0
 13 24  4  0
 15 18  1  0
 16 25  4  0
 16 26  4  0
 17 20  4  0
 17 28  1  0
 18 21  4  0
 21 26  4  0
 22 26  4  0
M  END
$$$$

 Created by Python create_sdf_string function

 28 30  0  0  0  0  0  0  0  0999 V2000
    5.7174   -8.4529   26.7190 C   0  0  0  0  0  0  0  0  0  0  0  0
    0.3974   -7.0711   27.5149 C   0  0  0  0  0  0  0  0  0  0  0  0
    2.5338   -7.6891   16.0102 C   0  0  0  0  0  0  0  0  0  0  0  0
    4.8690   -7.4380   26.4151 C   0  0  0  0  0  0  0  0  0  0  0  0
    2.3021   -5.6726   26.0378 C   0  0  0  0  0  0  0  0  0  0  0  0
    7.0880   -4.6163   27.0010 C   0  0  0  0  0  0  0  0  0  0  0  0
    8.3117   -4.3698   27.4436 C   0  0  0  0  0  0  0  0  0  0  0  0
    1.1339   -5.0515   26.3541 C   0  0  0  0  0  0  0  0  0  0  0  0
    4.8080   -8.0362   16.7101 C   0  0  0  0  0  0  0  0  0  0  0  0
   -1.2173   -3.9294   26.9717 O   0  0  0  0  0  0  0  0  0  0  0  0
   -1.0025   -5.0942   27.4586 C   0  0  0  0  0  0  0  0  0  0  0  0
    2.2474   -8.9123   16.6273 C   0  0  0  0  0  0  0  0  0  0  0  0
    4.4957   -9.2636   17.3041 C   0  0  0  0  0  0  0  0  0  0  0  0
   -1.8070   -5.6086   28.1920 O   0  0  0  0  0  0  0  0  0  0  0  0
   10.4296   -5.1799   28.3140 C   0  0  0  0  0  0  0  0  0  0  0  0
    6.6017   -5.9004   26.9187 C   0  0  0  0  0  0  0  0  0  0  0  0
    2.4761   -6.9940   26.4111 N   0  0  0  0  0  0  0  0  0  0  0  0
    9.1353   -5.4053   27.8239 C   0  0  0  0  0  0  0  0  0  0  0  0
    0.9922   -9.3232   16.5995 O   0  0  0  0  0  0  0  0  0  0  0  0
    1.5232   -7.6869   27.1182 C   0  0  0  0  0  0  0  0  0  0  0  0
    8.6878   -6.6715   27.7262 N   0  0  0  0  0  0  0  0  0  0  0  0
    6.9911   -8.2423   27.1808 C   0  0  0  0  0  0  0  0  0  0  0  0
    3.8436   -7.2758   16.0578 C   0  0  0  0  0  0  0  0  0  0  0  0
    3.1882   -9.7190   17.2566 C   0  0  0  0  0  0  0  0  0  0  0  0
    5.3488   -6.1737   26.5092 C   0  0  0  0  0  0  0  0  0  0  0  0
    7.4567   -6.9464   27.2858 C   0  0  0  0  0  0  0  0  0  0  0  0
    0.1921   -5.7592   27.1123 C   0  0  0  0  0  0  0  0  0  0  0  0
    3.5517   -7.7407   25.9711 C   0  0  0  0  0  0  0  0  0  0  0  0
  1  4  4  0
  1 22  4  0
  2 20  4  0
  2 27  4  0
  3 12  4  0
  3 23  4  0
  4 25  4  0
  4 28  1  0
  5  8  4  0
  5 17  4  0
  6  7  4  0
  6 16  4  0
  7 18  4  0
  8 27  4  0
  9 13  4  0
  9 23  4  0
 10 11  1  0
 11 14  2  0
 11 27  1  0
 12 19  1  0
 12 24  4  0
 13 24  4  0
 15 18  1  0
 16 25  4  0
 16 26  4  0
 17 20  4  0
 17 28  1  0
 18 21  4  0
 21 26  4  0
 22 26  4  0
M  END
$$$$

 Created by Python create_sdf_string function

 28 30  0  0  0  0  0  0  0  0999 V2000
    5.7174   -8.4529   26.7190 C   0  0  0  0  0  0  0  0  0  0  0  0
    0.3974   -7.0711   27.5149 C   0  0  0  0  0  0  0  0  0  0  0  0
    2.5338   -7.6891   16.0102 C   0  0  0  0  0  0  0  0  0  0  0  0
    4.8690   -7.4380   26.4151 C   0  0  0  0  0  0  0  0  0  0  0  0
    2.3021   -5.6726   26.0378 C   0  0  0  0  0  0  0  0  0  0  0  0
    7.0880   -4.6163   27.0010 C   0  0  0  0  0  0  0  0  0  0  0  0
    8.3117   -4.3698   27.4436 C   0  0  0  0  0  0  0  0  0  0  0  0
    1.1339   -5.0515   26.3541 C   0  0  0  0  0  0  0  0  0  0  0  0
    4.8080   -8.0362   16.7101 C   0  0  0  0  0  0  0  0  0  0  0  0
   -1.2173   -3.9294   26.9717 O   0  0  0  0  0  0  0  0  0  0  0  0
   -1.0025   -5.0942   27.4586 C   0  0  0  0  0  0  0  0  0  0  0  0
    2.2474   -8.9123   16.6273 C   0  0  0  0  0  0  0  0  0  0  0  0
    4.4957   -9.2636   17.3041 C   0  0  0  0  0  0  0  0  0  0  0  0
   -1.8070   -5.6086   28.1920 O   0  0  0  0  0  0  0  0  0  0  0  0
   10.4296   -5.1799   28.3140 C   0  0  0  0  0  0  0  0  0  0  0  0
    6.6017   -5.9004   26.9187 C   0  0  0  0  0  0  0  0  0  0  0  0
    2.4761   -6.9940   26.4111 N   0  0  0  0  0  0  0  0  0  0  0  0
    9.1353   -5.4053   27.8239 C   0  0  0  0  0  0  0  0  0  0  0  0
    0.9922   -9.3232   16.5995 O   0  0  0  0  0  0  0  0  0  0  0  0
    1.5232   -7.6869   27.1182 C   0  0  0  0  0  0  0  0  0  0  0  0
    8.6878   -6.6715   27.7262 N   0  0  0  0  0  0  0  0  0  0  0  0
    6.9911   -8.2423   27.1808 C   0  0  0  0  0  0  0  0  0  0  0  0
    3.8436   -7.2758   16.0578 C   0  0  0  0  0  0  0  0  0  0  0  0
    3.1882   -9.7190   17.2566 C   0  0  0  0  0  0  0  0  0  0  0  0
    5.3488   -6.1737   26.5092 C   0  0  0  0  0  0  0  0  0  0  0  0
    7.4567   -6.9464   27.2858 C   0  0  0  0  0  0  0  0  0  0  0  0
    0.1921   -5.7592   27.1123 C   0  0  0  0  0  0  0  0  0  0  0  0
    3.5517   -7.7407   25.9711 C   0  0  0  0  0  0  0  0  0  0  0  0
  1  4  4  0
  1 22  4  0
  2 20  4  0
  2 27  4  0
  3 12  4  0
  3 23  4  0
  4 25  4  0
  4 28  1  0
  5  8  4  0
  5 17  4  0
  6  7  4  0
  6 16  4  0
  7 18  4  0
  8 27  4  0
  9 13  4  0
  9 23  4  0
 10 11  1  0
 11 14  2  0
 11 27  1  0
 12 19  1  0
 12 24  4  0
 13 24  4  0
 15 18  1  0
 16 25  4  0
 16 26  4  0
 17 20  4  0
 17 28  1  0
 18 21  4  0
 21 26  4  0
 22 26  4  0
M  END
$$$$

 Created by Python create_sdf_string function

 28 30  0  0  0  0  0  0  0  0999 V2000
    5.7174   -8.4529   26.7190 C   0  0  0  0  0  0  0  0  0  0  0  0
    0.3974   -7.0711   27.5149 C   0  0  0  0  0  0  0  0  0  0  0  0
    2.5338   -7.6891   16.0102 C   0  0  0  0  0  0  0  0  0  0  0  0
    4.8690   -7.4380   26.4151 C   0  0  0  0  0  0  0  0  0  0  0  0
    2.3021   -5.6726   26.0378 C   0  0  0  0  0  0  0  0  0  0  0  0
    7.0880   -4.6163   27.0010 C   0  0  0  0  0  0  0  0  0  0  0  0
    8.3117   -4.3698   27.4436 C   0  0  0  0  0  0  0  0  0  0  0  0
    1.1339   -5.0515   26.3541 C   0  0  0  0  0  0  0  0  0  0  0  0
    4.8080   -8.0362   16.7101 C   0  0  0  0  0  0  0  0  0  0  0  0
   -1.2173   -3.9294   26.9717 O   0  0  0  0  0  0  0  0  0  0  0  0
   -1.0025   -5.0942   27.4586 C   0  0  0  0  0  0  0  0  0  0  0  0
    2.2474   -8.9123   16.6273 C   0  0  0  0  0  0  0  0  0  0  0  0
    4.4957   -9.2636   17.3041 C   0  0  0  0  0  0  0  0  0  0  0  0
   -1.8070   -5.6086   28.1920 O   0  0  0  0  0  0  0  0  0  0  0  0
   10.4296   -5.1799   28.3140 C   0  0  0  0  0  0  0  0  0  0  0  0
    6.6017   -5.9004   26.9187 C   0  0  0  0  0  0  0  0  0  0  0  0
    2.4761   -6.9940   26.4111 N   0  0  0  0  0  0  0  0  0  0  0  0
    9.1353   -5.4053   27.8239 C   0  0  0  0  0  0  0  0  0  0  0  0
    0.9922   -9.3232   16.5995 O   0  0  0  0  0  0  0  0  0  0  0  0
    1.5232   -7.6869   27.1182 C   0  0  0  0  0  0  0  0  0  0  0  0
    8.6878   -6.6715   27.7262 N   0  0  0  0  0  0  0  0  0  0  0  0
    6.9911   -8.2423   27.1808 C   0  0  0  0  0  0  0  0  0  0  0  0
    3.8436   -7.2758   16.0578 C   0  0  0  0  0  0  0  0  0  0  0  0
    3.1882   -9.7190   17.2566 C   0  0  0  0  0  0  0  0  0  0  0  0
    5.3488   -6.1737   26.5092 C   0  0  0  0  0  0  0  0  0  0  0  0
    7.4567   -6.9464   27.2858 C   0  0  0  0  0  0  0  0  0  0  0  0
    0.1921   -5.7592   27.1123 C   0  0  0  0  0  0  0  0  0  0  0  0
    3.5517   -7.7407   25.9711 C   0  0  0  0  0  0  0  0  0  0  0  0
  1  4  4  0
  1 22  4  0
  2 20  4  0
  2 27  4  0
  3 12  4  0
  3 23  4  0
  4 25  4  0
  4 28  1  0
  5  8  4  0
  5 17  4  0
  6  7  4  0
  6 16  4  0
  7 18  4  0
  8 27  4  0
  9 13  4  0
  9 23  4  0
 10 11  1  0
 11 14  2  0
 11 27  1  0
 12 19  1  0
 12 24  4  0
 13 24  4  0
 15 18  1  0
 16 25  4  0
 16 26  4  0
 17 20  4  0
 17 28  1  0
 18 21  4  0
 21 26  4  0
 22 26  4  0
M  END
$$$$

 Created by Python create_sdf_string function

 28 30  0  0  0  0  0  0  0  0999 V2000
    5.7174   -8.4529   26.7190 C   0  0  0  0  0  0  0  0  0  0  0  0
    0.3974   -7.0711   27.5149 C   0  0  0  0  0  0  0  0  0  0  0  0
    2.5338   -7.6891   16.0102 C   0  0  0  0  0  0  0  0  0  0  0  0
    4.8690   -7.4380   26.4151 C   0  0  0  0  0  0  0  0  0  0  0  0
    2.3021   -5.6726   26.0378 C   0  0  0  0  0  0  0  0  0  0  0  0
    7.0880   -4.6163   27.0010 C   0  0  0  0  0  0  0  0  0  0  0  0
    8.3117   -4.3698   27.4436 C   0  0  0  0  0  0  0  0  0  0  0  0
    1.1339   -5.0515   26.3541 C   0  0  0  0  0  0  0  0  0  0  0  0
    4.8080   -8.0362   16.7101 C   0  0  0  0  0  0  0  0  0  0  0  0
   -1.2173   -3.9294   26.9717 O   0  0  0  0  0  0  0  0  0  0  0  0
   -1.0025   -5.0942   27.4586 C   0  0  0  0  0  0  0  0  0  0  0  0
    2.2474   -8.9123   16.6273 C   0  0  0  0  0  0  0  0  0  0  0  0
    4.4957   -9.2636   17.3041 C   0  0  0  0  0  0  0  0  0  0  0  0
   -1.8070   -5.6086   28.1920 O   0  0  0  0  0  0  0  0  0  0  0  0
   10.4296   -5.1799   28.3140 C   0  0  0  0  0  0  0  0  0  0  0  0
    6.6017   -5.9004   26.9187 C   0  0  0  0  0  0  0  0  0  0  0  0
    2.4761   -6.9940   26.4111 N   0  0  0  0  0  0  0  0  0  0  0  0
    9.1353   -5.4053   27.8239 C   0  0  0  0  0  0  0  0  0  0  0  0
    0.9922   -9.3232   16.5995 O   0  0  0  0  0  0  0  0  0  0  0  0
    1.5232   -7.6869   27.1182 C   0  0  0  0  0  0  0  0  0  0  0  0
    8.6878   -6.6715   27.7262 N   0  0  0  0  0  0  0  0  0  0  0  0
    6.9911   -8.2423   27.1808 C   0  0  0  0  0  0  0  0  0  0  0  0
    3.8436   -7.2758   16.0578 C   0  0  0  0  0  0  0  0  0  0  0  0
    3.1882   -9.7190   17.2566 C   0  0  0  0  0  0  0  0  0  0  0  0
    5.3488   -6.1737   26.5092 C   0  0  0  0  0  0  0  0  0  0  0  0
    7.4567   -6.9464   27.2858 C   0  0  0  0  0  0  0  0  0  0  0  0
    0.1921   -5.7592   27.1123 C   0  0  0  0  0  0  0  0  0  0  0  0
    3.5517   -7.7407   25.9711 C   0  0  0  0  0  0  0  0  0  0  0  0
  1  4  4  0
  1 22  4  0
  2 20  4  0
  2 27  4  0
  3 12  4  0
  3 23  4  0
  4 25  4  0
  4 28  1  0
  5  8  4  0
  5 17  4  0
  6  7  4  0
  6 16  4  0
  7 18  4  0
  8 27  4  0
  9 13  4  0
  9 23  4  0
 10 11  1  0
 11 14  2  0
 11 27  1  0
 12 19  1  0
 12 24  4  0
 13 24  4  0
 15 18  1  0
 16 25  4  0
 16 26  4  0
 17 20  4  0
 17 28  1  0
 18 21  4  0
 21 26  4  0
 22 26  4  0
M  END
$$$$

 Created by Python create_sdf_string function

 28 30  0  0  0  0  0  0  0  0999 V2000
    5.7174   -8.4529   26.7190 C   0  0  0  0  0  0  0  0  0  0  0  0
    0.3974   -7.0711   27.5149 C   0  0  0  0  0  0  0  0  0  0  0  0
    2.5338   -7.6891   16.0102 C   0  0  0  0  0  0  0  0  0  0  0  0
    4.8690   -7.4380   26.4151 C   0  0  0  0  0  0  0  0  0  0  0  0
    2.3021   -5.6726   26.0378 C   0  0  0  0  0  0  0  0  0  0  0  0
    7.0880   -4.6163   27.0010 C   0  0  0  0  0  0  0  0  0  0  0  0
    8.3117   -4.3698   27.4436 C   0  0  0  0  0  0  0  0  0  0  0  0
    1.1339   -5.0515   26.3541 C   0  0  0  0  0  0  0  0  0  0  0  0
    4.8080   -8.0362   16.7101 C   0  0  0  0  0  0  0  0  0  0  0  0
   -1.2173   -3.9294   26.9717 O   0  0  0  0  0  0  0  0  0  0  0  0
   -1.0025   -5.0942   27.4586 C   0  0  0  0  0  0  0  0  0  0  0  0
    2.2474   -8.9123   16.6273 C   0  0  0  0  0  0  0  0  0  0  0  0
    4.4957   -9.2636   17.3041 C   0  0  0  0  0  0  0  0  0  0  0  0
   -1.8070   -5.6086   28.1920 O   0  0  0  0  0  0  0  0  0  0  0  0
   10.4296   -5.1799   28.3140 C   0  0  0  0  0  0  0  0  0  0  0  0
    6.6017   -5.9004   26.9187 C   0  0  0  0  0  0  0  0  0  0  0  0
    2.4761   -6.9940   26.4111 N   0  0  0  0  0  0  0  0  0  0  0  0
    9.1353   -5.4053   27.8239 C   0  0  0  0  0  0  0  0  0  0  0  0
    0.9922   -9.3232   16.5995 O   0  0  0  0  0  0  0  0  0  0  0  0
    1.5232   -7.6869   27.1182 C   0  0  0  0  0  0  0  0  0  0  0  0
    8.6878   -6.6715   27.7262 N   0  0  0  0  0  0  0  0  0  0  0  0
    6.9911   -8.2423   27.1808 C   0  0  0  0  0  0  0  0  0  0  0  0
    3.8436   -7.2758   16.0578 C   0  0  0  0  0  0  0  0  0  0  0  0
    3.1882   -9.7190   17.2566 C   0  0  0  0  0  0  0  0  0  0  0  0
    5.3488   -6.1737   26.5092 C   0  0  0  0  0  0  0  0  0  0  0  0
    7.4567   -6.9464   27.2858 C   0  0  0  0  0  0  0  0  0  0  0  0
    0.1921   -5.7592   27.1123 C   0  0  0  0  0  0  0  0  0  0  0  0
    3.5517   -7.7407   25.9711 C   0  0  0  0  0  0  0  0  0  0  0  0
  1  4  4  0
  1 22  4  0
  2 20  4  0
  2 27  4  0
  3 12  4  0
  3 23  4  0
  4 25  4  0
  4 28  1  0
  5  8  4  0
  5 17  4  0
  6  7  4  0
  6 16  4  0
  7 18  4  0
  8 27  4  0
  9 13  4  0
  9 23  4  0
 10 11  1  0
 11 14  2  0
 11 27  1  0
 12 19  1  0
 12 24  4  0
 13 24  4  0
 15 18  1  0
 16 25  4  0
 16 26  4  0
 17 20  4  0
 17 28  1  0
 18 21  4  0
 21 26  4  0
 22 26  4  0
M  END
$$$$

 Created by Python create_sdf_string function

 28 30  0  0  0  0  0  0  0  0999 V2000
    5.7174   -8.4529   26.7190 C   0  0  0  0  0  0  0  0  0  0  0  0
    0.3974   -7.0711   27.5149 C   0  0  0  0  0  0  0  0  0  0  0  0
    2.5338   -7.6891   16.0102 C   0  0  0  0  0  0  0  0  0  0  0  0
    4.8690   -7.4380   26.4151 C   0  0  0  0  0  0  0  0  0  0  0  0
    2.3021   -5.6726   26.0378 C   0  0  0  0  0  0  0  0  0  0  0  0
    7.0880   -4.6163   27.0010 C   0  0  0  0  0  0  0  0  0  0  0  0
    8.3117   -4.3698   27.4436 C   0  0  0  0  0  0  0  0  0  0  0  0
    1.1339   -5.0515   26.3541 C   0  0  0  0  0  0  0  0  0  0  0  0
    4.8080   -8.0362   16.7101 C   0  0  0  0  0  0  0  0  0  0  0  0
   -1.2173   -3.9294   26.9717 O   0  0  0  0  0  0  0  0  0  0  0  0
   -1.0025   -5.0942   27.4586 C   0  0  0  0  0  0  0  0  0  0  0  0
    2.2474   -8.9123   16.6273 C   0  0  0  0  0  0  0  0  0  0  0  0
    4.4957   -9.2636   17.3041 C   0  0  0  0  0  0  0  0  0  0  0  0
   -1.8070   -5.6086   28.1920 O   0  0  0  0  0  0  0  0  0  0  0  0
   10.4296   -5.1799   28.3140 C   0  0  0  0  0  0  0  0  0  0  0  0
    6.6017   -5.9004   26.9187 C   0  0  0  0  0  0  0  0  0  0  0  0
    2.4761   -6.9940   26.4111 N   0  0  0  0  0  0  0  0  0  0  0  0
    9.1353   -5.4053   27.8239 C   0  0  0  0  0  0  0  0  0  0  0  0
    0.9922   -9.3232   16.5995 O   0  0  0  0  0  0  0  0  0  0  0  0
    1.5232   -7.6869   27.1182 C   0  0  0  0  0  0  0  0  0  0  0  0
    8.6878   -6.6715   27.7262 N   0  0  0  0  0  0  0  0  0  0  0  0
    6.9911   -8.2423   27.1808 C   0  0  0  0  0  0  0  0  0  0  0  0
    3.8436   -7.2758   16.0578 C   0  0  0  0  0  0  0  0  0  0  0  0
    3.1882   -9.7190   17.2566 C   0  0  0  0  0  0  0  0  0  0  0  0
    5.3488   -6.1737   26.5092 C   0  0  0  0  0  0  0  0  0  0  0  0
    7.4567   -6.9464   27.2858 C   0  0  0  0  0  0  0  0  0  0  0  0
    0.1921   -5.7592   27.1123 C   0  0  0  0  0  0  0  0  0  0  0  0
    3.5517   -7.7407   25.9711 C   0  0  0  0  0  0  0  0  0  0  0  0
  1  4  4  0
  1 22  4  0
  2 20  4  0
  2 27  4  0
  3 12  4  0
  3 23  4  0
  4 25  4  0
  4 28  1  0
  5  8  4  0
  5 17  4  0
  6  7  4  0
  6 16  4  0
  7 18  4  0
  8 27  4  0
  9 13  4  0
  9 23  4  0
 10 11  1  0
 11 14  2  0
 11 27  1  0
 12 19  1  0
 12 24  4  0
 13 24  4  0
 15 18  1  0
 16 25  4  0
 16 26  4  0
 17 20  4  0
 17 28  1  0
 18 21  4  0
 21 26  4  0
 22 26  4  0
M  END
$$$$

 Created by Python create_sdf_string function

 28 30  0  0  0  0  0  0  0  0999 V2000
    5.7174   -8.4529   26.7190 C   0  0  0  0  0  0  0  0  0  0  0  0
    0.3974   -7.0711   27.5149 C   0  0  0  0  0  0  0  0  0  0  0  0
    2.5338   -7.6891   16.0102 C   0  0  0  0  0  0  0  0  0  0  0  0
    4.8690   -7.4380   26.4151 C   0  0  0  0  0  0  0  0  0  0  0  0
    2.3021   -5.6726   26.0378 C   0  0  0  0  0  0  0  0  0  0  0  0
    7.0880   -4.6163   27.0010 C   0  0  0  0  0  0  0  0  0  0  0  0
    8.3117   -4.3698   27.4436 C   0  0  0  0  0  0  0  0  0  0  0  0
    1.1339   -5.0515   26.3541 C   0  0  0  0  0  0  0  0  0  0  0  0
    4.8080   -8.0362   16.7101 C   0  0  0  0  0  0  0  0  0  0  0  0
   -1.2173   -3.9294   26.9717 O   0  0  0  0  0  0  0  0  0  0  0  0
   -1.0025   -5.0942   27.4586 C   0  0  0  0  0  0  0  0  0  0  0  0
    2.2474   -8.9123   16.6273 C   0  0  0  0  0  0  0  0  0  0  0  0
    4.4957   -9.2636   17.3041 C   0  0  0  0  0  0  0  0  0  0  0  0
   -1.8070   -5.6086   28.1920 O   0  0  0  0  0  0  0  0  0  0  0  0
   10.4296   -5.1799   28.3140 C   0  0  0  0  0  0  0  0  0  0  0  0
    6.6017   -5.9004   26.9187 C   0  0  0  0  0  0  0  0  0  0  0  0
    2.4761   -6.9940   26.4111 N   0  0  0  0  0  0  0  0  0  0  0  0
    9.1353   -5.4053   27.8239 C   0  0  0  0  0  0  0  0  0  0  0  0
    0.9922   -9.3232   16.5995 O   0  0  0  0  0  0  0  0  0  0  0  0
    1.5232   -7.6869   27.1182 C   0  0  0  0  0  0  0  0  0  0  0  0
    8.6878   -6.6715   27.7262 N   0  0  0  0  0  0  0  0  0  0  0  0
    6.9911   -8.2423   27.1808 C   0  0  0  0  0  0  0  0  0  0  0  0
    3.8436   -7.2758   16.0578 C   0  0  0  0  0  0  0  0  0  0  0  0
    3.1882   -9.7190   17.2566 C   0  0  0  0  0  0  0  0  0  0  0  0
    5.3488   -6.1737   26.5092 C   0  0  0  0  0  0  0  0  0  0  0  0
    7.4567   -6.9464   27.2858 C   0  0  0  0  0  0  0  0  0  0  0  0
    0.1921   -5.7592   27.1123 C   0  0  0  0  0  0  0  0  0  0  0  0
    3.5517   -7.7407   25.9711 C   0  0  0  0  0  0  0  0  0  0  0  0
  1  4  4  0
  1 22  4  0
  2 20  4  0
  2 27  4  0
  3 12  4  0
  3 23  4  0
  4 25  4  0
  4 28  1  0
  5  8  4  0
  5 17  4  0
  6  7  4  0
  6 16  4  0
  7 18  4  0
  8 27  4  0
  9 13  4  0
  9 23  4  0
 10 11  1  0
 11 14  2  0
 11 27  1  0
 12 19  1  0
 12 24  4  0
 13 24  4  0
 15 18  1  0
 16 25  4  0
 16 26  4  0
 17 20  4  0
 17 28  1  0
 18 21  4  0
 21 26  4  0
 22 26  4  0
M  END
$$$$

 Created by Python create_sdf_string function

 28 30  0  0  0  0  0  0  0  0999 V2000
    5.7174   -8.4529   26.7190 C   0  0  0  0  0  0  0  0  0  0  0  0
    0.3974   -7.0711   27.5149 C   0  0  0  0  0  0  0  0  0  0  0  0
    2.5338   -7.6891   16.0102 C   0  0  0  0  0  0  0  0  0  0  0  0
    4.8690   -7.4380   26.4151 C   0  0  0  0  0  0  0  0  0  0  0  0
    2.3021   -5.6726   26.0378 C   0  0  0  0  0  0  0  0  0  0  0  0
    7.0880   -4.6163   27.0010 C   0  0  0  0  0  0  0  0  0  0  0  0
    8.3117   -4.3698   27.4436 C   0  0  0  0  0  0  0  0  0  0  0  0
    1.1339   -5.0515   26.3541 C   0  0  0  0  0  0  0  0  0  0  0  0
    4.8080   -8.0362   16.7101 C   0  0  0  0  0  0  0  0  0  0  0  0
   -1.2173   -3.9294   26.9717 O   0  0  0  0  0  0  0  0  0  0  0  0
   -1.0025   -5.0942   27.4586 C   0  0  0  0  0  0  0  0  0  0  0  0
    2.2474   -8.9123   16.6273 C   0  0  0  0  0  0  0  0  0  0  0  0
    4.4957   -9.2636   17.3041 C   0  0  0  0  0  0  0  0  0  0  0  0
   -1.8070   -5.6086   28.1920 O   0  0  0  0  0  0  0  0  0  0  0  0
   10.4296   -5.1799   28.3140 C   0  0  0  0  0  0  0  0  0  0  0  0
    6.6017   -5.9004   26.9187 C   0  0  0  0  0  0  0  0  0  0  0  0
    2.4761   -6.9940   26.4111 N   0  0  0  0  0  0  0  0  0  0  0  0
    9.1353   -5.4053   27.8239 C   0  0  0  0  0  0  0  0  0  0  0  0
    0.9922   -9.3232   16.5995 O   0  0  0  0  0  0  0  0  0  0  0  0
    1.5232   -7.6869   27.1182 C   0  0  0  0  0  0  0  0  0  0  0  0
    8.6878   -6.6715   27.7262 N   0  0  0  0  0  0  0  0  0  0  0  0
    6.9911   -8.2423   27.1808 C   0  0  0  0  0  0  0  0  0  0  0  0
    3.8436   -7.2758   16.0578 C   0  0  0  0  0  0  0  0  0  0  0  0
    3.1882   -9.7190   17.2566 C   0  0  0  0  0  0  0  0  0  0  0  0
    5.3488   -6.1737   26.5092 C   0  0  0  0  0  0  0  0  0  0  0  0
    7.4567   -6.9464   27.2858 C   0  0  0  0  0  0  0  0  0  0  0  0
    0.1921   -5.7592   27.1123 C   0  0  0  0  0  0  0  0  0  0  0  0
    3.5517   -7.7407   25.9711 C   0  0  0  0  0  0  0  0  0  0  0  0
  1  4  4  0
  1 22  4  0
  2 20  4  0
  2 27  4  0
  3 12  4  0
  3 23  4  0
  4 25  4  0
  4 28  1  0
  5  8  4  0
  5 17  4  0
  6  7  4  0
  6 16  4  0
  7 18  4  0
  8 27  4  0
  9 13  4  0
  9 23  4  0
 10 11  1  0
 11 14  2  0
 11 27  1  0
 12 19  1  0
 12 24  4  0
 13 24  4  0
 15 18  1  0
 16 25  4  0
 16 26  4  0
 17 20  4  0
 17 28  1  0
 18 21  4  0
 21 26  4  0
 22 26  4  0
M  END
$$$$

 Created by Python create_sdf_string function

 28 30  0  0  0  0  0  0  0  0999 V2000
    5.7174   -8.4529   26.7190 C   0  0  0  0  0  0  0  0  0  0  0  0
    0.3974   -7.0711   27.5149 C   0  0  0  0  0  0  0  0  0  0  0  0
    2.5338   -7.6891   16.0102 C   0  0  0  0  0  0  0  0  0  0  0  0
    4.8690   -7.4380   26.4151 C   0  0  0  0  0  0  0  0  0  0  0  0
    2.3021   -5.6726   26.0378 C   0  0  0  0  0  0  0  0  0  0  0  0
    7.0880   -4.6163   27.0010 C   0  0  0  0  0  0  0  0  0  0  0  0
    8.3117   -4.3698   27.4436 C   0  0  0  0  0  0  0  0  0  0  0  0
    1.1339   -5.0515   26.3541 C   0  0  0  0  0  0  0  0  0  0  0  0
    4.8080   -8.0362   16.7101 C   0  0  0  0  0  0  0  0  0  0  0  0
   -1.2173   -3.9294   26.9717 O   0  0  0  0  0  0  0  0  0  0  0  0
   -1.0025   -5.0942   27.4586 C   0  0  0  0  0  0  0  0  0  0  0  0
    2.2474   -8.9123   16.6273 C   0  0  0  0  0  0  0  0  0  0  0  0
    4.4957   -9.2636   17.3041 C   0  0  0  0  0  0  0  0  0  0  0  0
   -1.8070   -5.6086   28.1920 O   0  0  0  0  0  0  0  0  0  0  0  0
   10.4296   -5.1799   28.3140 C   0  0  0  0  0  0  0  0  0  0  0  0
    6.6017   -5.9004   26.9187 C   0  0  0  0  0  0  0  0  0  0  0  0
    2.4761   -6.9940   26.4111 N   0  0  0  0  0  0  0  0  0  0  0  0
    9.1353   -5.4053   27.8239 C   0  0  0  0  0  0  0  0  0  0  0  0
    0.9922   -9.3232   16.5995 O   0  0  0  0  0  0  0  0  0  0  0  0
    1.5232   -7.6869   27.1182 C   0  0  0  0  0  0  0  0  0  0  0  0
    8.6878   -6.6715   27.7262 N   0  0  0  0  0  0  0  0  0  0  0  0
    6.9911   -8.2423   27.1808 C   0  0  0  0  0  0  0  0  0  0  0  0
    3.8436   -7.2758   16.0578 C   0  0  0  0  0  0  0  0  0  0  0  0
    3.1882   -9.7190   17.2566 C   0  0  0  0  0  0  0  0  0  0  0  0
    5.3488   -6.1737   26.5092 C   0  0  0  0  0  0  0  0  0  0  0  0
    7.4567   -6.9464   27.2858 C   0  0  0  0  0  0  0  0  0  0  0  0
    0.1921   -5.7592   27.1123 C   0  0  0  0  0  0  0  0  0  0  0  0
    3.5517   -7.7407   25.9711 C   0  0  0  0  0  0  0  0  0  0  0  0
  1  4  4  0
  1 22  4  0
  2 20  4  0
  2 27  4  0
  3 12  4  0
  3 23  4  0
  4 25  4  0
  4 28  1  0
  5  8  4  0
  5 17  4  0
  6  7  4  0
  6 16  4  0
  7 18  4  0
  8 27  4  0
  9 13  4  0
  9 23  4  0
 10 11  1  0
 11 14  2  0
 11 27  1  0
 12 19  1  0
 12 24  4  0
 13 24  4  0
 15 18  1  0
 16 25  4  0
 16 26  4  0
 17 20  4  0
 17 28  1  0
 18 21  4  0
 21 26  4  0
 22 26  4  0
M  END
$$$$

 Created by Python create_sdf_string function

 28 30  0  0  0  0  0  0  0  0999 V2000
    5.7174   -8.4529   26.7190 C   0  0  0  0  0  0  0  0  0  0  0  0
    0.3974   -7.0711   27.5149 C   0  0  0  0  0  0  0  0  0  0  0  0
    2.5338   -7.6891   16.0102 C   0  0  0  0  0  0  0  0  0  0  0  0
    4.8690   -7.4380   26.4151 C   0  0  0  0  0  0  0  0  0  0  0  0
    2.3021   -5.6726   26.0378 C   0  0  0  0  0  0  0  0  0  0  0  0
    7.0880   -4.6163   27.0010 C   0  0  0  0  0  0  0  0  0  0  0  0
    8.3117   -4.3698   27.4436 C   0  0  0  0  0  0  0  0  0  0  0  0
    1.1339   -5.0515   26.3541 C   0  0  0  0  0  0  0  0  0  0  0  0
    4.8080   -8.0362   16.7101 C   0  0  0  0  0  0  0  0  0  0  0  0
   -1.2173   -3.9294   26.9717 O   0  0  0  0  0  0  0  0  0  0  0  0
   -1.0025   -5.0942   27.4586 C   0  0  0  0  0  0  0  0  0  0  0  0
    2.2474   -8.9123   16.6273 C   0  0  0  0  0  0  0  0  0  0  0  0
    4.4957   -9.2636   17.3041 C   0  0  0  0  0  0  0  0  0  0  0  0
   -1.8070   -5.6086   28.1920 O   0  0  0  0  0  0  0  0  0  0  0  0
   10.4296   -5.1799   28.3140 C   0  0  0  0  0  0  0  0  0  0  0  0
    6.6017   -5.9004   26.9187 C   0  0  0  0  0  0  0  0  0  0  0  0
    2.4761   -6.9940   26.4111 N   0  0  0  0  0  0  0  0  0  0  0  0
    9.1353   -5.4053   27.8239 C   0  0  0  0  0  0  0  0  0  0  0  0
    0.9922   -9.3232   16.5995 O   0  0  0  0  0  0  0  0  0  0  0  0
    1.5232   -7.6869   27.1182 C   0  0  0  0  0  0  0  0  0  0  0  0
    8.6878   -6.6715   27.7262 N   0  0  0  0  0  0  0  0  0  0  0  0
    6.9911   -8.2423   27.1808 C   0  0  0  0  0  0  0  0  0  0  0  0
    3.8436   -7.2758   16.0578 C   0  0  0  0  0  0  0  0  0  0  0  0
    3.1882   -9.7190   17.2566 C   0  0  0  0  0  0  0  0  0  0  0  0
    5.3488   -6.1737   26.5092 C   0  0  0  0  0  0  0  0  0  0  0  0
    7.4567   -6.9464   27.2858 C   0  0  0  0  0  0  0  0  0  0  0  0
    0.1921   -5.7592   27.1123 C   0  0  0  0  0  0  0  0  0  0  0  0
    3.5517   -7.7407   25.9711 C   0  0  0  0  0  0  0  0  0  0  0  0
  1  4  4  0
  1 22  4  0
  2 20  4  0
  2 27  4  0
  3 12  4  0
  3 23  4  0
  4 25  4  0
  4 28  1  0
  5  8  4  0
  5 17  4  0
  6  7  4  0
  6 16  4  0
  7 18  4  0
  8 27  4  0
  9 13  4  0
  9 23  4  0
 10 11  1  0
 11 14  2  0
 11 27  1  0
 12 19  1  0
 12 24  4  0
 13 24  4  0
 15 18  1  0
 16 25  4  0
 16 26  4  0
 17 20  4  0
 17 28  1  0
 18 21  4  0
 21 26  4  0
 22 26  4  0
M  END
$$$$

 Created by Python create_sdf_string function

 28 30  0  0  0  0  0  0  0  0999 V2000
    5.7174   -8.4529   26.7190 C   0  0  0  0  0  0  0  0  0  0  0  0
    0.3974   -7.0711   27.5149 C   0  0  0  0  0  0  0  0  0  0  0  0
    2.5338   -7.6891   16.0102 C   0  0  0  0  0  0  0  0  0  0  0  0
    4.8690   -7.4380   26.4151 C   0  0  0  0  0  0  0  0  0  0  0  0
    2.3021   -5.6726   26.0378 C   0  0  0  0  0  0  0  0  0  0  0  0
    7.0880   -4.6163   27.0010 C   0  0  0  0  0  0  0  0  0  0  0  0
    8.3117   -4.3698   27.4436 C   0  0  0  0  0  0  0  0  0  0  0  0
    1.1339   -5.0515   26.3541 C   0  0  0  0  0  0  0  0  0  0  0  0
    4.8080   -8.0362   16.7101 C   0  0  0  0  0  0  0  0  0  0  0  0
   -1.2173   -3.9294   26.9717 O   0  0  0  0  0  0  0  0  0  0  0  0
   -1.0025   -5.0942   27.4586 C   0  0  0  0  0  0  0  0  0  0  0  0
    2.2474   -8.9123   16.6273 C   0  0  0  0  0  0  0  0  0  0  0  0
    4.4957   -9.2636   17.3041 C   0  0  0  0  0  0  0  0  0  0  0  0
   -1.8070   -5.6086   28.1920 O   0  0  0  0  0  0  0  0  0  0  0  0
   10.4296   -5.1799   28.3140 C   0  0  0  0  0  0  0  0  0  0  0  0
    6.6017   -5.9004   26.9187 C   0  0  0  0  0  0  0  0  0  0  0  0
    2.4761   -6.9940   26.4111 N   0  0  0  0  0  0  0  0  0  0  0  0
    9.1353   -5.4053   27.8239 C   0  0  0  0  0  0  0  0  0  0  0  0
    0.9922   -9.3232   16.5995 O   0  0  0  0  0  0  0  0  0  0  0  0
    1.5232   -7.6869   27.1182 C   0  0  0  0  0  0  0  0  0  0  0  0
    8.6878   -6.6715   27.7262 N   0  0  0  0  0  0  0  0  0  0  0  0
    6.9911   -8.2423   27.1808 C   0  0  0  0  0  0  0  0  0  0  0  0
    3.8436   -7.2758   16.0578 C   0  0  0  0  0  0  0  0  0  0  0  0
    3.1882   -9.7190   17.2566 C   0  0  0  0  0  0  0  0  0  0  0  0
    5.3488   -6.1737   26.5092 C   0  0  0  0  0  0  0  0  0  0  0  0
    7.4567   -6.9464   27.2858 C   0  0  0  0  0  0  0  0  0  0  0  0
    0.1921   -5.7592   27.1123 C   0  0  0  0  0  0  0  0  0  0  0  0
    3.5517   -7.7407   25.9711 C   0  0  0  0  0  0  0  0  0  0  0  0
  1  4  4  0
  1 22  4  0
  2 20  4  0
  2 27  4  0
  3 12  4  0
  3 23  4  0
  4 25  4  0
  4 28  1  0
  5  8  4  0
  5 17  4  0
  6  7  4  0
  6 16  4  0
  7 18  4  0
  8 27  4  0
  9 13  4  0
  9 23  4  0
 10 11  1  0
 11 14  2  0
 11 27  1  0
 12 19  1  0
 12 24  4  0
 13 24  4  0
 15 18  1  0
 16 25  4  0
 16 26  4  0
 17 20  4  0
 17 28  1  0
 18 21  4  0
 21 26  4  0
 22 26  4  0
M  END
$$$$

 Created by Python create_sdf_string function

 28 30  0  0  0  0  0  0  0  0999 V2000
    5.7174   -8.4529   26.7190 C   0  0  0  0  0  0  0  0  0  0  0  0
    0.3974   -7.0711   27.5149 C   0  0  0  0  0  0  0  0  0  0  0  0
    2.5338   -7.6891   16.0102 C   0  0  0  0  0  0  0  0  0  0  0  0
    4.8690   -7.4380   26.4151 C   0  0  0  0  0  0  0  0  0  0  0  0
    2.3021   -5.6726   26.0378 C   0  0  0  0  0  0  0  0  0  0  0  0
    7.0880   -4.6163   27.0010 C   0  0  0  0  0  0  0  0  0  0  0  0
    8.3117   -4.3698   27.4436 C   0  0  0  0  0  0  0  0  0  0  0  0
    1.1339   -5.0515   26.3541 C   0  0  0  0  0  0  0  0  0  0  0  0
    4.8080   -8.0362   16.7101 C   0  0  0  0  0  0  0  0  0  0  0  0
   -1.2173   -3.9294   26.9717 O   0  0  0  0  0  0  0  0  0  0  0  0
   -1.0025   -5.0942   27.4586 C   0  0  0  0  0  0  0  0  0  0  0  0
    2.2474   -8.9123   16.6273 C   0  0  0  0  0  0  0  0  0  0  0  0
    4.4957   -9.2636   17.3041 C   0  0  0  0  0  0  0  0  0  0  0  0
   -1.8070   -5.6086   28.1920 O   0  0  0  0  0  0  0  0  0  0  0  0
   10.4296   -5.1799   28.3140 C   0  0  0  0  0  0  0  0  0  0  0  0
    6.6017   -5.9004   26.9187 C   0  0  0  0  0  0  0  0  0  0  0  0
    2.4761   -6.9940   26.4111 N   0  0  0  0  0  0  0  0  0  0  0  0
    9.1353   -5.4053   27.8239 C   0  0  0  0  0  0  0  0  0  0  0  0
    0.9922   -9.3232   16.5995 O   0  0  0  0  0  0  0  0  0  0  0  0
    1.5232   -7.6869   27.1182 C   0  0  0  0  0  0  0  0  0  0  0  0
    8.6878   -6.6715   27.7262 N   0  0  0  0  0  0  0  0  0  0  0  0
    6.9911   -8.2423   27.1808 C   0  0  0  0  0  0  0  0  0  0  0  0
    3.8436   -7.2758   16.0578 C   0  0  0  0  0  0  0  0  0  0  0  0
    3.1882   -9.7190   17.2566 C   0  0  0  0  0  0  0  0  0  0  0  0
    5.3488   -6.1737   26.5092 C   0  0  0  0  0  0  0  0  0  0  0  0
    7.4567   -6.9464   27.2858 C   0  0  0  0  0  0  0  0  0  0  0  0
    0.1921   -5.7592   27.1123 C   0  0  0  0  0  0  0  0  0  0  0  0
    3.5517   -7.7407   25.9711 C   0  0  0  0  0  0  0  0  0  0  0  0
  1  4  4  0
  1 22  4  0
  2 20  4  0
  2 27  4  0
  3 12  4  0
  3 23  4  0
  4 25  4  0
  4 28  1  0
  5  8  4  0
  5 17  4  0
  6  7  4  0
  6 16  4  0
  7 18  4  0
  8 27  4  0
  9 13  4  0
  9 23  4  0
 10 11  1  0
 11 14  2  0
 11 27  1  0
 12 19  1  0
 12 24  4  0
 13 24  4  0
 15 18  1  0
 16 25  4  0
 16 26  4  0
 17 20  4  0
 17 28  1  0
 18 21  4  0
 21 26  4  0
 22 26  4  0
M  END
$$$$

 Created by Python create_sdf_string function

 28 30  0  0  0  0  0  0  0  0999 V2000
    5.7174   -8.4529   26.7190 C   0  0  0  0  0  0  0  0  0  0  0  0
    0.3974   -7.0711   27.5149 C   0  0  0  0  0  0  0  0  0  0  0  0
    2.5338   -7.6891   16.0102 C   0  0  0  0  0  0  0  0  0  0  0  0
    4.8690   -7.4380   26.4151 C   0  0  0  0  0  0  0  0  0  0  0  0
    2.3021   -5.6726   26.0378 C   0  0  0  0  0  0  0  0  0  0  0  0
    7.0880   -4.6163   27.0010 C   0  0  0  0  0  0  0  0  0  0  0  0
    8.3117   -4.3698   27.4436 C   0  0  0  0  0  0  0  0  0  0  0  0
    1.1339   -5.0515   26.3541 C   0  0  0  0  0  0  0  0  0  0  0  0
    4.8080   -8.0362   16.7101 C   0  0  0  0  0  0  0  0  0  0  0  0
   -1.2173   -3.9294   26.9717 O   0  0  0  0  0  0  0  0  0  0  0  0
   -1.0025   -5.0942   27.4586 C   0  0  0  0  0  0  0  0  0  0  0  0
    2.2474   -8.9123   16.6273 C   0  0  0  0  0  0  0  0  0  0  0  0
    4.4957   -9.2636   17.3041 C   0  0  0  0  0  0  0  0  0  0  0  0
   -1.8070   -5.6086   28.1920 O   0  0  0  0  0  0  0  0  0  0  0  0
   10.4296   -5.1799   28.3140 C   0  0  0  0  0  0  0  0  0  0  0  0
    6.6017   -5.9004   26.9187 C   0  0  0  0  0  0  0  0  0  0  0  0
    2.4761   -6.9940   26.4111 N   0  0  0  0  0  0  0  0  0  0  0  0
    9.1353   -5.4053   27.8239 C   0  0  0  0  0  0  0  0  0  0  0  0
    0.9922   -9.3232   16.5995 O   0  0  0  0  0  0  0  0  0  0  0  0
    1.5232   -7.6869   27.1182 C   0  0  0  0  0  0  0  0  0  0  0  0
    8.6878   -6.6715   27.7262 N   0  0  0  0  0  0  0  0  0  0  0  0
    6.9911   -8.2423   27.1808 C   0  0  0  0  0  0  0  0  0  0  0  0
    3.8436   -7.2758   16.0578 C   0  0  0  0  0  0  0  0  0  0  0  0
    3.1882   -9.7190   17.2566 C   0  0  0  0  0  0  0  0  0  0  0  0
    5.3488   -6.1737   26.5092 C   0  0  0  0  0  0  0  0  0  0  0  0
    7.4567   -6.9464   27.2858 C   0  0  0  0  0  0  0  0  0  0  0  0
    0.1921   -5.7592   27.1123 C   0  0  0  0  0  0  0  0  0  0  0  0
    3.5517   -7.7407   25.9711 C   0  0  0  0  0  0  0  0  0  0  0  0
  1  4  4  0
  1 22  4  0
  2 20  4  0
  2 27  4  0
  3 12  4  0
  3 23  4  0
  4 25  4  0
  4 28  1  0
  5  8  4  0
  5 17  4  0
  6  7  4  0
  6 16  4  0
  7 18  4  0
  8 27  4  0
  9 13  4  0
  9 23  4  0
 10 11  1  0
 11 14  2  0
 11 27  1  0
 12 19  1  0
 12 24  4  0
 13 24  4  0
 15 18  1  0
 16 25  4  0
 16 26  4  0
 17 20  4  0
 17 28  1  0
 18 21  4  0
 21 26  4  0
 22 26  4  0
M  END
$$$$

 Created by Python create_sdf_string function

 28 30  0  0  0  0  0  0  0  0999 V2000
    5.7174   -8.4529   26.7190 C   0  0  0  0  0  0  0  0  0  0  0  0
    0.3974   -7.0711   27.5149 C   0  0  0  0  0  0  0  0  0  0  0  0
    2.5338   -7.6891   16.0102 C   0  0  0  0  0  0  0  0  0  0  0  0
    4.8690   -7.4380   26.4151 C   0  0  0  0  0  0  0  0  0  0  0  0
    2.3021   -5.6726   26.0378 C   0  0  0  0  0  0  0  0  0  0  0  0
    7.0880   -4.6163   27.0010 C   0  0  0  0  0  0  0  0  0  0  0  0
    8.3117   -4.3698   27.4436 C   0  0  0  0  0  0  0  0  0  0  0  0
    1.1339   -5.0515   26.3541 C   0  0  0  0  0  0  0  0  0  0  0  0
    4.8080   -8.0362   16.7101 C   0  0  0  0  0  0  0  0  0  0  0  0
   -1.2173   -3.9294   26.9717 O   0  0  0  0  0  0  0  0  0  0  0  0
   -1.0025   -5.0942   27.4586 C   0  0  0  0  0  0  0  0  0  0  0  0
    2.2474   -8.9123   16.6273 C   0  0  0  0  0  0  0  0  0  0  0  0
    4.4957   -9.2636   17.3041 C   0  0  0  0  0  0  0  0  0  0  0  0
   -1.8070   -5.6086   28.1920 O   0  0  0  0  0  0  0  0  0  0  0  0
   10.4296   -5.1799   28.3140 C   0  0  0  0  0  0  0  0  0  0  0  0
    6.6017   -5.9004   26.9187 C   0  0  0  0  0  0  0  0  0  0  0  0
    2.4761   -6.9940   26.4111 N   0  0  0  0  0  0  0  0  0  0  0  0
    9.1353   -5.4053   27.8239 C   0  0  0  0  0  0  0  0  0  0  0  0
    0.9922   -9.3232   16.5995 O   0  0  0  0  0  0  0  0  0  0  0  0
    1.5232   -7.6869   27.1182 C   0  0  0  0  0  0  0  0  0  0  0  0
    8.6878   -6.6715   27.7262 N   0  0  0  0  0  0  0  0  0  0  0  0
    6.9911   -8.2423   27.1808 C   0  0  0  0  0  0  0  0  0  0  0  0
    3.8436   -7.2758   16.0578 C   0  0  0  0  0  0  0  0  0  0  0  0
    3.1882   -9.7190   17.2566 C   0  0  0  0  0  0  0  0  0  0  0  0
    5.3488   -6.1737   26.5092 C   0  0  0  0  0  0  0  0  0  0  0  0
    7.4567   -6.9464   27.2858 C   0  0  0  0  0  0  0  0  0  0  0  0
    0.1921   -5.7592   27.1123 C   0  0  0  0  0  0  0  0  0  0  0  0
    3.5517   -7.7407   25.9711 C   0  0  0  0  0  0  0  0  0  0  0  0
  1  4  4  0
  1 22  4  0
  2 20  4  0
  2 27  4  0
  3 12  4  0
  3 23  4  0
  4 25  4  0
  4 28  1  0
  5  8  4  0
  5 17  4  0
  6  7  4  0
  6 16  4  0
  7 18  4  0
  8 27  4  0
  9 13  4  0
  9 23  4  0
 10 11  1  0
 11 14  2  0
 11 27  1  0
 12 19  1  0
 12 24  4  0
 13 24  4  0
 15 18  1  0
 16 25  4  0
 16 26  4  0
 17 20  4  0
 17 28  1  0
 18 21  4  0
 21 26  4  0
 22 26  4  0
M  END
$$$$

 Created by Python create_sdf_string function

 28 30  0  0  0  0  0  0  0  0999 V2000
    5.7174   -8.4529   26.7190 C   0  0  0  0  0  0  0  0  0  0  0  0
    0.3974   -7.0711   27.5149 C   0  0  0  0  0  0  0  0  0  0  0  0
    2.5338   -7.6891   16.0102 C   0  0  0  0  0  0  0  0  0  0  0  0
    4.8690   -7.4380   26.4151 C   0  0  0  0  0  0  0  0  0  0  0  0
    2.3021   -5.6726   26.0378 C   0  0  0  0  0  0  0  0  0  0  0  0
    7.0880   -4.6163   27.0010 C   0  0  0  0  0  0  0  0  0  0  0  0
    8.3117   -4.3698   27.4436 C   0  0  0  0  0  0  0  0  0  0  0  0
    1.1339   -5.0515   26.3541 C   0  0  0  0  0  0  0  0  0  0  0  0
    4.8080   -8.0362   16.7101 C   0  0  0  0  0  0  0  0  0  0  0  0
   -1.2173   -3.9294   26.9717 O   0  0  0  0  0  0  0  0  0  0  0  0
   -1.0025   -5.0942   27.4586 C   0  0  0  0  0  0  0  0  0  0  0  0
    2.2474   -8.9123   16.6273 C   0  0  0  0  0  0  0  0  0  0  0  0
    4.4957   -9.2636   17.3041 C   0  0  0  0  0  0  0  0  0  0  0  0
   -1.8070   -5.6086   28.1920 O   0  0  0  0  0  0  0  0  0  0  0  0
   10.4296   -5.1799   28.3140 C   0  0  0  0  0  0  0  0  0  0  0  0
    6.6017   -5.9004   26.9187 C   0  0  0  0  0  0  0  0  0  0  0  0
    2.4761   -6.9940   26.4111 N   0  0  0  0  0  0  0  0  0  0  0  0
    9.1353   -5.4053   27.8239 C   0  0  0  0  0  0  0  0  0  0  0  0
    0.9922   -9.3232   16.5995 O   0  0  0  0  0  0  0  0  0  0  0  0
    1.5232   -7.6869   27.1182 C   0  0  0  0  0  0  0  0  0  0  0  0
    8.6878   -6.6715   27.7262 N   0  0  0  0  0  0  0  0  0  0  0  0
    6.9911   -8.2423   27.1808 C   0  0  0  0  0  0  0  0  0  0  0  0
    3.8436   -7.2758   16.0578 C   0  0  0  0  0  0  0  0  0  0  0  0
    3.1882   -9.7190   17.2566 C   0  0  0  0  0  0  0  0  0  0  0  0
    5.3488   -6.1737   26.5092 C   0  0  0  0  0  0  0  0  0  0  0  0
    7.4567   -6.9464   27.2858 C   0  0  0  0  0  0  0  0  0  0  0  0
    0.1921   -5.7592   27.1123 C   0  0  0  0  0  0  0  0  0  0  0  0
    3.5517   -7.7407   25.9711 C   0  0  0  0  0  0  0  0  0  0  0  0
  1  4  4  0
  1 22  4  0
  2 20  4  0
  2 27  4  0
  3 12  4  0
  3 23  4  0
  4 25  4  0
  4 28  1  0
  5  8  4  0
  5 17  4  0
  6  7  4  0
  6 16  4  0
  7 18  4  0
  8 27  4  0
  9 13  4  0
  9 23  4  0
 10 11  1  0
 11 14  2  0
 11 27  1  0
 12 19  1  0
 12 24  4  0
 13 24  4  0
 15 18  1  0
 16 25  4  0
 16 26  4  0
 17 20  4  0
 17 28  1  0
 18 21  4  0
 21 26  4  0
 22 26  4  0
M  END
$$$$

 Created by Python create_sdf_string function

 28 30  0  0  0  0  0  0  0  0999 V2000
    5.7174   -8.4529   26.7190 C   0  0  0  0  0  0  0  0  0  0  0  0
    0.3974   -7.0711   27.5149 C   0  0  0  0  0  0  0  0  0  0  0  0
    2.5338   -7.6891   16.0102 C   0  0  0  0  0  0  0  0  0  0  0  0
    4.8690   -7.4380   26.4151 C   0  0  0  0  0  0  0  0  0  0  0  0
    2.3021   -5.6726   26.0378 C   0  0  0  0  0  0  0  0  0  0  0  0
    7.0880   -4.6163   27.0010 C   0  0  0  0  0  0  0  0  0  0  0  0
    8.3117   -4.3698   27.4436 C   0  0  0  0  0  0  0  0  0  0  0  0
    1.1339   -5.0515   26.3541 C   0  0  0  0  0  0  0  0  0  0  0  0
    4.8080   -8.0362   16.7101 C   0  0  0  0  0  0  0  0  0  0  0  0
   -1.2173   -3.9294   26.9717 O   0  0  0  0  0  0  0  0  0  0  0  0
   -1.0025   -5.0942   27.4586 C   0  0  0  0  0  0  0  0  0  0  0  0
    2.2474   -8.9123   16.6273 C   0  0  0  0  0  0  0  0  0  0  0  0
    4.4957   -9.2636   17.3041 C   0  0  0  0  0  0  0  0  0  0  0  0
   -1.8070   -5.6086   28.1920 O   0  0  0  0  0  0  0  0  0  0  0  0
   10.4296   -5.1799   28.3140 C   0  0  0  0  0  0  0  0  0  0  0  0
    6.6017   -5.9004   26.9187 C   0  0  0  0  0  0  0  0  0  0  0  0
    2.4761   -6.9940   26.4111 N   0  0  0  0  0  0  0  0  0  0  0  0
    9.1353   -5.4053   27.8239 C   0  0  0  0  0  0  0  0  0  0  0  0
    0.9922   -9.3232   16.5995 O   0  0  0  0  0  0  0  0  0  0  0  0
    1.5232   -7.6869   27.1182 C   0  0  0  0  0  0  0  0  0  0  0  0
    8.6878   -6.6715   27.7262 N   0  0  0  0  0  0  0  0  0  0  0  0
    6.9911   -8.2423   27.1808 C   0  0  0  0  0  0  0  0  0  0  0  0
    3.8436   -7.2758   16.0578 C   0  0  0  0  0  0  0  0  0  0  0  0
    3.1882   -9.7190   17.2566 C   0  0  0  0  0  0  0  0  0  0  0  0
    5.3488   -6.1737   26.5092 C   0  0  0  0  0  0  0  0  0  0  0  0
    7.4567   -6.9464   27.2858 C   0  0  0  0  0  0  0  0  0  0  0  0
    0.1921   -5.7592   27.1123 C   0  0  0  0  0  0  0  0  0  0  0  0
    3.5517   -7.7407   25.9711 C   0  0  0  0  0  0  0  0  0  0  0  0
  1  4  4  0
  1 22  4  0
  2 20  4  0
  2 27  4  0
  3 12  4  0
  3 23  4  0
  4 25  4  0
  4 28  1  0
  5  8  4  0
  5 17  4  0
  6  7  4  0
  6 16  4  0
  7 18  4  0
  8 27  4  0
  9 13  4  0
  9 23  4  0
 10 11  1  0
 11 14  2  0
 11 27  1  0
 12 19  1  0
 12 24  4  0
 13 24  4  0
 15 18  1  0
 16 25  4  0
 16 26  4  0
 17 20  4  0
 17 28  1  0
 18 21  4  0
 21 26  4  0
 22 26  4  0
M  END
$$$$

 Created by Python create_sdf_string function

 28 30  0  0  0  0  0  0  0  0999 V2000
    5.7174   -8.4529   26.7190 C   0  0  0  0  0  0  0  0  0  0  0  0
    0.3974   -7.0711   27.5149 C   0  0  0  0  0  0  0  0  0  0  0  0
    2.5338   -7.6891   16.0102 C   0  0  0  0  0  0  0  0  0  0  0  0
    4.8690   -7.4380   26.4151 C   0  0  0  0  0  0  0  0  0  0  0  0
    2.3021   -5.6726   26.0378 C   0  0  0  0  0  0  0  0  0  0  0  0
    7.0880   -4.6163   27.0010 C   0  0  0  0  0  0  0  0  0  0  0  0
    8.3117   -4.3698   27.4436 C   0  0  0  0  0  0  0  0  0  0  0  0
    1.1339   -5.0515   26.3541 C   0  0  0  0  0  0  0  0  0  0  0  0
    4.8080   -8.0362   16.7101 C   0  0  0  0  0  0  0  0  0  0  0  0
   -1.2173   -3.9294   26.9717 O   0  0  0  0  0  0  0  0  0  0  0  0
   -1.0025   -5.0942   27.4586 C   0  0  0  0  0  0  0  0  0  0  0  0
    2.2474   -8.9123   16.6273 C   0  0  0  0  0  0  0  0  0  0  0  0
    4.4957   -9.2636   17.3041 C   0  0  0  0  0  0  0  0  0  0  0  0
   -1.8070   -5.6086   28.1920 O   0  0  0  0  0  0  0  0  0  0  0  0
   10.4296   -5.1799   28.3140 C   0  0  0  0  0  0  0  0  0  0  0  0
    6.6017   -5.9004   26.9187 C   0  0  0  0  0  0  0  0  0  0  0  0
    2.4761   -6.9940   26.4111 N   0  0  0  0  0  0  0  0  0  0  0  0
    9.1353   -5.4053   27.8239 C   0  0  0  0  0  0  0  0  0  0  0  0
    0.9922   -9.3232   16.5995 O   0  0  0  0  0  0  0  0  0  0  0  0
    1.5232   -7.6869   27.1182 C   0  0  0  0  0  0  0  0  0  0  0  0
    8.6878   -6.6715   27.7262 N   0  0  0  0  0  0  0  0  0  0  0  0
    6.9911   -8.2423   27.1808 C   0  0  0  0  0  0  0  0  0  0  0  0
    3.8436   -7.2758   16.0578 C   0  0  0  0  0  0  0  0  0  0  0  0
    3.1882   -9.7190   17.2566 C   0  0  0  0  0  0  0  0  0  0  0  0
    5.3488   -6.1737   26.5092 C   0  0  0  0  0  0  0  0  0  0  0  0
    7.4567   -6.9464   27.2858 C   0  0  0  0  0  0  0  0  0  0  0  0
    0.1921   -5.7592   27.1123 C   0  0  0  0  0  0  0  0  0  0  0  0
    3.5517   -7.7407   25.9711 C   0  0  0  0  0  0  0  0  0  0  0  0
  1  4  4  0
  1 22  4  0
  2 20  4  0
  2 27  4  0
  3 12  4  0
  3 23  4  0
  4 25  4  0
  4 28  1  0
  5  8  4  0
  5 17  4  0
  6  7  4  0
  6 16  4  0
  7 18  4  0
  8 27  4  0
  9 13  4  0
  9 23  4  0
 10 11  1  0
 11 14  2  0
 11 27  1  0
 12 19  1  0
 12 24  4  0
 13 24  4  0
 15 18  1  0
 16 25  4  0
 16 26  4  0
 17 20  4  0
 17 28  1  0
 18 21  4  0
 21 26  4  0
 22 26  4  0
M  END
$$$$

 Created by Python create_sdf_string function

 28 30  0  0  0  0  0  0  0  0999 V2000
    5.7174   -8.4529   26.7190 C   0  0  0  0  0  0  0  0  0  0  0  0
    0.3974   -7.0711   27.5149 C   0  0  0  0  0  0  0  0  0  0  0  0
    2.5338   -7.6891   16.0102 C   0  0  0  0  0  0  0  0  0  0  0  0
    4.8690   -7.4380   26.4151 C   0  0  0  0  0  0  0  0  0  0  0  0
    2.3021   -5.6726   26.0378 C   0  0  0  0  0  0  0  0  0  0  0  0
    7.0880   -4.6163   27.0010 C   0  0  0  0  0  0  0  0  0  0  0  0
    8.3117   -4.3698   27.4436 C   0  0  0  0  0  0  0  0  0  0  0  0
    1.1339   -5.0515   26.3541 C   0  0  0  0  0  0  0  0  0  0  0  0
    4.8080   -8.0362   16.7101 C   0  0  0  0  0  0  0  0  0  0  0  0
   -1.2173   -3.9294   26.9717 O   0  0  0  0  0  0  0  0  0  0  0  0
   -1.0025   -5.0942   27.4586 C   0  0  0  0  0  0  0  0  0  0  0  0
    2.2474   -8.9123   16.6273 C   0  0  0  0  0  0  0  0  0  0  0  0
    4.4957   -9.2636   17.3041 C   0  0  0  0  0  0  0  0  0  0  0  0
   -1.8070   -5.6086   28.1920 O   0  0  0  0  0  0  0  0  0  0  0  0
   10.4296   -5.1799   28.3140 C   0  0  0  0  0  0  0  0  0  0  0  0
    6.6017   -5.9004   26.9187 C   0  0  0  0  0  0  0  0  0  0  0  0
    2.4761   -6.9940   26.4111 N   0  0  0  0  0  0  0  0  0  0  0  0
    9.1353   -5.4053   27.8239 C   0  0  0  0  0  0  0  0  0  0  0  0
    0.9922   -9.3232   16.5995 O   0  0  0  0  0  0  0  0  0  0  0  0
    1.5232   -7.6869   27.1182 C   0  0  0  0  0  0  0  0  0  0  0  0
    8.6878   -6.6715   27.7262 N   0  0  0  0  0  0  0  0  0  0  0  0
    6.9911   -8.2423   27.1808 C   0  0  0  0  0  0  0  0  0  0  0  0
    3.8436   -7.2758   16.0578 C   0  0  0  0  0  0  0  0  0  0  0  0
    3.1882   -9.7190   17.2566 C   0  0  0  0  0  0  0  0  0  0  0  0
    5.3488   -6.1737   26.5092 C   0  0  0  0  0  0  0  0  0  0  0  0
    7.4567   -6.9464   27.2858 C   0  0  0  0  0  0  0  0  0  0  0  0
    0.1921   -5.7592   27.1123 C   0  0  0  0  0  0  0  0  0  0  0  0
    3.5517   -7.7407   25.9711 C   0  0  0  0  0  0  0  0  0  0  0  0
  1  4  4  0
  1 22  4  0
  2 20  4  0
  2 27  4  0
  3 12  4  0
  3 23  4  0
  4 25  4  0
  4 28  1  0
  5  8  4  0
  5 17  4  0
  6  7  4  0
  6 16  4  0
  7 18  4  0
  8 27  4  0
  9 13  4  0
  9 23  4  0
 10 11  1  0
 11 14  2  0
 11 27  1  0
 12 19  1  0
 12 24  4  0
 13 24  4  0
 15 18  1  0
 16 25  4  0
 16 26  4  0
 17 20  4  0
 17 28  1  0
 18 21  4  0
 21 26  4  0
 22 26  4  0
M  END
$$$$

 Created by Python create_sdf_string function

 28 30  0  0  0  0  0  0  0  0999 V2000
    5.7174   -8.4529   26.7190 C   0  0  0  0  0  0  0  0  0  0  0  0
    0.3974   -7.0711   27.5149 C   0  0  0  0  0  0  0  0  0  0  0  0
    2.5338   -7.6891   16.0102 C   0  0  0  0  0  0  0  0  0  0  0  0
    4.8690   -7.4380   26.4151 C   0  0  0  0  0  0  0  0  0  0  0  0
    2.3021   -5.6726   26.0378 C   0  0  0  0  0  0  0  0  0  0  0  0
    7.0880   -4.6163   27.0010 C   0  0  0  0  0  0  0  0  0  0  0  0
    8.3117   -4.3698   27.4436 C   0  0  0  0  0  0  0  0  0  0  0  0
    1.1339   -5.0515   26.3541 C   0  0  0  0  0  0  0  0  0  0  0  0
    4.8080   -8.0362   16.7101 C   0  0  0  0  0  0  0  0  0  0  0  0
   -1.2173   -3.9294   26.9717 O   0  0  0  0  0  0  0  0  0  0  0  0
   -1.0025   -5.0942   27.4586 C   0  0  0  0  0  0  0  0  0  0  0  0
    2.2474   -8.9123   16.6273 C   0  0  0  0  0  0  0  0  0  0  0  0
    4.4957   -9.2636   17.3041 C   0  0  0  0  0  0  0  0  0  0  0  0
   -1.8070   -5.6086   28.1920 O   0  0  0  0  0  0  0  0  0  0  0  0
   10.4296   -5.1799   28.3140 C   0  0  0  0  0  0  0  0  0  0  0  0
    6.6017   -5.9004   26.9187 C   0  0  0  0  0  0  0  0  0  0  0  0
    2.4761   -6.9940   26.4111 N   0  0  0  0  0  0  0  0  0  0  0  0
    9.1353   -5.4053   27.8239 C   0  0  0  0  0  0  0  0  0  0  0  0
    0.9922   -9.3232   16.5995 O   0  0  0  0  0  0  0  0  0  0  0  0
    1.5232   -7.6869   27.1182 C   0  0  0  0  0  0  0  0  0  0  0  0
    8.6878   -6.6715   27.7262 N   0  0  0  0  0  0  0  0  0  0  0  0
    6.9911   -8.2423   27.1808 C   0  0  0  0  0  0  0  0  0  0  0  0
    3.8436   -7.2758   16.0578 C   0  0  0  0  0  0  0  0  0  0  0  0
    3.1882   -9.7190   17.2566 C   0  0  0  0  0  0  0  0  0  0  0  0
    5.3488   -6.1737   26.5092 C   0  0  0  0  0  0  0  0  0  0  0  0
    7.4567   -6.9464   27.2858 C   0  0  0  0  0  0  0  0  0  0  0  0
    0.1921   -5.7592   27.1123 C   0  0  0  0  0  0  0  0  0  0  0  0
    3.5517   -7.7407   25.9711 C   0  0  0  0  0  0  0  0  0  0  0  0
  1  4  4  0
  1 22  4  0
  2 20  4  0
  2 27  4  0
  3 12  4  0
  3 23  4  0
  4 25  4  0
  4 28  1  0
  5  8  4  0
  5 17  4  0
  6  7  4  0
  6 16  4  0
  7 18  4  0
  8 27  4  0
  9 13  4  0
  9 23  4  0
 10 11  1  0
 11 14  2  0
 11 27  1  0
 12 19  1  0
 12 24  4  0
 13 24  4  0
 15 18  1  0
 16 25  4  0
 16 26  4  0
 17 20  4  0
 17 28  1  0
 18 21  4  0
 21 26  4  0
 22 26  4  0
M  END
$$$$

 Created by Python create_sdf_string function

 28 30  0  0  0  0  0  0  0  0999 V2000
    5.7174   -8.4529   26.7190 C   0  0  0  0  0  0  0  0  0  0  0  0
    0.3974   -7.0711   27.5149 C   0  0  0  0  0  0  0  0  0  0  0  0
    2.5338   -7.6891   16.0102 C   0  0  0  0  0  0  0  0  0  0  0  0
    4.8690   -7.4380   26.4151 C   0  0  0  0  0  0  0  0  0  0  0  0
    2.3021   -5.6726   26.0378 C   0  0  0  0  0  0  0  0  0  0  0  0
    7.0880   -4.6163   27.0010 C   0  0  0  0  0  0  0  0  0  0  0  0
    8.3117   -4.3698   27.4436 C   0  0  0  0  0  0  0  0  0  0  0  0
    1.1339   -5.0515   26.3541 C   0  0  0  0  0  0  0  0  0  0  0  0
    4.8080   -8.0362   16.7101 C   0  0  0  0  0  0  0  0  0  0  0  0
   -1.2173   -3.9294   26.9717 O   0  0  0  0  0  0  0  0  0  0  0  0
   -1.0025   -5.0942   27.4586 C   0  0  0  0  0  0  0  0  0  0  0  0
    2.2474   -8.9123   16.6273 C   0  0  0  0  0  0  0  0  0  0  0  0
    4.4957   -9.2636   17.3041 C   0  0  0  0  0  0  0  0  0  0  0  0
   -1.8070   -5.6086   28.1920 O   0  0  0  0  0  0  0  0  0  0  0  0
   10.4296   -5.1799   28.3140 C   0  0  0  0  0  0  0  0  0  0  0  0
    6.6017   -5.9004   26.9187 C   0  0  0  0  0  0  0  0  0  0  0  0
    2.4761   -6.9940   26.4111 N   0  0  0  0  0  0  0  0  0  0  0  0
    9.1353   -5.4053   27.8239 C   0  0  0  0  0  0  0  0  0  0  0  0
    0.9922   -9.3232   16.5995 O   0  0  0  0  0  0  0  0  0  0  0  0
    1.5232   -7.6869   27.1182 C   0  0  0  0  0  0  0  0  0  0  0  0
    8.6878   -6.6715   27.7262 N   0  0  0  0  0  0  0  0  0  0  0  0
    6.9911   -8.2423   27.1808 C   0  0  0  0  0  0  0  0  0  0  0  0
    3.8436   -7.2758   16.0578 C   0  0  0  0  0  0  0  0  0  0  0  0
    3.1882   -9.7190   17.2566 C   0  0  0  0  0  0  0  0  0  0  0  0
    5.3488   -6.1737   26.5092 C   0  0  0  0  0  0  0  0  0  0  0  0
    7.4567   -6.9464   27.2858 C   0  0  0  0  0  0  0  0  0  0  0  0
    0.1921   -5.7592   27.1123 C   0  0  0  0  0  0  0  0  0  0  0  0
    3.5517   -7.7407   25.9711 C   0  0  0  0  0  0  0  0  0  0  0  0
  1  4  4  0
  1 22  4  0
  2 20  4  0
  2 27  4  0
  3 12  4  0
  3 23  4  0
  4 25  4  0
  4 28  1  0
  5  8  4  0
  5 17  4  0
  6  7  4  0
  6 16  4  0
  7 18  4  0
  8 27  4  0
  9 13  4  0
  9 23  4  0
 10 11  1  0
 11 14  2  0
 11 27  1  0
 12 19  1  0
 12 24  4  0
 13 24  4  0
 15 18  1  0
 16 25  4  0
 16 26  4  0
 17 20  4  0
 17 28  1  0
 18 21  4  0
 21 26  4  0
 22 26  4  0
M  END
$$$$

 Created by Python create_sdf_string function

 28 30  0  0  0  0  0  0  0  0999 V2000
    5.7174   -8.4529   26.7190 C   0  0  0  0  0  0  0  0  0  0  0  0
    0.3974   -7.0711   27.5149 C   0  0  0  0  0  0  0  0  0  0  0  0
    2.5338   -7.6891   16.0102 C   0  0  0  0  0  0  0  0  0  0  0  0
    4.8690   -7.4380   26.4151 C   0  0  0  0  0  0  0  0  0  0  0  0
    2.3021   -5.6726   26.0378 C   0  0  0  0  0  0  0  0  0  0  0  0
    7.0880   -4.6163   27.0010 C   0  0  0  0  0  0  0  0  0  0  0  0
    8.3117   -4.3698   27.4436 C   0  0  0  0  0  0  0  0  0  0  0  0
    1.1339   -5.0515   26.3541 C   0  0  0  0  0  0  0  0  0  0  0  0
    4.8080   -8.0362   16.7101 C   0  0  0  0  0  0  0  0  0  0  0  0
   -1.2173   -3.9294   26.9717 O   0  0  0  0  0  0  0  0  0  0  0  0
   -1.0025   -5.0942   27.4586 C   0  0  0  0  0  0  0  0  0  0  0  0
    2.2474   -8.9123   16.6273 C   0  0  0  0  0  0  0  0  0  0  0  0
    4.4957   -9.2636   17.3041 C   0  0  0  0  0  0  0  0  0  0  0  0
   -1.8070   -5.6086   28.1920 O   0  0  0  0  0  0  0  0  0  0  0  0
   10.4296   -5.1799   28.3140 C   0  0  0  0  0  0  0  0  0  0  0  0
    6.6017   -5.9004   26.9187 C   0  0  0  0  0  0  0  0  0  0  0  0
    2.4761   -6.9940   26.4111 N   0  0  0  0  0  0  0  0  0  0  0  0
    9.1353   -5.4053   27.8239 C   0  0  0  0  0  0  0  0  0  0  0  0
    0.9922   -9.3232   16.5995 O   0  0  0  0  0  0  0  0  0  0  0  0
    1.5232   -7.6869   27.1182 C   0  0  0  0  0  0  0  0  0  0  0  0
    8.6878   -6.6715   27.7262 N   0  0  0  0  0  0  0  0  0  0  0  0
    6.9911   -8.2423   27.1808 C   0  0  0  0  0  0  0  0  0  0  0  0
    3.8436   -7.2758   16.0578 C   0  0  0  0  0  0  0  0  0  0  0  0
    3.1882   -9.7190   17.2566 C   0  0  0  0  0  0  0  0  0  0  0  0
    5.3488   -6.1737   26.5092 C   0  0  0  0  0  0  0  0  0  0  0  0
    7.4567   -6.9464   27.2858 C   0  0  0  0  0  0  0  0  0  0  0  0
    0.1921   -5.7592   27.1123 C   0  0  0  0  0  0  0  0  0  0  0  0
    3.5517   -7.7407   25.9711 C   0  0  0  0  0  0  0  0  0  0  0  0
  1  4  4  0
  1 22  4  0
  2 20  4  0
  2 27  4  0
  3 12  4  0
  3 23  4  0
  4 25  4  0
  4 28  1  0
  5  8  4  0
  5 17  4  0
  6  7  4  0
  6 16  4  0
  7 18  4  0
  8 27  4  0
  9 13  4  0
  9 23  4  0
 10 11  1  0
 11 14  2  0
 11 27  1  0
 12 19  1  0
 12 24  4  0
 13 24  4  0
 15 18  1  0
 16 25  4  0
 16 26  4  0
 17 20  4  0
 17 28  1  0
 18 21  4  0
 21 26  4  0
 22 26  4  0
M  END
$$$$

 Created by Python create_sdf_string function

 28 30  0  0  0  0  0  0  0  0999 V2000
    5.7174   -8.4529   26.7190 C   0  0  0  0  0  0  0  0  0  0  0  0
    0.3974   -7.0711   27.5149 C   0  0  0  0  0  0  0  0  0  0  0  0
    2.5338   -7.6891   16.0102 C   0  0  0  0  0  0  0  0  0  0  0  0
    4.8690   -7.4380   26.4151 C   0  0  0  0  0  0  0  0  0  0  0  0
    2.3021   -5.6726   26.0378 C   0  0  0  0  0  0  0  0  0  0  0  0
    7.0880   -4.6163   27.0010 C   0  0  0  0  0  0  0  0  0  0  0  0
    8.3117   -4.3698   27.4436 C   0  0  0  0  0  0  0  0  0  0  0  0
    1.1339   -5.0515   26.3541 C   0  0  0  0  0  0  0  0  0  0  0  0
    4.8080   -8.0362   16.7101 C   0  0  0  0  0  0  0  0  0  0  0  0
   -1.2173   -3.9294   26.9717 O   0  0  0  0  0  0  0  0  0  0  0  0
   -1.0025   -5.0942   27.4586 C   0  0  0  0  0  0  0  0  0  0  0  0
    2.2474   -8.9123   16.6273 C   0  0  0  0  0  0  0  0  0  0  0  0
    4.4957   -9.2636   17.3041 C   0  0  0  0  0  0  0  0  0  0  0  0
   -1.8070   -5.6086   28.1920 O   0  0  0  0  0  0  0  0  0  0  0  0
   10.4296   -5.1799   28.3140 C   0  0  0  0  0  0  0  0  0  0  0  0
    6.6017   -5.9004   26.9187 C   0  0  0  0  0  0  0  0  0  0  0  0
    2.4761   -6.9940   26.4111 N   0  0  0  0  0  0  0  0  0  0  0  0
    9.1353   -5.4053   27.8239 C   0  0  0  0  0  0  0  0  0  0  0  0
    0.9922   -9.3232   16.5995 O   0  0  0  0  0  0  0  0  0  0  0  0
    1.5232   -7.6869   27.1182 C   0  0  0  0  0  0  0  0  0  0  0  0
    8.6878   -6.6715   27.7262 N   0  0  0  0  0  0  0  0  0  0  0  0
    6.9911   -8.2423   27.1808 C   0  0  0  0  0  0  0  0  0  0  0  0
    3.8436   -7.2758   16.0578 C   0  0  0  0  0  0  0  0  0  0  0  0
    3.1882   -9.7190   17.2566 C   0  0  0  0  0  0  0  0  0  0  0  0
    5.3488   -6.1737   26.5092 C   0  0  0  0  0  0  0  0  0  0  0  0
    7.4567   -6.9464   27.2858 C   0  0  0  0  0  0  0  0  0  0  0  0
    0.1921   -5.7592   27.1123 C   0  0  0  0  0  0  0  0  0  0  0  0
    3.5517   -7.7407   25.9711 C   0  0  0  0  0  0  0  0  0  0  0  0
  1  4  4  0
  1 22  4  0
  2 20  4  0
  2 27  4  0
  3 12  4  0
  3 23  4  0
  4 25  4  0
  4 28  1  0
  5  8  4  0
  5 17  4  0
  6  7  4  0
  6 16  4  0
  7 18  4  0
  8 27  4  0
  9 13  4  0
  9 23  4  0
 10 11  1  0
 11 14  2  0
 11 27  1  0
 12 19  1  0
 12 24  4  0
 13 24  4  0
 15 18  1  0
 16 25  4  0
 16 26  4  0
 17 20  4  0
 17 28  1  0
 18 21  4  0
 21 26  4  0
 22 26  4  0
M  END
$$$$

 Created by Python create_sdf_string function

 28 30  0  0  0  0  0  0  0  0999 V2000
    5.7174   -8.4529   26.7190 C   0  0  0  0  0  0  0  0  0  0  0  0
    0.3974   -7.0711   27.5149 C   0  0  0  0  0  0  0  0  0  0  0  0
    2.5338   -7.6891   16.0102 C   0  0  0  0  0  0  0  0  0  0  0  0
    4.8690   -7.4380   26.4151 C   0  0  0  0  0  0  0  0  0  0  0  0
    2.3021   -5.6726   26.0378 C   0  0  0  0  0  0  0  0  0  0  0  0
    7.0880   -4.6163   27.0010 C   0  0  0  0  0  0  0  0  0  0  0  0
    8.3117   -4.3698   27.4436 C   0  0  0  0  0  0  0  0  0  0  0  0
    1.1339   -5.0515   26.3541 C   0  0  0  0  0  0  0  0  0  0  0  0
    4.8080   -8.0362   16.7101 C   0  0  0  0  0  0  0  0  0  0  0  0
   -1.2173   -3.9294   26.9717 O   0  0  0  0  0  0  0  0  0  0  0  0
   -1.0025   -5.0942   27.4586 C   0  0  0  0  0  0  0  0  0  0  0  0
    2.2474   -8.9123   16.6273 C   0  0  0  0  0  0  0  0  0  0  0  0
    4.4957   -9.2636   17.3041 C   0  0  0  0  0  0  0  0  0  0  0  0
   -1.8070   -5.6086   28.1920 O   0  0  0  0  0  0  0  0  0  0  0  0
   10.4296   -5.1799   28.3140 C   0  0  0  0  0  0  0  0  0  0  0  0
    6.6017   -5.9004   26.9187 C   0  0  0  0  0  0  0  0  0  0  0  0
    2.4761   -6.9940   26.4111 N   0  0  0  0  0  0  0  0  0  0  0  0
    9.1353   -5.4053   27.8239 C   0  0  0  0  0  0  0  0  0  0  0  0
    0.9922   -9.3232   16.5995 O   0  0  0  0  0  0  0  0  0  0  0  0
    1.5232   -7.6869   27.1182 C   0  0  0  0  0  0  0  0  0  0  0  0
    8.6878   -6.6715   27.7262 N   0  0  0  0  0  0  0  0  0  0  0  0
    6.9911   -8.2423   27.1808 C   0  0  0  0  0  0  0  0  0  0  0  0
    3.8436   -7.2758   16.0578 C   0  0  0  0  0  0  0  0  0  0  0  0
    3.1882   -9.7190   17.2566 C   0  0  0  0  0  0  0  0  0  0  0  0
    5.3488   -6.1737   26.5092 C   0  0  0  0  0  0  0  0  0  0  0  0
    7.4567   -6.9464   27.2858 C   0  0  0  0  0  0  0  0  0  0  0  0
    0.1921   -5.7592   27.1123 C   0  0  0  0  0  0  0  0  0  0  0  0
    3.5517   -7.7407   25.9711 C   0  0  0  0  0  0  0  0  0  0  0  0
  1  4  4  0
  1 22  4  0
  2 20  4  0
  2 27  4  0
  3 12  4  0
  3 23  4  0
  4 25  4  0
  4 28  1  0
  5  8  4  0
  5 17  4  0
  6  7  4  0
  6 16  4  0
  7 18  4  0
  8 27  4  0
  9 13  4  0
  9 23  4  0
 10 11  1  0
 11 14  2  0
 11 27  1  0
 12 19  1  0
 12 24  4  0
 13 24  4  0
 15 18  1  0
 16 25  4  0
 16 26  4  0
 17 20  4  0
 17 28  1  0
 18 21  4  0
 21 26  4  0
 22 26  4  0
M  END
$$$$

 Created by Python create_sdf_string function

 28 30  0  0  0  0  0  0  0  0999 V2000
    5.7174   -8.4529   26.7190 C   0  0  0  0  0  0  0  0  0  0  0  0
    0.3974   -7.0711   27.5149 C   0  0  0  0  0  0  0  0  0  0  0  0
    2.5338   -7.6891   16.0102 C   0  0  0  0  0  0  0  0  0  0  0  0
    4.8690   -7.4380   26.4151 C   0  0  0  0  0  0  0  0  0  0  0  0
    2.3021   -5.6726   26.0378 C   0  0  0  0  0  0  0  0  0  0  0  0
    7.0880   -4.6163   27.0010 C   0  0  0  0  0  0  0  0  0  0  0  0
    8.3117   -4.3698   27.4436 C   0  0  0  0  0  0  0  0  0  0  0  0
    1.1339   -5.0515   26.3541 C   0  0  0  0  0  0  0  0  0  0  0  0
    4.8080   -8.0362   16.7101 C   0  0  0  0  0  0  0  0  0  0  0  0
   -1.2173   -3.9294   26.9717 O   0  0  0  0  0  0  0  0  0  0  0  0
   -1.0025   -5.0942   27.4586 C   0  0  0  0  0  0  0  0  0  0  0  0
    2.2474   -8.9123   16.6273 C   0  0  0  0  0  0  0  0  0  0  0  0
    4.4957   -9.2636   17.3041 C   0  0  0  0  0  0  0  0  0  0  0  0
   -1.8070   -5.6086   28.1920 O   0  0  0  0  0  0  0  0  0  0  0  0
   10.4296   -5.1799   28.3140 C   0  0  0  0  0  0  0  0  0  0  0  0
    6.6017   -5.9004   26.9187 C   0  0  0  0  0  0  0  0  0  0  0  0
    2.4761   -6.9940   26.4111 N   0  0  0  0  0  0  0  0  0  0  0  0
    9.1353   -5.4053   27.8239 C   0  0  0  0  0  0  0  0  0  0  0  0
    0.9922   -9.3232   16.5995 O   0  0  0  0  0  0  0  0  0  0  0  0
    1.5232   -7.6869   27.1182 C   0  0  0  0  0  0  0  0  0  0  0  0
    8.6878   -6.6715   27.7262 N   0  0  0  0  0  0  0  0  0  0  0  0
    6.9911   -8.2423   27.1808 C   0  0  0  0  0  0  0  0  0  0  0  0
    3.8436   -7.2758   16.0578 C   0  0  0  0  0  0  0  0  0  0  0  0
    3.1882   -9.7190   17.2566 C   0  0  0  0  0  0  0  0  0  0  0  0
    5.3488   -6.1737   26.5092 C   0  0  0  0  0  0  0  0  0  0  0  0
    7.4567   -6.9464   27.2858 C   0  0  0  0  0  0  0  0  0  0  0  0
    0.1921   -5.7592   27.1123 C   0  0  0  0  0  0  0  0  0  0  0  0
    3.5517   -7.7407   25.9711 C   0  0  0  0  0  0  0  0  0  0  0  0
  1  4  4  0
  1 22  4  0
  2 20  4  0
  2 27  4  0
  3 12  4  0
  3 23  4  0
  4 25  4  0
  4 28  1  0
  5  8  4  0
  5 17  4  0
  6  7  4  0
  6 16  4  0
  7 18  4  0
  8 27  4  0
  9 13  4  0
  9 23  4  0
 10 11  1  0
 11 14  2  0
 11 27  1  0
 12 19  1  0
 12 24  4  0
 13 24  4  0
 15 18  1  0
 16 25  4  0
 16 26  4  0
 17 20  4  0
 17 28  1  0
 18 21  4  0
 21 26  4  0
 22 26  4  0
M  END
$$$$

 Created by Python create_sdf_string function

 28 30  0  0  0  0  0  0  0  0999 V2000
    5.7174   -8.4529   26.7190 C   0  0  0  0  0  0  0  0  0  0  0  0
    0.3974   -7.0711   27.5149 C   0  0  0  0  0  0  0  0  0  0  0  0
    2.5338   -7.6891   16.0102 C   0  0  0  0  0  0  0  0  0  0  0  0
    4.8690   -7.4380   26.4151 C   0  0  0  0  0  0  0  0  0  0  0  0
    2.3021   -5.6726   26.0378 C   0  0  0  0  0  0  0  0  0  0  0  0
    7.0880   -4.6163   27.0010 C   0  0  0  0  0  0  0  0  0  0  0  0
    8.3117   -4.3698   27.4436 C   0  0  0  0  0  0  0  0  0  0  0  0
    1.1339   -5.0515   26.3541 C   0  0  0  0  0  0  0  0  0  0  0  0
    4.8080   -8.0362   16.7101 C   0  0  0  0  0  0  0  0  0  0  0  0
   -1.2173   -3.9294   26.9717 O   0  0  0  0  0  0  0  0  0  0  0  0
   -1.0025   -5.0942   27.4586 C   0  0  0  0  0  0  0  0  0  0  0  0
    2.2474   -8.9123   16.6273 C   0  0  0  0  0  0  0  0  0  0  0  0
    4.4957   -9.2636   17.3041 C   0  0  0  0  0  0  0  0  0  0  0  0
   -1.8070   -5.6086   28.1920 O   0  0  0  0  0  0  0  0  0  0  0  0
   10.4296   -5.1799   28.3140 C   0  0  0  0  0  0  0  0  0  0  0  0
    6.6017   -5.9004   26.9187 C   0  0  0  0  0  0  0  0  0  0  0  0
    2.4761   -6.9940   26.4111 N   0  0  0  0  0  0  0  0  0  0  0  0
    9.1353   -5.4053   27.8239 C   0  0  0  0  0  0  0  0  0  0  0  0
    0.9922   -9.3232   16.5995 O   0  0  0  0  0  0  0  0  0  0  0  0
    1.5232   -7.6869   27.1182 C   0  0  0  0  0  0  0  0  0  0  0  0
    8.6878   -6.6715   27.7262 N   0  0  0  0  0  0  0  0  0  0  0  0
    6.9911   -8.2423   27.1808 C   0  0  0  0  0  0  0  0  0  0  0  0
    3.8436   -7.2758   16.0578 C   0  0  0  0  0  0  0  0  0  0  0  0
    3.1882   -9.7190   17.2566 C   0  0  0  0  0  0  0  0  0  0  0  0
    5.3488   -6.1737   26.5092 C   0  0  0  0  0  0  0  0  0  0  0  0
    7.4567   -6.9464   27.2858 C   0  0  0  0  0  0  0  0  0  0  0  0
    0.1921   -5.7592   27.1123 C   0  0  0  0  0  0  0  0  0  0  0  0
    3.5517   -7.7407   25.9711 C   0  0  0  0  0  0  0  0  0  0  0  0
  1  4  4  0
  1 22  4  0
  2 20  4  0
  2 27  4  0
  3 12  4  0
  3 23  4  0
  4 25  4  0
  4 28  1  0
  5  8  4  0
  5 17  4  0
  6  7  4  0
  6 16  4  0
  7 18  4  0
  8 27  4  0
  9 13  4  0
  9 23  4  0
 10 11  1  0
 11 14  2  0
 11 27  1  0
 12 19  1  0
 12 24  4  0
 13 24  4  0
 15 18  1  0
 16 25  4  0
 16 26  4  0
 17 20  4  0
 17 28  1  0
 18 21  4  0
 21 26  4  0
 22 26  4  0
M  END
$$$$

 Created by Python create_sdf_string function

 28 30  0  0  0  0  0  0  0  0999 V2000
    5.7174   -8.4529   26.7190 C   0  0  0  0  0  0  0  0  0  0  0  0
    0.3974   -7.0711   27.5149 C   0  0  0  0  0  0  0  0  0  0  0  0
    2.5338   -7.6891   16.0102 C   0  0  0  0  0  0  0  0  0  0  0  0
    4.8690   -7.4380   26.4151 C   0  0  0  0  0  0  0  0  0  0  0  0
    2.3021   -5.6726   26.0378 C   0  0  0  0  0  0  0  0  0  0  0  0
    7.0880   -4.6163   27.0010 C   0  0  0  0  0  0  0  0  0  0  0  0
    8.3117   -4.3698   27.4436 C   0  0  0  0  0  0  0  0  0  0  0  0
    1.1339   -5.0515   26.3541 C   0  0  0  0  0  0  0  0  0  0  0  0
    4.8080   -8.0362   16.7101 C   0  0  0  0  0  0  0  0  0  0  0  0
   -1.2173   -3.9294   26.9717 O   0  0  0  0  0  0  0  0  0  0  0  0
   -1.0025   -5.0942   27.4586 C   0  0  0  0  0  0  0  0  0  0  0  0
    2.2474   -8.9123   16.6273 C   0  0  0  0  0  0  0  0  0  0  0  0
    4.4957   -9.2636   17.3041 C   0  0  0  0  0  0  0  0  0  0  0  0
   -1.8070   -5.6086   28.1920 O   0  0  0  0  0  0  0  0  0  0  0  0
   10.4296   -5.1799   28.3140 C   0  0  0  0  0  0  0  0  0  0  0  0
    6.6017   -5.9004   26.9187 C   0  0  0  0  0  0  0  0  0  0  0  0
    2.4761   -6.9940   26.4111 N   0  0  0  0  0  0  0  0  0  0  0  0
    9.1353   -5.4053   27.8239 C   0  0  0  0  0  0  0  0  0  0  0  0
    0.9922   -9.3232   16.5995 O   0  0  0  0  0  0  0  0  0  0  0  0
    1.5232   -7.6869   27.1182 C   0  0  0  0  0  0  0  0  0  0  0  0
    8.6878   -6.6715   27.7262 N   0  0  0  0  0  0  0  0  0  0  0  0
    6.9911   -8.2423   27.1808 C   0  0  0  0  0  0  0  0  0  0  0  0
    3.8436   -7.2758   16.0578 C   0  0  0  0  0  0  0  0  0  0  0  0
    3.1882   -9.7190   17.2566 C   0  0  0  0  0  0  0  0  0  0  0  0
    5.3488   -6.1737   26.5092 C   0  0  0  0  0  0  0  0  0  0  0  0
    7.4567   -6.9464   27.2858 C   0  0  0  0  0  0  0  0  0  0  0  0
    0.1921   -5.7592   27.1123 C   0  0  0  0  0  0  0  0  0  0  0  0
    3.5517   -7.7407   25.9711 C   0  0  0  0  0  0  0  0  0  0  0  0
  1  4  4  0
  1 22  4  0
  2 20  4  0
  2 27  4  0
  3 12  4  0
  3 23  4  0
  4 25  4  0
  4 28  1  0
  5  8  4  0
  5 17  4  0
  6  7  4  0
  6 16  4  0
  7 18  4  0
  8 27  4  0
  9 13  4  0
  9 23  4  0
 10 11  1  0
 11 14  2  0
 11 27  1  0
 12 19  1  0
 12 24  4  0
 13 24  4  0
 15 18  1  0
 16 25  4  0
 16 26  4  0
 17 20  4  0
 17 28  1  0
 18 21  4  0
 21 26  4  0
 22 26  4  0
M  END
$$$$

 Created by Python create_sdf_string function

 28 30  0  0  0  0  0  0  0  0999 V2000
    5.7174   -8.4529   26.7190 C   0  0  0  0  0  0  0  0  0  0  0  0
    0.3974   -7.0711   27.5149 C   0  0  0  0  0  0  0  0  0  0  0  0
    2.5338   -7.6891   16.0102 C   0  0  0  0  0  0  0  0  0  0  0  0
    4.8690   -7.4380   26.4151 C   0  0  0  0  0  0  0  0  0  0  0  0
    2.3021   -5.6726   26.0378 C   0  0  0  0  0  0  0  0  0  0  0  0
    7.0880   -4.6163   27.0010 C   0  0  0  0  0  0  0  0  0  0  0  0
    8.3117   -4.3698   27.4436 C   0  0  0  0  0  0  0  0  0  0  0  0
    1.1339   -5.0515   26.3541 C   0  0  0  0  0  0  0  0  0  0  0  0
    4.8080   -8.0362   16.7101 C   0  0  0  0  0  0  0  0  0  0  0  0
   -1.2173   -3.9294   26.9717 O   0  0  0  0  0  0  0  0  0  0  0  0
   -1.0025   -5.0942   27.4586 C   0  0  0  0  0  0  0  0  0  0  0  0
    2.2474   -8.9123   16.6273 C   0  0  0  0  0  0  0  0  0  0  0  0
    4.4957   -9.2636   17.3041 C   0  0  0  0  0  0  0  0  0  0  0  0
   -1.8070   -5.6086   28.1920 O   0  0  0  0  0  0  0  0  0  0  0  0
   10.4296   -5.1799   28.3140 C   0  0  0  0  0  0  0  0  0  0  0  0
    6.6017   -5.9004   26.9187 C   0  0  0  0  0  0  0  0  0  0  0  0
    2.4761   -6.9940   26.4111 N   0  0  0  0  0  0  0  0  0  0  0  0
    9.1353   -5.4053   27.8239 C   0  0  0  0  0  0  0  0  0  0  0  0
    0.9922   -9.3232   16.5995 O   0  0  0  0  0  0  0  0  0  0  0  0
    1.5232   -7.6869   27.1182 C   0  0  0  0  0  0  0  0  0  0  0  0
    8.6878   -6.6715   27.7262 N   0  0  0  0  0  0  0  0  0  0  0  0
    6.9911   -8.2423   27.1808 C   0  0  0  0  0  0  0  0  0  0  0  0
    3.8436   -7.2758   16.0578 C   0  0  0  0  0  0  0  0  0  0  0  0
    3.1882   -9.7190   17.2566 C   0  0  0  0  0  0  0  0  0  0  0  0
    5.3488   -6.1737   26.5092 C   0  0  0  0  0  0  0  0  0  0  0  0
    7.4567   -6.9464   27.2858 C   0  0  0  0  0  0  0  0  0  0  0  0
    0.1921   -5.7592   27.1123 C   0  0  0  0  0  0  0  0  0  0  0  0
    3.5517   -7.7407   25.9711 C   0  0  0  0  0  0  0  0  0  0  0  0
  1  4  4  0
  1 22  4  0
  2 20  4  0
  2 27  4  0
  3 12  4  0
  3 23  4  0
  4 25  4  0
  4 28  1  0
  5  8  4  0
  5 17  4  0
  6  7  4  0
  6 16  4  0
  7 18  4  0
  8 27  4  0
  9 13  4  0
  9 23  4  0
 10 11  1  0
 11 14  2  0
 11 27  1  0
 12 19  1  0
 12 24  4  0
 13 24  4  0
 15 18  1  0
 16 25  4  0
 16 26  4  0
 17 20  4  0
 17 28  1  0
 18 21  4  0
 21 26  4  0
 22 26  4  0
M  END
$$$$

 Created by Python create_sdf_string function

 28 30  0  0  0  0  0  0  0  0999 V2000
    5.7174   -8.4529   26.7190 C   0  0  0  0  0  0  0  0  0  0  0  0
    0.3974   -7.0711   27.5149 C   0  0  0  0  0  0  0  0  0  0  0  0
    2.5338   -7.6891   16.0102 C   0  0  0  0  0  0  0  0  0  0  0  0
    4.8690   -7.4380   26.4151 C   0  0  0  0  0  0  0  0  0  0  0  0
    2.3021   -5.6726   26.0378 C   0  0  0  0  0  0  0  0  0  0  0  0
    7.0880   -4.6163   27.0010 C   0  0  0  0  0  0  0  0  0  0  0  0
    8.3117   -4.3698   27.4436 C   0  0  0  0  0  0  0  0  0  0  0  0
    1.1339   -5.0515   26.3541 C   0  0  0  0  0  0  0  0  0  0  0  0
    4.8080   -8.0362   16.7101 C   0  0  0  0  0  0  0  0  0  0  0  0
   -1.2173   -3.9294   26.9717 O   0  0  0  0  0  0  0  0  0  0  0  0
   -1.0025   -5.0942   27.4586 C   0  0  0  0  0  0  0  0  0  0  0  0
    2.2474   -8.9123   16.6273 C   0  0  0  0  0  0  0  0  0  0  0  0
    4.4957   -9.2636   17.3041 C   0  0  0  0  0  0  0  0  0  0  0  0
   -1.8070   -5.6086   28.1920 O   0  0  0  0  0  0  0  0  0  0  0  0
   10.4296   -5.1799   28.3140 C   0  0  0  0  0  0  0  0  0  0  0  0
    6.6017   -5.9004   26.9187 C   0  0  0  0  0  0  0  0  0  0  0  0
    2.4761   -6.9940   26.4111 N   0  0  0  0  0  0  0  0  0  0  0  0
    9.1353   -5.4053   27.8239 C   0  0  0  0  0  0  0  0  0  0  0  0
    0.9922   -9.3232   16.5995 O   0  0  0  0  0  0  0  0  0  0  0  0
    1.5232   -7.6869   27.1182 C   0  0  0  0  0  0  0  0  0  0  0  0
    8.6878   -6.6715   27.7262 N   0  0  0  0  0  0  0  0  0  0  0  0
    6.9911   -8.2423   27.1808 C   0  0  0  0  0  0  0  0  0  0  0  0
    3.8436   -7.2758   16.0578 C   0  0  0  0  0  0  0  0  0  0  0  0
    3.1882   -9.7190   17.2566 C   0  0  0  0  0  0  0  0  0  0  0  0
    5.3488   -6.1737   26.5092 C   0  0  0  0  0  0  0  0  0  0  0  0
    7.4567   -6.9464   27.2858 C   0  0  0  0  0  0  0  0  0  0  0  0
    0.1921   -5.7592   27.1123 C   0  0  0  0  0  0  0  0  0  0  0  0
    3.5517   -7.7407   25.9711 C   0  0  0  0  0  0  0  0  0  0  0  0
  1  4  4  0
  1 22  4  0
  2 20  4  0
  2 27  4  0
  3 12  4  0
  3 23  4  0
  4 25  4  0
  4 28  1  0
  5  8  4  0
  5 17  4  0
  6  7  4  0
  6 16  4  0
  7 18  4  0
  8 27  4  0
  9 13  4  0
  9 23  4  0
 10 11  1  0
 11 14  2  0
 11 27  1  0
 12 19  1  0
 12 24  4  0
 13 24  4  0
 15 18  1  0
 16 25  4  0
 16 26  4  0
 17 20  4  0
 17 28  1  0
 18 21  4  0
 21 26  4  0
 22 26  4  0
M  END
$$$$

 Created by Python create_sdf_string function

 28 30  0  0  0  0  0  0  0  0999 V2000
    5.7174   -8.4529   26.7190 C   0  0  0  0  0  0  0  0  0  0  0  0
    0.3974   -7.0711   27.5149 C   0  0  0  0  0  0  0  0  0  0  0  0
    2.5338   -7.6891   16.0102 C   0  0  0  0  0  0  0  0  0  0  0  0
    4.8690   -7.4380   26.4151 C   0  0  0  0  0  0  0  0  0  0  0  0
    2.3021   -5.6726   26.0378 C   0  0  0  0  0  0  0  0  0  0  0  0
    7.0880   -4.6163   27.0010 C   0  0  0  0  0  0  0  0  0  0  0  0
    8.3117   -4.3698   27.4436 C   0  0  0  0  0  0  0  0  0  0  0  0
    1.1339   -5.0515   26.3541 C   0  0  0  0  0  0  0  0  0  0  0  0
    4.8080   -8.0362   16.7101 C   0  0  0  0  0  0  0  0  0  0  0  0
   -1.2173   -3.9294   26.9717 O   0  0  0  0  0  0  0  0  0  0  0  0
   -1.0025   -5.0942   27.4586 C   0  0  0  0  0  0  0  0  0  0  0  0
    2.2474   -8.9123   16.6273 C   0  0  0  0  0  0  0  0  0  0  0  0
    4.4957   -9.2636   17.3041 C   0  0  0  0  0  0  0  0  0  0  0  0
   -1.8070   -5.6086   28.1920 O   0  0  0  0  0  0  0  0  0  0  0  0
   10.4296   -5.1799   28.3140 C   0  0  0  0  0  0  0  0  0  0  0  0
    6.6017   -5.9004   26.9187 C   0  0  0  0  0  0  0  0  0  0  0  0
    2.4761   -6.9940   26.4111 N   0  0  0  0  0  0  0  0  0  0  0  0
    9.1353   -5.4053   27.8239 C   0  0  0  0  0  0  0  0  0  0  0  0
    0.9922   -9.3232   16.5995 O   0  0  0  0  0  0  0  0  0  0  0  0
    1.5232   -7.6869   27.1182 C   0  0  0  0  0  0  0  0  0  0  0  0
    8.6878   -6.6715   27.7262 N   0  0  0  0  0  0  0  0  0  0  0  0
    6.9911   -8.2423   27.1808 C   0  0  0  0  0  0  0  0  0  0  0  0
    3.8436   -7.2758   16.0578 C   0  0  0  0  0  0  0  0  0  0  0  0
    3.1882   -9.7190   17.2566 C   0  0  0  0  0  0  0  0  0  0  0  0
    5.3488   -6.1737   26.5092 C   0  0  0  0  0  0  0  0  0  0  0  0
    7.4567   -6.9464   27.2858 C   0  0  0  0  0  0  0  0  0  0  0  0
    0.1921   -5.7592   27.1123 C   0  0  0  0  0  0  0  0  0  0  0  0
    3.5517   -7.7407   25.9711 C   0  0  0  0  0  0  0  0  0  0  0  0
  1  4  4  0
  1 22  4  0
  2 20  4  0
  2 27  4  0
  3 12  4  0
  3 23  4  0
  4 25  4  0
  4 28  1  0
  5  8  4  0
  5 17  4  0
  6  7  4  0
  6 16  4  0
  7 18  4  0
  8 27  4  0
  9 13  4  0
  9 23  4  0
 10 11  1  0
 11 14  2  0
 11 27  1  0
 12 19  1  0
 12 24  4  0
 13 24  4  0
 15 18  1  0
 16 25  4  0
 16 26  4  0
 17 20  4  0
 17 28  1  0
 18 21  4  0
 21 26  4  0
 22 26  4  0
M  END
$$$$

 Created by Python create_sdf_string function

 28 30  0  0  0  0  0  0  0  0999 V2000
    5.7174   -8.4529   26.7190 C   0  0  0  0  0  0  0  0  0  0  0  0
    0.3974   -7.0711   27.5149 C   0  0  0  0  0  0  0  0  0  0  0  0
    2.5338   -7.6891   16.0102 C   0  0  0  0  0  0  0  0  0  0  0  0
    4.8690   -7.4380   26.4151 C   0  0  0  0  0  0  0  0  0  0  0  0
    2.3021   -5.6726   26.0378 C   0  0  0  0  0  0  0  0  0  0  0  0
    7.0880   -4.6163   27.0010 C   0  0  0  0  0  0  0  0  0  0  0  0
    8.3117   -4.3698   27.4436 C   0  0  0  0  0  0  0  0  0  0  0  0
    1.1339   -5.0515   26.3541 C   0  0  0  0  0  0  0  0  0  0  0  0
    4.8080   -8.0362   16.7101 C   0  0  0  0  0  0  0  0  0  0  0  0
   -1.2173   -3.9294   26.9717 O   0  0  0  0  0  0  0  0  0  0  0  0
   -1.0025   -5.0942   27.4586 C   0  0  0  0  0  0  0  0  0  0  0  0
    2.2474   -8.9123   16.6273 C   0  0  0  0  0  0  0  0  0  0  0  0
    4.4957   -9.2636   17.3041 C   0  0  0  0  0  0  0  0  0  0  0  0
   -1.8070   -5.6086   28.1920 O   0  0  0  0  0  0  0  0  0  0  0  0
   10.4296   -5.1799   28.3140 C   0  0  0  0  0  0  0  0  0  0  0  0
    6.6017   -5.9004   26.9187 C   0  0  0  0  0  0  0  0  0  0  0  0
    2.4761   -6.9940   26.4111 N   0  0  0  0  0  0  0  0  0  0  0  0
    9.1353   -5.4053   27.8239 C   0  0  0  0  0  0  0  0  0  0  0  0
    0.9922   -9.3232   16.5995 O   0  0  0  0  0  0  0  0  0  0  0  0
    1.5232   -7.6869   27.1182 C   0  0  0  0  0  0  0  0  0  0  0  0
    8.6878   -6.6715   27.7262 N   0  0  0  0  0  0  0  0  0  0  0  0
    6.9911   -8.2423   27.1808 C   0  0  0  0  0  0  0  0  0  0  0  0
    3.8436   -7.2758   16.0578 C   0  0  0  0  0  0  0  0  0  0  0  0
    3.1882   -9.7190   17.2566 C   0  0  0  0  0  0  0  0  0  0  0  0
    5.3488   -6.1737   26.5092 C   0  0  0  0  0  0  0  0  0  0  0  0
    7.4567   -6.9464   27.2858 C   0  0  0  0  0  0  0  0  0  0  0  0
    0.1921   -5.7592   27.1123 C   0  0  0  0  0  0  0  0  0  0  0  0
    3.5517   -7.7407   25.9711 C   0  0  0  0  0  0  0  0  0  0  0  0
  1  4  4  0
  1 22  4  0
  2 20  4  0
  2 27  4  0
  3 12  4  0
  3 23  4  0
  4 25  4  0
  4 28  1  0
  5  8  4  0
  5 17  4  0
  6  7  4  0
  6 16  4  0
  7 18  4  0
  8 27  4  0
  9 13  4  0
  9 23  4  0
 10 11  1  0
 11 14  2  0
 11 27  1  0
 12 19  1  0
 12 24  4  0
 13 24  4  0
 15 18  1  0
 16 25  4  0
 16 26  4  0
 17 20  4  0
 17 28  1  0
 18 21  4  0
 21 26  4  0
 22 26  4  0
M  END
$$$$

 Created by Python create_sdf_string function

 28 30  0  0  0  0  0  0  0  0999 V2000
    5.7174   -8.4529   26.7190 C   0  0  0  0  0  0  0  0  0  0  0  0
    0.3974   -7.0711   27.5149 C   0  0  0  0  0  0  0  0  0  0  0  0
    2.5338   -7.6891   16.0102 C   0  0  0  0  0  0  0  0  0  0  0  0
    4.8690   -7.4380   26.4151 C   0  0  0  0  0  0  0  0  0  0  0  0
    2.3021   -5.6726   26.0378 C   0  0  0  0  0  0  0  0  0  0  0  0
    7.0880   -4.6163   27.0010 C   0  0  0  0  0  0  0  0  0  0  0  0
    8.3117   -4.3698   27.4436 C   0  0  0  0  0  0  0  0  0  0  0  0
    1.1339   -5.0515   26.3541 C   0  0  0  0  0  0  0  0  0  0  0  0
    4.8080   -8.0362   16.7101 C   0  0  0  0  0  0  0  0  0  0  0  0
   -1.2173   -3.9294   26.9717 O   0  0  0  0  0  0  0  0  0  0  0  0
   -1.0025   -5.0942   27.4586 C   0  0  0  0  0  0  0  0  0  0  0  0
    2.2474   -8.9123   16.6273 C   0  0  0  0  0  0  0  0  0  0  0  0
    4.4957   -9.2636   17.3041 C   0  0  0  0  0  0  0  0  0  0  0  0
   -1.8070   -5.6086   28.1920 O   0  0  0  0  0  0  0  0  0  0  0  0
   10.4296   -5.1799   28.3140 C   0  0  0  0  0  0  0  0  0  0  0  0
    6.6017   -5.9004   26.9187 C   0  0  0  0  0  0  0  0  0  0  0  0
    2.4761   -6.9940   26.4111 N   0  0  0  0  0  0  0  0  0  0  0  0
    9.1353   -5.4053   27.8239 C   0  0  0  0  0  0  0  0  0  0  0  0
    0.9922   -9.3232   16.5995 O   0  0  0  0  0  0  0  0  0  0  0  0
    1.5232   -7.6869   27.1182 C   0  0  0  0  0  0  0  0  0  0  0  0
    8.6878   -6.6715   27.7262 N   0  0  0  0  0  0  0  0  0  0  0  0
    6.9911   -8.2423   27.1808 C   0  0  0  0  0  0  0  0  0  0  0  0
    3.8436   -7.2758   16.0578 C   0  0  0  0  0  0  0  0  0  0  0  0
    3.1882   -9.7190   17.2566 C   0  0  0  0  0  0  0  0  0  0  0  0
    5.3488   -6.1737   26.5092 C   0  0  0  0  0  0  0  0  0  0  0  0
    7.4567   -6.9464   27.2858 C   0  0  0  0  0  0  0  0  0  0  0  0
    0.1921   -5.7592   27.1123 C   0  0  0  0  0  0  0  0  0  0  0  0
    3.5517   -7.7407   25.9711 C   0  0  0  0  0  0  0  0  0  0  0  0
  1  4  4  0
  1 22  4  0
  2 20  4  0
  2 27  4  0
  3 12  4  0
  3 23  4  0
  4 25  4  0
  4 28  1  0
  5  8  4  0
  5 17  4  0
  6  7  4  0
  6 16  4  0
  7 18  4  0
  8 27  4  0
  9 13  4  0
  9 23  4  0
 10 11  1  0
 11 14  2  0
 11 27  1  0
 12 19  1  0
 12 24  4  0
 13 24  4  0
 15 18  1  0
 16 25  4  0
 16 26  4  0
 17 20  4  0
 17 28  1  0
 18 21  4  0
 21 26  4  0
 22 26  4  0
M  END
$$$$

 Created by Python create_sdf_string function

 28 30  0  0  0  0  0  0  0  0999 V2000
    5.7174   -8.4529   26.7190 C   0  0  0  0  0  0  0  0  0  0  0  0
    0.3974   -7.0711   27.5149 C   0  0  0  0  0  0  0  0  0  0  0  0
    2.5338   -7.6891   16.0102 C   0  0  0  0  0  0  0  0  0  0  0  0
    4.8690   -7.4380   26.4151 C   0  0  0  0  0  0  0  0  0  0  0  0
    2.3021   -5.6726   26.0378 C   0  0  0  0  0  0  0  0  0  0  0  0
    7.0880   -4.6163   27.0010 C   0  0  0  0  0  0  0  0  0  0  0  0
    8.3117   -4.3698   27.4436 C   0  0  0  0  0  0  0  0  0  0  0  0
    1.1339   -5.0515   26.3541 C   0  0  0  0  0  0  0  0  0  0  0  0
    4.8080   -8.0362   16.7101 C   0  0  0  0  0  0  0  0  0  0  0  0
   -1.2173   -3.9294   26.9717 O   0  0  0  0  0  0  0  0  0  0  0  0
   -1.0025   -5.0942   27.4586 C   0  0  0  0  0  0  0  0  0  0  0  0
    2.2474   -8.9123   16.6273 C   0  0  0  0  0  0  0  0  0  0  0  0
    4.4957   -9.2636   17.3041 C   0  0  0  0  0  0  0  0  0  0  0  0
   -1.8070   -5.6086   28.1920 O   0  0  0  0  0  0  0  0  0  0  0  0
   10.4296   -5.1799   28.3140 C   0  0  0  0  0  0  0  0  0  0  0  0
    6.6017   -5.9004   26.9187 C   0  0  0  0  0  0  0  0  0  0  0  0
    2.4761   -6.9940   26.4111 N   0  0  0  0  0  0  0  0  0  0  0  0
    9.1353   -5.4053   27.8239 C   0  0  0  0  0  0  0  0  0  0  0  0
    0.9922   -9.3232   16.5995 O   0  0  0  0  0  0  0  0  0  0  0  0
    1.5232   -7.6869   27.1182 C   0  0  0  0  0  0  0  0  0  0  0  0
    8.6878   -6.6715   27.7262 N   0  0  0  0  0  0  0  0  0  0  0  0
    6.9911   -8.2423   27.1808 C   0  0  0  0  0  0  0  0  0  0  0  0
    3.8436   -7.2758   16.0578 C   0  0  0  0  0  0  0  0  0  0  0  0
    3.1882   -9.7190   17.2566 C   0  0  0  0  0  0  0  0  0  0  0  0
    5.3488   -6.1737   26.5092 C   0  0  0  0  0  0  0  0  0  0  0  0
    7.4567   -6.9464   27.2858 C   0  0  0  0  0  0  0  0  0  0  0  0
    0.1921   -5.7592   27.1123 C   0  0  0  0  0  0  0  0  0  0  0  0
    3.5517   -7.7407   25.9711 C   0  0  0  0  0  0  0  0  0  0  0  0
  1  4  4  0
  1 22  4  0
  2 20  4  0
  2 27  4  0
  3 12  4  0
  3 23  4  0
  4 25  4  0
  4 28  1  0
  5  8  4  0
  5 17  4  0
  6  7  4  0
  6 16  4  0
  7 18  4  0
  8 27  4  0
  9 13  4  0
  9 23  4  0
 10 11  1  0
 11 14  2  0
 11 27  1  0
 12 19  1  0
 12 24  4  0
 13 24  4  0
 15 18  1  0
 16 25  4  0
 16 26  4  0
 17 20  4  0
 17 28  1  0
 18 21  4  0
 21 26  4  0
 22 26  4  0
M  END
$$$$

 Created by Python create_sdf_string function

 28 30  0  0  0  0  0  0  0  0999 V2000
    5.7174   -8.4529   26.7190 C   0  0  0  0  0  0  0  0  0  0  0  0
    0.3974   -7.0711   27.5149 C   0  0  0  0  0  0  0  0  0  0  0  0
    2.5338   -7.6891   16.0102 C   0  0  0  0  0  0  0  0  0  0  0  0
    4.8690   -7.4380   26.4151 C   0  0  0  0  0  0  0  0  0  0  0  0
    2.3021   -5.6726   26.0378 C   0  0  0  0  0  0  0  0  0  0  0  0
    7.0880   -4.6163   27.0010 C   0  0  0  0  0  0  0  0  0  0  0  0
    8.3117   -4.3698   27.4436 C   0  0  0  0  0  0  0  0  0  0  0  0
    1.1339   -5.0515   26.3541 C   0  0  0  0  0  0  0  0  0  0  0  0
    4.8080   -8.0362   16.7101 C   0  0  0  0  0  0  0  0  0  0  0  0
   -1.2173   -3.9294   26.9717 O   0  0  0  0  0  0  0  0  0  0  0  0
   -1.0025   -5.0942   27.4586 C   0  0  0  0  0  0  0  0  0  0  0  0
    2.2474   -8.9123   16.6273 C   0  0  0  0  0  0  0  0  0  0  0  0
    4.4957   -9.2636   17.3041 C   0  0  0  0  0  0  0  0  0  0  0  0
   -1.8070   -5.6086   28.1920 O   0  0  0  0  0  0  0  0  0  0  0  0
   10.4296   -5.1799   28.3140 C   0  0  0  0  0  0  0  0  0  0  0  0
    6.6017   -5.9004   26.9187 C   0  0  0  0  0  0  0  0  0  0  0  0
    2.4761   -6.9940   26.4111 N   0  0  0  0  0  0  0  0  0  0  0  0
    9.1353   -5.4053   27.8239 C   0  0  0  0  0  0  0  0  0  0  0  0
    0.9922   -9.3232   16.5995 O   0  0  0  0  0  0  0  0  0  0  0  0
    1.5232   -7.6869   27.1182 C   0  0  0  0  0  0  0  0  0  0  0  0
    8.6878   -6.6715   27.7262 N   0  0  0  0  0  0  0  0  0  0  0  0
    6.9911   -8.2423   27.1808 C   0  0  0  0  0  0  0  0  0  0  0  0
    3.8436   -7.2758   16.0578 C   0  0  0  0  0  0  0  0  0  0  0  0
    3.1882   -9.7190   17.2566 C   0  0  0  0  0  0  0  0  0  0  0  0
    5.3488   -6.1737   26.5092 C   0  0  0  0  0  0  0  0  0  0  0  0
    7.4567   -6.9464   27.2858 C   0  0  0  0  0  0  0  0  0  0  0  0
    0.1921   -5.7592   27.1123 C   0  0  0  0  0  0  0  0  0  0  0  0
    3.5517   -7.7407   25.9711 C   0  0  0  0  0  0  0  0  0  0  0  0
  1  4  4  0
  1 22  4  0
  2 20  4  0
  2 27  4  0
  3 12  4  0
  3 23  4  0
  4 25  4  0
  4 28  1  0
  5  8  4  0
  5 17  4  0
  6  7  4  0
  6 16  4  0
  7 18  4  0
  8 27  4  0
  9 13  4  0
  9 23  4  0
 10 11  1  0
 11 14  2  0
 11 27  1  0
 12 19  1  0
 12 24  4  0
 13 24  4  0
 15 18  1  0
 16 25  4  0
 16 26  4  0
 17 20  4  0
 17 28  1  0
 18 21  4  0
 21 26  4  0
 22 26  4  0
M  END
$$$$

 Created by Python create_sdf_string function

 28 30  0  0  0  0  0  0  0  0999 V2000
    5.7174   -8.4529   26.7190 C   0  0  0  0  0  0  0  0  0  0  0  0
    0.3974   -7.0711   27.5149 C   0  0  0  0  0  0  0  0  0  0  0  0
    2.5338   -7.6891   16.0102 C   0  0  0  0  0  0  0  0  0  0  0  0
    4.8690   -7.4380   26.4151 C   0  0  0  0  0  0  0  0  0  0  0  0
    2.3021   -5.6726   26.0378 C   0  0  0  0  0  0  0  0  0  0  0  0
    7.0880   -4.6163   27.0010 C   0  0  0  0  0  0  0  0  0  0  0  0
    8.3117   -4.3698   27.4436 C   0  0  0  0  0  0  0  0  0  0  0  0
    1.1339   -5.0515   26.3541 C   0  0  0  0  0  0  0  0  0  0  0  0
    4.8080   -8.0362   16.7101 C   0  0  0  0  0  0  0  0  0  0  0  0
   -1.2173   -3.9294   26.9717 O   0  0  0  0  0  0  0  0  0  0  0  0
   -1.0025   -5.0942   27.4586 C   0  0  0  0  0  0  0  0  0  0  0  0
    2.2474   -8.9123   16.6273 C   0  0  0  0  0  0  0  0  0  0  0  0
    4.4957   -9.2636   17.3041 C   0  0  0  0  0  0  0  0  0  0  0  0
   -1.8070   -5.6086   28.1920 O   0  0  0  0  0  0  0  0  0  0  0  0
   10.4296   -5.1799   28.3140 C   0  0  0  0  0  0  0  0  0  0  0  0
    6.6017   -5.9004   26.9187 C   0  0  0  0  0  0  0  0  0  0  0  0
    2.4761   -6.9940   26.4111 N   0  0  0  0  0  0  0  0  0  0  0  0
    9.1353   -5.4053   27.8239 C   0  0  0  0  0  0  0  0  0  0  0  0
    0.9922   -9.3232   16.5995 O   0  0  0  0  0  0  0  0  0  0  0  0
    1.5232   -7.6869   27.1182 C   0  0  0  0  0  0  0  0  0  0  0  0
    8.6878   -6.6715   27.7262 N   0  0  0  0  0  0  0  0  0  0  0  0
    6.9911   -8.2423   27.1808 C   0  0  0  0  0  0  0  0  0  0  0  0
    3.8436   -7.2758   16.0578 C   0  0  0  0  0  0  0  0  0  0  0  0
    3.1882   -9.7190   17.2566 C   0  0  0  0  0  0  0  0  0  0  0  0
    5.3488   -6.1737   26.5092 C   0  0  0  0  0  0  0  0  0  0  0  0
    7.4567   -6.9464   27.2858 C   0  0  0  0  0  0  0  0  0  0  0  0
    0.1921   -5.7592   27.1123 C   0  0  0  0  0  0  0  0  0  0  0  0
    3.5517   -7.7407   25.9711 C   0  0  0  0  0  0  0  0  0  0  0  0
  1  4  4  0
  1 22  4  0
  2 20  4  0
  2 27  4  0
  3 12  4  0
  3 23  4  0
  4 25  4  0
  4 28  1  0
  5  8  4  0
  5 17  4  0
  6  7  4  0
  6 16  4  0
  7 18  4  0
  8 27  4  0
  9 13  4  0
  9 23  4  0
 10 11  1  0
 11 14  2  0
 11 27  1  0
 12 19  1  0
 12 24  4  0
 13 24  4  0
 15 18  1  0
 16 25  4  0
 16 26  4  0
 17 20  4  0
 17 28  1  0
 18 21  4  0
 21 26  4  0
 22 26  4  0
M  END
$$$$

 Created by Python create_sdf_string function

 28 30  0  0  0  0  0  0  0  0999 V2000
    5.7174   -8.4529   26.7190 C   0  0  0  0  0  0  0  0  0  0  0  0
    0.3974   -7.0711   27.5149 C   0  0  0  0  0  0  0  0  0  0  0  0
    2.5338   -7.6891   16.0102 C   0  0  0  0  0  0  0  0  0  0  0  0
    4.8690   -7.4380   26.4151 C   0  0  0  0  0  0  0  0  0  0  0  0
    2.3021   -5.6726   26.0378 C   0  0  0  0  0  0  0  0  0  0  0  0
    7.0880   -4.6163   27.0010 C   0  0  0  0  0  0  0  0  0  0  0  0
    8.3117   -4.3698   27.4436 C   0  0  0  0  0  0  0  0  0  0  0  0
    1.1339   -5.0515   26.3541 C   0  0  0  0  0  0  0  0  0  0  0  0
    4.8080   -8.0362   16.7101 C   0  0  0  0  0  0  0  0  0  0  0  0
   -1.2173   -3.9294   26.9717 O   0  0  0  0  0  0  0  0  0  0  0  0
   -1.0025   -5.0942   27.4586 C   0  0  0  0  0  0  0  0  0  0  0  0
    2.2474   -8.9123   16.6273 C   0  0  0  0  0  0  0  0  0  0  0  0
    4.4957   -9.2636   17.3041 C   0  0  0  0  0  0  0  0  0  0  0  0
   -1.8070   -5.6086   28.1920 O   0  0  0  0  0  0  0  0  0  0  0  0
   10.4296   -5.1799   28.3140 C   0  0  0  0  0  0  0  0  0  0  0  0
    6.6017   -5.9004   26.9187 C   0  0  0  0  0  0  0  0  0  0  0  0
    2.4761   -6.9940   26.4111 N   0  0  0  0  0  0  0  0  0  0  0  0
    9.1353   -5.4053   27.8239 C   0  0  0  0  0  0  0  0  0  0  0  0
    0.9922   -9.3232   16.5995 O   0  0  0  0  0  0  0  0  0  0  0  0
    1.5232   -7.6869   27.1182 C   0  0  0  0  0  0  0  0  0  0  0  0
    8.6878   -6.6715   27.7262 N   0  0  0  0  0  0  0  0  0  0  0  0
    6.9911   -8.2423   27.1808 C   0  0  0  0  0  0  0  0  0  0  0  0
    3.8436   -7.2758   16.0578 C   0  0  0  0  0  0  0  0  0  0  0  0
    3.1882   -9.7190   17.2566 C   0  0  0  0  0  0  0  0  0  0  0  0
    5.3488   -6.1737   26.5092 C   0  0  0  0  0  0  0  0  0  0  0  0
    7.4567   -6.9464   27.2858 C   0  0  0  0  0  0  0  0  0  0  0  0
    0.1921   -5.7592   27.1123 C   0  0  0  0  0  0  0  0  0  0  0  0
    3.5517   -7.7407   25.9711 C   0  0  0  0  0  0  0  0  0  0  0  0
  1  4  4  0
  1 22  4  0
  2 20  4  0
  2 27  4  0
  3 12  4  0
  3 23  4  0
  4 25  4  0
  4 28  1  0
  5  8  4  0
  5 17  4  0
  6  7  4  0
  6 16  4  0
  7 18  4  0
  8 27  4  0
  9 13  4  0
  9 23  4  0
 10 11  1  0
 11 14  2  0
 11 27  1  0
 12 19  1  0
 12 24  4  0
 13 24  4  0
 15 18  1  0
 16 25  4  0
 16 26  4  0
 17 20  4  0
 17 28  1  0
 18 21  4  0
 21 26  4  0
 22 26  4  0
M  END
$$$$

 Created by Python create_sdf_string function

 28 30  0  0  0  0  0  0  0  0999 V2000
    5.7174   -8.4529   26.7190 C   0  0  0  0  0  0  0  0  0  0  0  0
    0.3974   -7.0711   27.5149 C   0  0  0  0  0  0  0  0  0  0  0  0
    2.5338   -7.6891   16.0102 C   0  0  0  0  0  0  0  0  0  0  0  0
    4.8690   -7.4380   26.4151 C   0  0  0  0  0  0  0  0  0  0  0  0
    2.3021   -5.6726   26.0378 C   0  0  0  0  0  0  0  0  0  0  0  0
    7.0880   -4.6163   27.0010 C   0  0  0  0  0  0  0  0  0  0  0  0
    8.3117   -4.3698   27.4436 C   0  0  0  0  0  0  0  0  0  0  0  0
    1.1339   -5.0515   26.3541 C   0  0  0  0  0  0  0  0  0  0  0  0
    4.8080   -8.0362   16.7101 C   0  0  0  0  0  0  0  0  0  0  0  0
   -1.2173   -3.9294   26.9717 O   0  0  0  0  0  0  0  0  0  0  0  0
   -1.0025   -5.0942   27.4586 C   0  0  0  0  0  0  0  0  0  0  0  0
    2.2474   -8.9123   16.6273 C   0  0  0  0  0  0  0  0  0  0  0  0
    4.4957   -9.2636   17.3041 C   0  0  0  0  0  0  0  0  0  0  0  0
   -1.8070   -5.6086   28.1920 O   0  0  0  0  0  0  0  0  0  0  0  0
   10.4296   -5.1799   28.3140 C   0  0  0  0  0  0  0  0  0  0  0  0
    6.6017   -5.9004   26.9187 C   0  0  0  0  0  0  0  0  0  0  0  0
    2.4761   -6.9940   26.4111 N   0  0  0  0  0  0  0  0  0  0  0  0
    9.1353   -5.4053   27.8239 C   0  0  0  0  0  0  0  0  0  0  0  0
    0.9922   -9.3232   16.5995 O   0  0  0  0  0  0  0  0  0  0  0  0
    1.5232   -7.6869   27.1182 C   0  0  0  0  0  0  0  0  0  0  0  0
    8.6878   -6.6715   27.7262 N   0  0  0  0  0  0  0  0  0  0  0  0
    6.9911   -8.2423   27.1808 C   0  0  0  0  0  0  0  0  0  0  0  0
    3.8436   -7.2758   16.0578 C   0  0  0  0  0  0  0  0  0  0  0  0
    3.1882   -9.7190   17.2566 C   0  0  0  0  0  0  0  0  0  0  0  0
    5.3488   -6.1737   26.5092 C   0  0  0  0  0  0  0  0  0  0  0  0
    7.4567   -6.9464   27.2858 C   0  0  0  0  0  0  0  0  0  0  0  0
    0.1921   -5.7592   27.1123 C   0  0  0  0  0  0  0  0  0  0  0  0
    3.5517   -7.7407   25.9711 C   0  0  0  0  0  0  0  0  0  0  0  0
  1  4  4  0
  1 22  4  0
  2 20  4  0
  2 27  4  0
  3 12  4  0
  3 23  4  0
  4 25  4  0
  4 28  1  0
  5  8  4  0
  5 17  4  0
  6  7  4  0
  6 16  4  0
  7 18  4  0
  8 27  4  0
  9 13  4  0
  9 23  4  0
 10 11  1  0
 11 14  2  0
 11 27  1  0
 12 19  1  0
 12 24  4  0
 13 24  4  0
 15 18  1  0
 16 25  4  0
 16 26  4  0
 17 20  4  0
 17 28  1  0
 18 21  4  0
 21 26  4  0
 22 26  4  0
M  END
$$$$

 Created by Python create_sdf_string function

 28 30  0  0  0  0  0  0  0  0999 V2000
    5.7174   -8.4529   26.7190 C   0  0  0  0  0  0  0  0  0  0  0  0
    0.3974   -7.0711   27.5149 C   0  0  0  0  0  0  0  0  0  0  0  0
    2.5338   -7.6891   16.0102 C   0  0  0  0  0  0  0  0  0  0  0  0
    4.8690   -7.4380   26.4151 C   0  0  0  0  0  0  0  0  0  0  0  0
    2.3021   -5.6726   26.0378 C   0  0  0  0  0  0  0  0  0  0  0  0
    7.0880   -4.6163   27.0010 C   0  0  0  0  0  0  0  0  0  0  0  0
    8.3117   -4.3698   27.4436 C   0  0  0  0  0  0  0  0  0  0  0  0
    1.1339   -5.0515   26.3541 C   0  0  0  0  0  0  0  0  0  0  0  0
    4.8080   -8.0362   16.7101 C   0  0  0  0  0  0  0  0  0  0  0  0
   -1.2173   -3.9294   26.9717 O   0  0  0  0  0  0  0  0  0  0  0  0
   -1.0025   -5.0942   27.4586 C   0  0  0  0  0  0  0  0  0  0  0  0
    2.2474   -8.9123   16.6273 C   0  0  0  0  0  0  0  0  0  0  0  0
    4.4957   -9.2636   17.3041 C   0  0  0  0  0  0  0  0  0  0  0  0
   -1.8070   -5.6086   28.1920 O   0  0  0  0  0  0  0  0  0  0  0  0
   10.4296   -5.1799   28.3140 C   0  0  0  0  0  0  0  0  0  0  0  0
    6.6017   -5.9004   26.9187 C   0  0  0  0  0  0  0  0  0  0  0  0
    2.4761   -6.9940   26.4111 N   0  0  0  0  0  0  0  0  0  0  0  0
    9.1353   -5.4053   27.8239 C   0  0  0  0  0  0  0  0  0  0  0  0
    0.9922   -9.3232   16.5995 O   0  0  0  0  0  0  0  0  0  0  0  0
    1.5232   -7.6869   27.1182 C   0  0  0  0  0  0  0  0  0  0  0  0
    8.6878   -6.6715   27.7262 N   0  0  0  0  0  0  0  0  0  0  0  0
    6.9911   -8.2423   27.1808 C   0  0  0  0  0  0  0  0  0  0  0  0
    3.8436   -7.2758   16.0578 C   0  0  0  0  0  0  0  0  0  0  0  0
    3.1882   -9.7190   17.2566 C   0  0  0  0  0  0  0  0  0  0  0  0
    5.3488   -6.1737   26.5092 C   0  0  0  0  0  0  0  0  0  0  0  0
    7.4567   -6.9464   27.2858 C   0  0  0  0  0  0  0  0  0  0  0  0
    0.1921   -5.7592   27.1123 C   0  0  0  0  0  0  0  0  0  0  0  0
    3.5517   -7.7407   25.9711 C   0  0  0  0  0  0  0  0  0  0  0  0
  1  4  4  0
  1 22  4  0
  2 20  4  0
  2 27  4  0
  3 12  4  0
  3 23  4  0
  4 25  4  0
  4 28  1  0
  5  8  4  0
  5 17  4  0
  6  7  4  0
  6 16  4  0
  7 18  4  0
  8 27  4  0
  9 13  4  0
  9 23  4  0
 10 11  1  0
 11 14  2  0
 11 27  1  0
 12 19  1  0
 12 24  4  0
 13 24  4  0
 15 18  1  0
 16 25  4  0
 16 26  4  0
 17 20  4  0
 17 28  1  0
 18 21  4  0
 21 26  4  0
 22 26  4  0
M  END
$$$$

 Created by Python create_sdf_string function

 28 30  0  0  0  0  0  0  0  0999 V2000
    5.7174   -8.4529   26.7190 C   0  0  0  0  0  0  0  0  0  0  0  0
    0.3974   -7.0711   27.5149 C   0  0  0  0  0  0  0  0  0  0  0  0
    2.5338   -7.6891   16.0102 C   0  0  0  0  0  0  0  0  0  0  0  0
    4.8690   -7.4380   26.4151 C   0  0  0  0  0  0  0  0  0  0  0  0
    2.3021   -5.6726   26.0378 C   0  0  0  0  0  0  0  0  0  0  0  0
    7.0880   -4.6163   27.0010 C   0  0  0  0  0  0  0  0  0  0  0  0
    8.3117   -4.3698   27.4436 C   0  0  0  0  0  0  0  0  0  0  0  0
    1.1339   -5.0515   26.3541 C   0  0  0  0  0  0  0  0  0  0  0  0
    4.8080   -8.0362   16.7101 C   0  0  0  0  0  0  0  0  0  0  0  0
   -1.2173   -3.9294   26.9717 O   0  0  0  0  0  0  0  0  0  0  0  0
   -1.0025   -5.0942   27.4586 C   0  0  0  0  0  0  0  0  0  0  0  0
    2.2474   -8.9123   16.6273 C   0  0  0  0  0  0  0  0  0  0  0  0
    4.4957   -9.2636   17.3041 C   0  0  0  0  0  0  0  0  0  0  0  0
   -1.8070   -5.6086   28.1920 O   0  0  0  0  0  0  0  0  0  0  0  0
   10.4296   -5.1799   28.3140 C   0  0  0  0  0  0  0  0  0  0  0  0
    6.6017   -5.9004   26.9187 C   0  0  0  0  0  0  0  0  0  0  0  0
    2.4761   -6.9940   26.4111 N   0  0  0  0  0  0  0  0  0  0  0  0
    9.1353   -5.4053   27.8239 C   0  0  0  0  0  0  0  0  0  0  0  0
    0.9922   -9.3232   16.5995 O   0  0  0  0  0  0  0  0  0  0  0  0
    1.5232   -7.6869   27.1182 C   0  0  0  0  0  0  0  0  0  0  0  0
    8.6878   -6.6715   27.7262 N   0  0  0  0  0  0  0  0  0  0  0  0
    6.9911   -8.2423   27.1808 C   0  0  0  0  0  0  0  0  0  0  0  0
    3.8436   -7.2758   16.0578 C   0  0  0  0  0  0  0  0  0  0  0  0
    3.1882   -9.7190   17.2566 C   0  0  0  0  0  0  0  0  0  0  0  0
    5.3488   -6.1737   26.5092 C   0  0  0  0  0  0  0  0  0  0  0  0
    7.4567   -6.9464   27.2858 C   0  0  0  0  0  0  0  0  0  0  0  0
    0.1921   -5.7592   27.1123 C   0  0  0  0  0  0  0  0  0  0  0  0
    3.5517   -7.7407   25.9711 C   0  0  0  0  0  0  0  0  0  0  0  0
  1  4  4  0
  1 22  4  0
  2 20  4  0
  2 27  4  0
  3 12  4  0
  3 23  4  0
  4 25  4  0
  4 28  1  0
  5  8  4  0
  5 17  4  0
  6  7  4  0
  6 16  4  0
  7 18  4  0
  8 27  4  0
  9 13  4  0
  9 23  4  0
 10 11  1  0
 11 14  2  0
 11 27  1  0
 12 19  1  0
 12 24  4  0
 13 24  4  0
 15 18  1  0
 16 25  4  0
 16 26  4  0
 17 20  4  0
 17 28  1  0
 18 21  4  0
 21 26  4  0
 22 26  4  0
M  END
$$$$

 Created by Python create_sdf_string function

 28 30  0  0  0  0  0  0  0  0999 V2000
    5.7174   -8.4529   26.7190 C   0  0  0  0  0  0  0  0  0  0  0  0
    0.3974   -7.0711   27.5149 C   0  0  0  0  0  0  0  0  0  0  0  0
    2.5338   -7.6891   16.0102 C   0  0  0  0  0  0  0  0  0  0  0  0
    4.8690   -7.4380   26.4151 C   0  0  0  0  0  0  0  0  0  0  0  0
    2.3021   -5.6726   26.0378 C   0  0  0  0  0  0  0  0  0  0  0  0
    7.0880   -4.6163   27.0010 C   0  0  0  0  0  0  0  0  0  0  0  0
    8.3117   -4.3698   27.4436 C   0  0  0  0  0  0  0  0  0  0  0  0
    1.1339   -5.0515   26.3541 C   0  0  0  0  0  0  0  0  0  0  0  0
    4.8080   -8.0362   16.7101 C   0  0  0  0  0  0  0  0  0  0  0  0
   -1.2173   -3.9294   26.9717 O   0  0  0  0  0  0  0  0  0  0  0  0
   -1.0025   -5.0942   27.4586 C   0  0  0  0  0  0  0  0  0  0  0  0
    2.2474   -8.9123   16.6273 C   0  0  0  0  0  0  0  0  0  0  0  0
    4.4957   -9.2636   17.3041 C   0  0  0  0  0  0  0  0  0  0  0  0
   -1.8070   -5.6086   28.1920 O   0  0  0  0  0  0  0  0  0  0  0  0
   10.4296   -5.1799   28.3140 C   0  0  0  0  0  0  0  0  0  0  0  0
    6.6017   -5.9004   26.9187 C   0  0  0  0  0  0  0  0  0  0  0  0
    2.4761   -6.9940   26.4111 N   0  0  0  0  0  0  0  0  0  0  0  0
    9.1353   -5.4053   27.8239 C   0  0  0  0  0  0  0  0  0  0  0  0
    0.9922   -9.3232   16.5995 O   0  0  0  0  0  0  0  0  0  0  0  0
    1.5232   -7.6869   27.1182 C   0  0  0  0  0  0  0  0  0  0  0  0
    8.6878   -6.6715   27.7262 N   0  0  0  0  0  0  0  0  0  0  0  0
    6.9911   -8.2423   27.1808 C   0  0  0  0  0  0  0  0  0  0  0  0
    3.8436   -7.2758   16.0578 C   0  0  0  0  0  0  0  0  0  0  0  0
    3.1882   -9.7190   17.2566 C   0  0  0  0  0  0  0  0  0  0  0  0
    5.3488   -6.1737   26.5092 C   0  0  0  0  0  0  0  0  0  0  0  0
    7.4567   -6.9464   27.2858 C   0  0  0  0  0  0  0  0  0  0  0  0
    0.1921   -5.7592   27.1123 C   0  0  0  0  0  0  0  0  0  0  0  0
    3.5517   -7.7407   25.9711 C   0  0  0  0  0  0  0  0  0  0  0  0
  1  4  4  0
  1 22  4  0
  2 20  4  0
  2 27  4  0
  3 12  4  0
  3 23  4  0
  4 25  4  0
  4 28  1  0
  5  8  4  0
  5 17  4  0
  6  7  4  0
  6 16  4  0
  7 18  4  0
  8 27  4  0
  9 13  4  0
  9 23  4  0
 10 11  1  0
 11 14  2  0
 11 27  1  0
 12 19  1  0
 12 24  4  0
 13 24  4  0
 15 18  1  0
 16 25  4  0
 16 26  4  0
 17 20  4  0
 17 28  1  0
 18 21  4  0
 21 26  4  0
 22 26  4  0
M  END
$$$$

 Created by Python create_sdf_string function

 28 30  0  0  0  0  0  0  0  0999 V2000
    5.7174   -8.4529   26.7190 C   0  0  0  0  0  0  0  0  0  0  0  0
    0.3974   -7.0711   27.5149 C   0  0  0  0  0  0  0  0  0  0  0  0
    2.5338   -7.6891   16.0102 C   0  0  0  0  0  0  0  0  0  0  0  0
    4.8690   -7.4380   26.4151 C   0  0  0  0  0  0  0  0  0  0  0  0
    2.3021   -5.6726   26.0378 C   0  0  0  0  0  0  0  0  0  0  0  0
    7.0880   -4.6163   27.0010 C   0  0  0  0  0  0  0  0  0  0  0  0
    8.3117   -4.3698   27.4436 C   0  0  0  0  0  0  0  0  0  0  0  0
    1.1339   -5.0515   26.3541 C   0  0  0  0  0  0  0  0  0  0  0  0
    4.8080   -8.0362   16.7101 C   0  0  0  0  0  0  0  0  0  0  0  0
   -1.2173   -3.9294   26.9717 O   0  0  0  0  0  0  0  0  0  0  0  0
   -1.0025   -5.0942   27.4586 C   0  0  0  0  0  0  0  0  0  0  0  0
    2.2474   -8.9123   16.6273 C   0  0  0  0  0  0  0  0  0  0  0  0
    4.4957   -9.2636   17.3041 C   0  0  0  0  0  0  0  0  0  0  0  0
   -1.8070   -5.6086   28.1920 O   0  0  0  0  0  0  0  0  0  0  0  0
   10.4296   -5.1799   28.3140 C   0  0  0  0  0  0  0  0  0  0  0  0
    6.6017   -5.9004   26.9187 C   0  0  0  0  0  0  0  0  0  0  0  0
    2.4761   -6.9940   26.4111 N   0  0  0  0  0  0  0  0  0  0  0  0
    9.1353   -5.4053   27.8239 C   0  0  0  0  0  0  0  0  0  0  0  0
    0.9922   -9.3232   16.5995 O   0  0  0  0  0  0  0  0  0  0  0  0
    1.5232   -7.6869   27.1182 C   0  0  0  0  0  0  0  0  0  0  0  0
    8.6878   -6.6715   27.7262 N   0  0  0  0  0  0  0  0  0  0  0  0
    6.9911   -8.2423   27.1808 C   0  0  0  0  0  0  0  0  0  0  0  0
    3.8436   -7.2758   16.0578 C   0  0  0  0  0  0  0  0  0  0  0  0
    3.1882   -9.7190   17.2566 C   0  0  0  0  0  0  0  0  0  0  0  0
    5.3488   -6.1737   26.5092 C   0  0  0  0  0  0  0  0  0  0  0  0
    7.4567   -6.9464   27.2858 C   0  0  0  0  0  0  0  0  0  0  0  0
    0.1921   -5.7592   27.1123 C   0  0  0  0  0  0  0  0  0  0  0  0
    3.5517   -7.7407   25.9711 C   0  0  0  0  0  0  0  0  0  0  0  0
  1  4  4  0
  1 22  4  0
  2 20  4  0
  2 27  4  0
  3 12  4  0
  3 23  4  0
  4 25  4  0
  4 28  1  0
  5  8  4  0
  5 17  4  0
  6  7  4  0
  6 16  4  0
  7 18  4  0
  8 27  4  0
  9 13  4  0
  9 23  4  0
 10 11  1  0
 11 14  2  0
 11 27  1  0
 12 19  1  0
 12 24  4  0
 13 24  4  0
 15 18  1  0
 16 25  4  0
 16 26  4  0
 17 20  4  0
 17 28  1  0
 18 21  4  0
 21 26  4  0
 22 26  4  0
M  END
$$$$

 Created by Python create_sdf_string function

 28 30  0  0  0  0  0  0  0  0999 V2000
    5.7174   -8.4529   26.7190 C   0  0  0  0  0  0  0  0  0  0  0  0
    0.3974   -7.0711   27.5149 C   0  0  0  0  0  0  0  0  0  0  0  0
    2.5338   -7.6891   16.0102 C   0  0  0  0  0  0  0  0  0  0  0  0
    4.8690   -7.4380   26.4151 C   0  0  0  0  0  0  0  0  0  0  0  0
    2.3021   -5.6726   26.0378 C   0  0  0  0  0  0  0  0  0  0  0  0
    7.0880   -4.6163   27.0010 C   0  0  0  0  0  0  0  0  0  0  0  0
    8.3117   -4.3698   27.4436 C   0  0  0  0  0  0  0  0  0  0  0  0
    1.1339   -5.0515   26.3541 C   0  0  0  0  0  0  0  0  0  0  0  0
    4.8080   -8.0362   16.7101 C   0  0  0  0  0  0  0  0  0  0  0  0
   -1.2173   -3.9294   26.9717 O   0  0  0  0  0  0  0  0  0  0  0  0
   -1.0025   -5.0942   27.4586 C   0  0  0  0  0  0  0  0  0  0  0  0
    2.2474   -8.9123   16.6273 C   0  0  0  0  0  0  0  0  0  0  0  0
    4.4957   -9.2636   17.3041 C   0  0  0  0  0  0  0  0  0  0  0  0
   -1.8070   -5.6086   28.1920 O   0  0  0  0  0  0  0  0  0  0  0  0
   10.4296   -5.1799   28.3140 C   0  0  0  0  0  0  0  0  0  0  0  0
    6.6017   -5.9004   26.9187 C   0  0  0  0  0  0  0  0  0  0  0  0
    2.4761   -6.9940   26.4111 N   0  0  0  0  0  0  0  0  0  0  0  0
    9.1353   -5.4053   27.8239 C   0  0  0  0  0  0  0  0  0  0  0  0
    0.9922   -9.3232   16.5995 O   0  0  0  0  0  0  0  0  0  0  0  0
    1.5232   -7.6869   27.1182 C   0  0  0  0  0  0  0  0  0  0  0  0
    8.6878   -6.6715   27.7262 N   0  0  0  0  0  0  0  0  0  0  0  0
    6.9911   -8.2423   27.1808 C   0  0  0  0  0  0  0  0  0  0  0  0
    3.8436   -7.2758   16.0578 C   0  0  0  0  0  0  0  0  0  0  0  0
    3.1882   -9.7190   17.2566 C   0  0  0  0  0  0  0  0  0  0  0  0
    5.3488   -6.1737   26.5092 C   0  0  0  0  0  0  0  0  0  0  0  0
    7.4567   -6.9464   27.2858 C   0  0  0  0  0  0  0  0  0  0  0  0
    0.1921   -5.7592   27.1123 C   0  0  0  0  0  0  0  0  0  0  0  0
    3.5517   -7.7407   25.9711 C   0  0  0  0  0  0  0  0  0  0  0  0
  1  4  4  0
  1 22  4  0
  2 20  4  0
  2 27  4  0
  3 12  4  0
  3 23  4  0
  4 25  4  0
  4 28  1  0
  5  8  4  0
  5 17  4  0
  6  7  4  0
  6 16  4  0
  7 18  4  0
  8 27  4  0
  9 13  4  0
  9 23  4  0
 10 11  1  0
 11 14  2  0
 11 27  1  0
 12 19  1  0
 12 24  4  0
 13 24  4  0
 15 18  1  0
 16 25  4  0
 16 26  4  0
 17 20  4  0
 17 28  1  0
 18 21  4  0
 21 26  4  0
 22 26  4  0
M  END
$$$$

 Created by Python create_sdf_string function

 28 30  0  0  0  0  0  0  0  0999 V2000
    5.7174   -8.4529   26.7190 C   0  0  0  0  0  0  0  0  0  0  0  0
    0.3974   -7.0711   27.5149 C   0  0  0  0  0  0  0  0  0  0  0  0
    2.5338   -7.6891   16.0102 C   0  0  0  0  0  0  0  0  0  0  0  0
    4.8690   -7.4380   26.4151 C   0  0  0  0  0  0  0  0  0  0  0  0
    2.3021   -5.6726   26.0378 C   0  0  0  0  0  0  0  0  0  0  0  0
    7.0880   -4.6163   27.0010 C   0  0  0  0  0  0  0  0  0  0  0  0
    8.3117   -4.3698   27.4436 C   0  0  0  0  0  0  0  0  0  0  0  0
    1.1339   -5.0515   26.3541 C   0  0  0  0  0  0  0  0  0  0  0  0
    4.8080   -8.0362   16.7101 C   0  0  0  0  0  0  0  0  0  0  0  0
   -1.2173   -3.9294   26.9717 O   0  0  0  0  0  0  0  0  0  0  0  0
   -1.0025   -5.0942   27.4586 C   0  0  0  0  0  0  0  0  0  0  0  0
    2.2474   -8.9123   16.6273 C   0  0  0  0  0  0  0  0  0  0  0  0
    4.4957   -9.2636   17.3041 C   0  0  0  0  0  0  0  0  0  0  0  0
   -1.8070   -5.6086   28.1920 O   0  0  0  0  0  0  0  0  0  0  0  0
   10.4296   -5.1799   28.3140 C   0  0  0  0  0  0  0  0  0  0  0  0
    6.6017   -5.9004   26.9187 C   0  0  0  0  0  0  0  0  0  0  0  0
    2.4761   -6.9940   26.4111 N   0  0  0  0  0  0  0  0  0  0  0  0
    9.1353   -5.4053   27.8239 C   0  0  0  0  0  0  0  0  0  0  0  0
    0.9922   -9.3232   16.5995 O   0  0  0  0  0  0  0  0  0  0  0  0
    1.5232   -7.6869   27.1182 C   0  0  0  0  0  0  0  0  0  0  0  0
    8.6878   -6.6715   27.7262 N   0  0  0  0  0  0  0  0  0  0  0  0
    6.9911   -8.2423   27.1808 C   0  0  0  0  0  0  0  0  0  0  0  0
    3.8436   -7.2758   16.0578 C   0  0  0  0  0  0  0  0  0  0  0  0
    3.1882   -9.7190   17.2566 C   0  0  0  0  0  0  0  0  0  0  0  0
    5.3488   -6.1737   26.5092 C   0  0  0  0  0  0  0  0  0  0  0  0
    7.4567   -6.9464   27.2858 C   0  0  0  0  0  0  0  0  0  0  0  0
    0.1921   -5.7592   27.1123 C   0  0  0  0  0  0  0  0  0  0  0  0
    3.5517   -7.7407   25.9711 C   0  0  0  0  0  0  0  0  0  0  0  0
  1  4  4  0
  1 22  4  0
  2 20  4  0
  2 27  4  0
  3 12  4  0
  3 23  4  0
  4 25  4  0
  4 28  1  0
  5  8  4  0
  5 17  4  0
  6  7  4  0
  6 16  4  0
  7 18  4  0
  8 27  4  0
  9 13  4  0
  9 23  4  0
 10 11  1  0
 11 14  2  0
 11 27  1  0
 12 19  1  0
 12 24  4  0
 13 24  4  0
 15 18  1  0
 16 25  4  0
 16 26  4  0
 17 20  4  0
 17 28  1  0
 18 21  4  0
 21 26  4  0
 22 26  4  0
M  END
$$$$

 Created by Python create_sdf_string function

 28 30  0  0  0  0  0  0  0  0999 V2000
    5.7174   -8.4529   26.7190 C   0  0  0  0  0  0  0  0  0  0  0  0
    0.3974   -7.0711   27.5149 C   0  0  0  0  0  0  0  0  0  0  0  0
    2.5338   -7.6891   16.0102 C   0  0  0  0  0  0  0  0  0  0  0  0
    4.8690   -7.4380   26.4151 C   0  0  0  0  0  0  0  0  0  0  0  0
    2.3021   -5.6726   26.0378 C   0  0  0  0  0  0  0  0  0  0  0  0
    7.0880   -4.6163   27.0010 C   0  0  0  0  0  0  0  0  0  0  0  0
    8.3117   -4.3698   27.4436 C   0  0  0  0  0  0  0  0  0  0  0  0
    1.1339   -5.0515   26.3541 C   0  0  0  0  0  0  0  0  0  0  0  0
    4.8080   -8.0362   16.7101 C   0  0  0  0  0  0  0  0  0  0  0  0
   -1.2173   -3.9294   26.9717 O   0  0  0  0  0  0  0  0  0  0  0  0
   -1.0025   -5.0942   27.4586 C   0  0  0  0  0  0  0  0  0  0  0  0
    2.2474   -8.9123   16.6273 C   0  0  0  0  0  0  0  0  0  0  0  0
    4.4957   -9.2636   17.3041 C   0  0  0  0  0  0  0  0  0  0  0  0
   -1.8070   -5.6086   28.1920 O   0  0  0  0  0  0  0  0  0  0  0  0
   10.4296   -5.1799   28.3140 C   0  0  0  0  0  0  0  0  0  0  0  0
    6.6017   -5.9004   26.9187 C   0  0  0  0  0  0  0  0  0  0  0  0
    2.4761   -6.9940   26.4111 N   0  0  0  0  0  0  0  0  0  0  0  0
    9.1353   -5.4053   27.8239 C   0  0  0  0  0  0  0  0  0  0  0  0
    0.9922   -9.3232   16.5995 O   0  0  0  0  0  0  0  0  0  0  0  0
    1.5232   -7.6869   27.1182 C   0  0  0  0  0  0  0  0  0  0  0  0
    8.6878   -6.6715   27.7262 N   0  0  0  0  0  0  0  0  0  0  0  0
    6.9911   -8.2423   27.1808 C   0  0  0  0  0  0  0  0  0  0  0  0
    3.8436   -7.2758   16.0578 C   0  0  0  0  0  0  0  0  0  0  0  0
    3.1882   -9.7190   17.2566 C   0  0  0  0  0  0  0  0  0  0  0  0
    5.3488   -6.1737   26.5092 C   0  0  0  0  0  0  0  0  0  0  0  0
    7.4567   -6.9464   27.2858 C   0  0  0  0  0  0  0  0  0  0  0  0
    0.1921   -5.7592   27.1123 C   0  0  0  0  0  0  0  0  0  0  0  0
    3.5517   -7.7407   25.9711 C   0  0  0  0  0  0  0  0  0  0  0  0
  1  4  4  0
  1 22  4  0
  2 20  4  0
  2 27  4  0
  3 12  4  0
  3 23  4  0
  4 25  4  0
  4 28  1  0
  5  8  4  0
  5 17  4  0
  6  7  4  0
  6 16  4  0
  7 18  4  0
  8 27  4  0
  9 13  4  0
  9 23  4  0
 10 11  1  0
 11 14  2  0
 11 27  1  0
 12 19  1  0
 12 24  4  0
 13 24  4  0
 15 18  1  0
 16 25  4  0
 16 26  4  0
 17 20  4  0
 17 28  1  0
 18 21  4  0
 21 26  4  0
 22 26  4  0
M  END
$$$$

 Created by Python create_sdf_string function

 28 30  0  0  0  0  0  0  0  0999 V2000
    5.7174   -8.4529   26.7190 C   0  0  0  0  0  0  0  0  0  0  0  0
    0.3974   -7.0711   27.5149 C   0  0  0  0  0  0  0  0  0  0  0  0
    2.5338   -7.6891   16.0102 C   0  0  0  0  0  0  0  0  0  0  0  0
    4.8690   -7.4380   26.4151 C   0  0  0  0  0  0  0  0  0  0  0  0
    2.3021   -5.6726   26.0378 C   0  0  0  0  0  0  0  0  0  0  0  0
    7.0880   -4.6163   27.0010 C   0  0  0  0  0  0  0  0  0  0  0  0
    8.3117   -4.3698   27.4436 C   0  0  0  0  0  0  0  0  0  0  0  0
    1.1339   -5.0515   26.3541 C   0  0  0  0  0  0  0  0  0  0  0  0
    4.8080   -8.0362   16.7101 C   0  0  0  0  0  0  0  0  0  0  0  0
   -1.2173   -3.9294   26.9717 O   0  0  0  0  0  0  0  0  0  0  0  0
   -1.0025   -5.0942   27.4586 C   0  0  0  0  0  0  0  0  0  0  0  0
    2.2474   -8.9123   16.6273 C   0  0  0  0  0  0  0  0  0  0  0  0
    4.4957   -9.2636   17.3041 C   0  0  0  0  0  0  0  0  0  0  0  0
   -1.8070   -5.6086   28.1920 O   0  0  0  0  0  0  0  0  0  0  0  0
   10.4296   -5.1799   28.3140 C   0  0  0  0  0  0  0  0  0  0  0  0
    6.6017   -5.9004   26.9187 C   0  0  0  0  0  0  0  0  0  0  0  0
    2.4761   -6.9940   26.4111 N   0  0  0  0  0  0  0  0  0  0  0  0
    9.1353   -5.4053   27.8239 C   0  0  0  0  0  0  0  0  0  0  0  0
    0.9922   -9.3232   16.5995 O   0  0  0  0  0  0  0  0  0  0  0  0
    1.5232   -7.6869   27.1182 C   0  0  0  0  0  0  0  0  0  0  0  0
    8.6878   -6.6715   27.7262 N   0  0  0  0  0  0  0  0  0  0  0  0
    6.9911   -8.2423   27.1808 C   0  0  0  0  0  0  0  0  0  0  0  0
    3.8436   -7.2758   16.0578 C   0  0  0  0  0  0  0  0  0  0  0  0
    3.1882   -9.7190   17.2566 C   0  0  0  0  0  0  0  0  0  0  0  0
    5.3488   -6.1737   26.5092 C   0  0  0  0  0  0  0  0  0  0  0  0
    7.4567   -6.9464   27.2858 C   0  0  0  0  0  0  0  0  0  0  0  0
    0.1921   -5.7592   27.1123 C   0  0  0  0  0  0  0  0  0  0  0  0
    3.5517   -7.7407   25.9711 C   0  0  0  0  0  0  0  0  0  0  0  0
  1  4  4  0
  1 22  4  0
  2 20  4  0
  2 27  4  0
  3 12  4  0
  3 23  4  0
  4 25  4  0
  4 28  1  0
  5  8  4  0
  5 17  4  0
  6  7  4  0
  6 16  4  0
  7 18  4  0
  8 27  4  0
  9 13  4  0
  9 23  4  0
 10 11  1  0
 11 14  2  0
 11 27  1  0
 12 19  1  0
 12 24  4  0
 13 24  4  0
 15 18  1  0
 16 25  4  0
 16 26  4  0
 17 20  4  0
 17 28  1  0
 18 21  4  0
 21 26  4  0
 22 26  4  0
M  END
$$$$

 Created by Python create_sdf_string function

 28 30  0  0  0  0  0  0  0  0999 V2000
    5.7174   -8.4529   26.7190 C   0  0  0  0  0  0  0  0  0  0  0  0
    0.3974   -7.0711   27.5149 C   0  0  0  0  0  0  0  0  0  0  0  0
    2.5338   -7.6891   16.0102 C   0  0  0  0  0  0  0  0  0  0  0  0
    4.8690   -7.4380   26.4151 C   0  0  0  0  0  0  0  0  0  0  0  0
    2.3021   -5.6726   26.0378 C   0  0  0  0  0  0  0  0  0  0  0  0
    7.0880   -4.6163   27.0010 C   0  0  0  0  0  0  0  0  0  0  0  0
    8.3117   -4.3698   27.4436 C   0  0  0  0  0  0  0  0  0  0  0  0
    1.1339   -5.0515   26.3541 C   0  0  0  0  0  0  0  0  0  0  0  0
    4.8080   -8.0362   16.7101 C   0  0  0  0  0  0  0  0  0  0  0  0
   -1.2173   -3.9294   26.9717 O   0  0  0  0  0  0  0  0  0  0  0  0
   -1.0025   -5.0942   27.4586 C   0  0  0  0  0  0  0  0  0  0  0  0
    2.2474   -8.9123   16.6273 C   0  0  0  0  0  0  0  0  0  0  0  0
    4.4957   -9.2636   17.3041 C   0  0  0  0  0  0  0  0  0  0  0  0
   -1.8070   -5.6086   28.1920 O   0  0  0  0  0  0  0  0  0  0  0  0
   10.4296   -5.1799   28.3140 C   0  0  0  0  0  0  0  0  0  0  0  0
    6.6017   -5.9004   26.9187 C   0  0  0  0  0  0  0  0  0  0  0  0
    2.4761   -6.9940   26.4111 N   0  0  0  0  0  0  0  0  0  0  0  0
    9.1353   -5.4053   27.8239 C   0  0  0  0  0  0  0  0  0  0  0  0
    0.9922   -9.3232   16.5995 O   0  0  0  0  0  0  0  0  0  0  0  0
    1.5232   -7.6869   27.1182 C   0  0  0  0  0  0  0  0  0  0  0  0
    8.6878   -6.6715   27.7262 N   0  0  0  0  0  0  0  0  0  0  0  0
    6.9911   -8.2423   27.1808 C   0  0  0  0  0  0  0  0  0  0  0  0
    3.8436   -7.2758   16.0578 C   0  0  0  0  0  0  0  0  0  0  0  0
    3.1882   -9.7190   17.2566 C   0  0  0  0  0  0  0  0  0  0  0  0
    5.3488   -6.1737   26.5092 C   0  0  0  0  0  0  0  0  0  0  0  0
    7.4567   -6.9464   27.2858 C   0  0  0  0  0  0  0  0  0  0  0  0
    0.1921   -5.7592   27.1123 C   0  0  0  0  0  0  0  0  0  0  0  0
    3.5517   -7.7407   25.9711 C   0  0  0  0  0  0  0  0  0  0  0  0
  1  4  4  0
  1 22  4  0
  2 20  4  0
  2 27  4  0
  3 12  4  0
  3 23  4  0
  4 25  4  0
  4 28  1  0
  5  8  4  0
  5 17  4  0
  6  7  4  0
  6 16  4  0
  7 18  4  0
  8 27  4  0
  9 13  4  0
  9 23  4  0
 10 11  1  0
 11 14  2  0
 11 27  1  0
 12 19  1  0
 12 24  4  0
 13 24  4  0
 15 18  1  0
 16 25  4  0
 16 26  4  0
 17 20  4  0
 17 28  1  0
 18 21  4  0
 21 26  4  0
 22 26  4  0
M  END
$$$$

 Created by Python create_sdf_string function

 28 30  0  0  0  0  0  0  0  0999 V2000
    5.7174   -8.4529   26.7190 C   0  0  0  0  0  0  0  0  0  0  0  0
    0.3974   -7.0711   27.5149 C   0  0  0  0  0  0  0  0  0  0  0  0
    2.5338   -7.6891   16.0102 C   0  0  0  0  0  0  0  0  0  0  0  0
    4.8690   -7.4380   26.4151 C   0  0  0  0  0  0  0  0  0  0  0  0
    2.3021   -5.6726   26.0378 C   0  0  0  0  0  0  0  0  0  0  0  0
    7.0880   -4.6163   27.0010 C   0  0  0  0  0  0  0  0  0  0  0  0
    8.3117   -4.3698   27.4436 C   0  0  0  0  0  0  0  0  0  0  0  0
    1.1339   -5.0515   26.3541 C   0  0  0  0  0  0  0  0  0  0  0  0
    4.8080   -8.0362   16.7101 C   0  0  0  0  0  0  0  0  0  0  0  0
   -1.2173   -3.9294   26.9717 O   0  0  0  0  0  0  0  0  0  0  0  0
   -1.0025   -5.0942   27.4586 C   0  0  0  0  0  0  0  0  0  0  0  0
    2.2474   -8.9123   16.6273 C   0  0  0  0  0  0  0  0  0  0  0  0
    4.4957   -9.2636   17.3041 C   0  0  0  0  0  0  0  0  0  0  0  0
   -1.8070   -5.6086   28.1920 O   0  0  0  0  0  0  0  0  0  0  0  0
   10.4296   -5.1799   28.3140 C   0  0  0  0  0  0  0  0  0  0  0  0
    6.6017   -5.9004   26.9187 C   0  0  0  0  0  0  0  0  0  0  0  0
    2.4761   -6.9940   26.4111 N   0  0  0  0  0  0  0  0  0  0  0  0
    9.1353   -5.4053   27.8239 C   0  0  0  0  0  0  0  0  0  0  0  0
    0.9922   -9.3232   16.5995 O   0  0  0  0  0  0  0  0  0  0  0  0
    1.5232   -7.6869   27.1182 C   0  0  0  0  0  0  0  0  0  0  0  0
    8.6878   -6.6715   27.7262 N   0  0  0  0  0  0  0  0  0  0  0  0
    6.9911   -8.2423   27.1808 C   0  0  0  0  0  0  0  0  0  0  0  0
    3.8436   -7.2758   16.0578 C   0  0  0  0  0  0  0  0  0  0  0  0
    3.1882   -9.7190   17.2566 C   0  0  0  0  0  0  0  0  0  0  0  0
    5.3488   -6.1737   26.5092 C   0  0  0  0  0  0  0  0  0  0  0  0
    7.4567   -6.9464   27.2858 C   0  0  0  0  0  0  0  0  0  0  0  0
    0.1921   -5.7592   27.1123 C   0  0  0  0  0  0  0  0  0  0  0  0
    3.5517   -7.7407   25.9711 C   0  0  0  0  0  0  0  0  0  0  0  0
  1  4  4  0
  1 22  4  0
  2 20  4  0
  2 27  4  0
  3 12  4  0
  3 23  4  0
  4 25  4  0
  4 28  1  0
  5  8  4  0
  5 17  4  0
  6  7  4  0
  6 16  4  0
  7 18  4  0
  8 27  4  0
  9 13  4  0
  9 23  4  0
 10 11  1  0
 11 14  2  0
 11 27  1  0
 12 19  1  0
 12 24  4  0
 13 24  4  0
 15 18  1  0
 16 25  4  0
 16 26  4  0
 17 20  4  0
 17 28  1  0
 18 21  4  0
 21 26  4  0
 22 26  4  0
M  END
$$$$

 Created by Python create_sdf_string function

 28 30  0  0  0  0  0  0  0  0999 V2000
    5.7174   -8.4529   26.7190 C   0  0  0  0  0  0  0  0  0  0  0  0
    0.3974   -7.0711   27.5149 C   0  0  0  0  0  0  0  0  0  0  0  0
    2.5338   -7.6891   16.0102 C   0  0  0  0  0  0  0  0  0  0  0  0
    4.8690   -7.4380   26.4151 C   0  0  0  0  0  0  0  0  0  0  0  0
    2.3021   -5.6726   26.0378 C   0  0  0  0  0  0  0  0  0  0  0  0
    7.0880   -4.6163   27.0010 C   0  0  0  0  0  0  0  0  0  0  0  0
    8.3117   -4.3698   27.4436 C   0  0  0  0  0  0  0  0  0  0  0  0
    1.1339   -5.0515   26.3541 C   0  0  0  0  0  0  0  0  0  0  0  0
    4.8080   -8.0362   16.7101 C   0  0  0  0  0  0  0  0  0  0  0  0
   -1.2173   -3.9294   26.9717 O   0  0  0  0  0  0  0  0  0  0  0  0
   -1.0025   -5.0942   27.4586 C   0  0  0  0  0  0  0  0  0  0  0  0
    2.2474   -8.9123   16.6273 C   0  0  0  0  0  0  0  0  0  0  0  0
    4.4957   -9.2636   17.3041 C   0  0  0  0  0  0  0  0  0  0  0  0
   -1.8070   -5.6086   28.1920 O   0  0  0  0  0  0  0  0  0  0  0  0
   10.4296   -5.1799   28.3140 C   0  0  0  0  0  0  0  0  0  0  0  0
    6.6017   -5.9004   26.9187 C   0  0  0  0  0  0  0  0  0  0  0  0
    2.4761   -6.9940   26.4111 N   0  0  0  0  0  0  0  0  0  0  0  0
    9.1353   -5.4053   27.8239 C   0  0  0  0  0  0  0  0  0  0  0  0
    0.9922   -9.3232   16.5995 O   0  0  0  0  0  0  0  0  0  0  0  0
    1.5232   -7.6869   27.1182 C   0  0  0  0  0  0  0  0  0  0  0  0
    8.6878   -6.6715   27.7262 N   0  0  0  0  0  0  0  0  0  0  0  0
    6.9911   -8.2423   27.1808 C   0  0  0  0  0  0  0  0  0  0  0  0
    3.8436   -7.2758   16.0578 C   0  0  0  0  0  0  0  0  0  0  0  0
    3.1882   -9.7190   17.2566 C   0  0  0  0  0  0  0  0  0  0  0  0
    5.3488   -6.1737   26.5092 C   0  0  0  0  0  0  0  0  0  0  0  0
    7.4567   -6.9464   27.2858 C   0  0  0  0  0  0  0  0  0  0  0  0
    0.1921   -5.7592   27.1123 C   0  0  0  0  0  0  0  0  0  0  0  0
    3.5517   -7.7407   25.9711 C   0  0  0  0  0  0  0  0  0  0  0  0
  1  4  4  0
  1 22  4  0
  2 20  4  0
  2 27  4  0
  3 12  4  0
  3 23  4  0
  4 25  4  0
  4 28  1  0
  5  8  4  0
  5 17  4  0
  6  7  4  0
  6 16  4  0
  7 18  4  0
  8 27  4  0
  9 13  4  0
  9 23  4  0
 10 11  1  0
 11 14  2  0
 11 27  1  0
 12 19  1  0
 12 24  4  0
 13 24  4  0
 15 18  1  0
 16 25  4  0
 16 26  4  0
 17 20  4  0
 17 28  1  0
 18 21  4  0
 21 26  4  0
 22 26  4  0
M  END
$$$$

 Created by Python create_sdf_string function

 28 30  0  0  0  0  0  0  0  0999 V2000
    5.7174   -8.4529   26.7190 C   0  0  0  0  0  0  0  0  0  0  0  0
    0.3974   -7.0711   27.5149 C   0  0  0  0  0  0  0  0  0  0  0  0
    2.5338   -7.6891   16.0102 C   0  0  0  0  0  0  0  0  0  0  0  0
    4.8690   -7.4380   26.4151 C   0  0  0  0  0  0  0  0  0  0  0  0
    2.3021   -5.6726   26.0378 C   0  0  0  0  0  0  0  0  0  0  0  0
    7.0880   -4.6163   27.0010 C   0  0  0  0  0  0  0  0  0  0  0  0
    8.3117   -4.3698   27.4436 C   0  0  0  0  0  0  0  0  0  0  0  0
    1.1339   -5.0515   26.3541 C   0  0  0  0  0  0  0  0  0  0  0  0
    4.8080   -8.0362   16.7101 C   0  0  0  0  0  0  0  0  0  0  0  0
   -1.2173   -3.9294   26.9717 O   0  0  0  0  0  0  0  0  0  0  0  0
   -1.0025   -5.0942   27.4586 C   0  0  0  0  0  0  0  0  0  0  0  0
    2.2474   -8.9123   16.6273 C   0  0  0  0  0  0  0  0  0  0  0  0
    4.4957   -9.2636   17.3041 C   0  0  0  0  0  0  0  0  0  0  0  0
   -1.8070   -5.6086   28.1920 O   0  0  0  0  0  0  0  0  0  0  0  0
   10.4296   -5.1799   28.3140 C   0  0  0  0  0  0  0  0  0  0  0  0
    6.6017   -5.9004   26.9187 C   0  0  0  0  0  0  0  0  0  0  0  0
    2.4761   -6.9940   26.4111 N   0  0  0  0  0  0  0  0  0  0  0  0
    9.1353   -5.4053   27.8239 C   0  0  0  0  0  0  0  0  0  0  0  0
    0.9922   -9.3232   16.5995 O   0  0  0  0  0  0  0  0  0  0  0  0
    1.5232   -7.6869   27.1182 C   0  0  0  0  0  0  0  0  0  0  0  0
    8.6878   -6.6715   27.7262 N   0  0  0  0  0  0  0  0  0  0  0  0
    6.9911   -8.2423   27.1808 C   0  0  0  0  0  0  0  0  0  0  0  0
    3.8436   -7.2758   16.0578 C   0  0  0  0  0  0  0  0  0  0  0  0
    3.1882   -9.7190   17.2566 C   0  0  0  0  0  0  0  0  0  0  0  0
    5.3488   -6.1737   26.5092 C   0  0  0  0  0  0  0  0  0  0  0  0
    7.4567   -6.9464   27.2858 C   0  0  0  0  0  0  0  0  0  0  0  0
    0.1921   -5.7592   27.1123 C   0  0  0  0  0  0  0  0  0  0  0  0
    3.5517   -7.7407   25.9711 C   0  0  0  0  0  0  0  0  0  0  0  0
  1  4  4  0
  1 22  4  0
  2 20  4  0
  2 27  4  0
  3 12  4  0
  3 23  4  0
  4 25  4  0
  4 28  1  0
  5  8  4  0
  5 17  4  0
  6  7  4  0
  6 16  4  0
  7 18  4  0
  8 27  4  0
  9 13  4  0
  9 23  4  0
 10 11  1  0
 11 14  2  0
 11 27  1  0
 12 19  1  0
 12 24  4  0
 13 24  4  0
 15 18  1  0
 16 25  4  0
 16 26  4  0
 17 20  4  0
 17 28  1  0
 18 21  4  0
 21 26  4  0
 22 26  4  0
M  END
$$$$

 Created by Python create_sdf_string function

 28 30  0  0  0  0  0  0  0  0999 V2000
    5.7174   -8.4529   26.7190 C   0  0  0  0  0  0  0  0  0  0  0  0
    0.3974   -7.0711   27.5149 C   0  0  0  0  0  0  0  0  0  0  0  0
    2.5338   -7.6891   16.0102 C   0  0  0  0  0  0  0  0  0  0  0  0
    4.8690   -7.4380   26.4151 C   0  0  0  0  0  0  0  0  0  0  0  0
    2.3021   -5.6726   26.0378 C   0  0  0  0  0  0  0  0  0  0  0  0
    7.0880   -4.6163   27.0010 C   0  0  0  0  0  0  0  0  0  0  0  0
    8.3117   -4.3698   27.4436 C   0  0  0  0  0  0  0  0  0  0  0  0
    1.1339   -5.0515   26.3541 C   0  0  0  0  0  0  0  0  0  0  0  0
    4.8080   -8.0362   16.7101 C   0  0  0  0  0  0  0  0  0  0  0  0
   -1.2173   -3.9294   26.9717 O   0  0  0  0  0  0  0  0  0  0  0  0
   -1.0025   -5.0942   27.4586 C   0  0  0  0  0  0  0  0  0  0  0  0
    2.2474   -8.9123   16.6273 C   0  0  0  0  0  0  0  0  0  0  0  0
    4.4957   -9.2636   17.3041 C   0  0  0  0  0  0  0  0  0  0  0  0
   -1.8070   -5.6086   28.1920 O   0  0  0  0  0  0  0  0  0  0  0  0
   10.4296   -5.1799   28.3140 C   0  0  0  0  0  0  0  0  0  0  0  0
    6.6017   -5.9004   26.9187 C   0  0  0  0  0  0  0  0  0  0  0  0
    2.4761   -6.9940   26.4111 N   0  0  0  0  0  0  0  0  0  0  0  0
    9.1353   -5.4053   27.8239 C   0  0  0  0  0  0  0  0  0  0  0  0
    0.9922   -9.3232   16.5995 O   0  0  0  0  0  0  0  0  0  0  0  0
    1.5232   -7.6869   27.1182 C   0  0  0  0  0  0  0  0  0  0  0  0
    8.6878   -6.6715   27.7262 N   0  0  0  0  0  0  0  0  0  0  0  0
    6.9911   -8.2423   27.1808 C   0  0  0  0  0  0  0  0  0  0  0  0
    3.8436   -7.2758   16.0578 C   0  0  0  0  0  0  0  0  0  0  0  0
    3.1882   -9.7190   17.2566 C   0  0  0  0  0  0  0  0  0  0  0  0
    5.3488   -6.1737   26.5092 C   0  0  0  0  0  0  0  0  0  0  0  0
    7.4567   -6.9464   27.2858 C   0  0  0  0  0  0  0  0  0  0  0  0
    0.1921   -5.7592   27.1123 C   0  0  0  0  0  0  0  0  0  0  0  0
    3.5517   -7.7407   25.9711 C   0  0  0  0  0  0  0  0  0  0  0  0
  1  4  4  0
  1 22  4  0
  2 20  4  0
  2 27  4  0
  3 12  4  0
  3 23  4  0
  4 25  4  0
  4 28  1  0
  5  8  4  0
  5 17  4  0
  6  7  4  0
  6 16  4  0
  7 18  4  0
  8 27  4  0
  9 13  4  0
  9 23  4  0
 10 11  1  0
 11 14  2  0
 11 27  1  0
 12 19  1  0
 12 24  4  0
 13 24  4  0
 15 18  1  0
 16 25  4  0
 16 26  4  0
 17 20  4  0
 17 28  1  0
 18 21  4  0
 21 26  4  0
 22 26  4  0
M  END
$$$$

 Created by Python create_sdf_string function

 28 30  0  0  0  0  0  0  0  0999 V2000
    5.7174   -8.4529   26.7190 C   0  0  0  0  0  0  0  0  0  0  0  0
    0.3974   -7.0711   27.5149 C   0  0  0  0  0  0  0  0  0  0  0  0
    2.5338   -7.6891   16.0102 C   0  0  0  0  0  0  0  0  0  0  0  0
    4.8690   -7.4380   26.4151 C   0  0  0  0  0  0  0  0  0  0  0  0
    2.3021   -5.6726   26.0378 C   0  0  0  0  0  0  0  0  0  0  0  0
    7.0880   -4.6163   27.0010 C   0  0  0  0  0  0  0  0  0  0  0  0
    8.3117   -4.3698   27.4436 C   0  0  0  0  0  0  0  0  0  0  0  0
    1.1339   -5.0515   26.3541 C   0  0  0  0  0  0  0  0  0  0  0  0
    4.8080   -8.0362   16.7101 C   0  0  0  0  0  0  0  0  0  0  0  0
   -1.2173   -3.9294   26.9717 O   0  0  0  0  0  0  0  0  0  0  0  0
   -1.0025   -5.0942   27.4586 C   0  0  0  0  0  0  0  0  0  0  0  0
    2.2474   -8.9123   16.6273 C   0  0  0  0  0  0  0  0  0  0  0  0
    4.4957   -9.2636   17.3041 C   0  0  0  0  0  0  0  0  0  0  0  0
   -1.8070   -5.6086   28.1920 O   0  0  0  0  0  0  0  0  0  0  0  0
   10.4296   -5.1799   28.3140 C   0  0  0  0  0  0  0  0  0  0  0  0
    6.6017   -5.9004   26.9187 C   0  0  0  0  0  0  0  0  0  0  0  0
    2.4761   -6.9940   26.4111 N   0  0  0  0  0  0  0  0  0  0  0  0
    9.1353   -5.4053   27.8239 C   0  0  0  0  0  0  0  0  0  0  0  0
    0.9922   -9.3232   16.5995 O   0  0  0  0  0  0  0  0  0  0  0  0
    1.5232   -7.6869   27.1182 C   0  0  0  0  0  0  0  0  0  0  0  0
    8.6878   -6.6715   27.7262 N   0  0  0  0  0  0  0  0  0  0  0  0
    6.9911   -8.2423   27.1808 C   0  0  0  0  0  0  0  0  0  0  0  0
    3.8436   -7.2758   16.0578 C   0  0  0  0  0  0  0  0  0  0  0  0
    3.1882   -9.7190   17.2566 C   0  0  0  0  0  0  0  0  0  0  0  0
    5.3488   -6.1737   26.5092 C   0  0  0  0  0  0  0  0  0  0  0  0
    7.4567   -6.9464   27.2858 C   0  0  0  0  0  0  0  0  0  0  0  0
    0.1921   -5.7592   27.1123 C   0  0  0  0  0  0  0  0  0  0  0  0
    3.5517   -7.7407   25.9711 C   0  0  0  0  0  0  0  0  0  0  0  0
  1  4  4  0
  1 22  4  0
  2 20  4  0
  2 27  4  0
  3 12  4  0
  3 23  4  0
  4 25  4  0
  4 28  1  0
  5  8  4  0
  5 17  4  0
  6  7  4  0
  6 16  4  0
  7 18  4  0
  8 27  4  0
  9 13  4  0
  9 23  4  0
 10 11  1  0
 11 14  2  0
 11 27  1  0
 12 19  1  0
 12 24  4  0
 13 24  4  0
 15 18  1  0
 16 25  4  0
 16 26  4  0
 17 20  4  0
 17 28  1  0
 18 21  4  0
 21 26  4  0
 22 26  4  0
M  END
$$$$

 Created by Python create_sdf_string function

 28 30  0  0  0  0  0  0  0  0999 V2000
    5.7174   -8.4529   26.7190 C   0  0  0  0  0  0  0  0  0  0  0  0
    0.3974   -7.0711   27.5149 C   0  0  0  0  0  0  0  0  0  0  0  0
    2.5338   -7.6891   16.0102 C   0  0  0  0  0  0  0  0  0  0  0  0
    4.8690   -7.4380   26.4151 C   0  0  0  0  0  0  0  0  0  0  0  0
    2.3021   -5.6726   26.0378 C   0  0  0  0  0  0  0  0  0  0  0  0
    7.0880   -4.6163   27.0010 C   0  0  0  0  0  0  0  0  0  0  0  0
    8.3117   -4.3698   27.4436 C   0  0  0  0  0  0  0  0  0  0  0  0
    1.1339   -5.0515   26.3541 C   0  0  0  0  0  0  0  0  0  0  0  0
    4.8080   -8.0362   16.7101 C   0  0  0  0  0  0  0  0  0  0  0  0
   -1.2173   -3.9294   26.9717 O   0  0  0  0  0  0  0  0  0  0  0  0
   -1.0025   -5.0942   27.4586 C   0  0  0  0  0  0  0  0  0  0  0  0
    2.2474   -8.9123   16.6273 C   0  0  0  0  0  0  0  0  0  0  0  0
    4.4957   -9.2636   17.3041 C   0  0  0  0  0  0  0  0  0  0  0  0
   -1.8070   -5.6086   28.1920 O   0  0  0  0  0  0  0  0  0  0  0  0
   10.4296   -5.1799   28.3140 C   0  0  0  0  0  0  0  0  0  0  0  0
    6.6017   -5.9004   26.9187 C   0  0  0  0  0  0  0  0  0  0  0  0
    2.4761   -6.9940   26.4111 N   0  0  0  0  0  0  0  0  0  0  0  0
    9.1353   -5.4053   27.8239 C   0  0  0  0  0  0  0  0  0  0  0  0
    0.9922   -9.3232   16.5995 O   0  0  0  0  0  0  0  0  0  0  0  0
    1.5232   -7.6869   27.1182 C   0  0  0  0  0  0  0  0  0  0  0  0
    8.6878   -6.6715   27.7262 N   0  0  0  0  0  0  0  0  0  0  0  0
    6.9911   -8.2423   27.1808 C   0  0  0  0  0  0  0  0  0  0  0  0
    3.8436   -7.2758   16.0578 C   0  0  0  0  0  0  0  0  0  0  0  0
    3.1882   -9.7190   17.2566 C   0  0  0  0  0  0  0  0  0  0  0  0
    5.3488   -6.1737   26.5092 C   0  0  0  0  0  0  0  0  0  0  0  0
    7.4567   -6.9464   27.2858 C   0  0  0  0  0  0  0  0  0  0  0  0
    0.1921   -5.7592   27.1123 C   0  0  0  0  0  0  0  0  0  0  0  0
    3.5517   -7.7407   25.9711 C   0  0  0  0  0  0  0  0  0  0  0  0
  1  4  4  0
  1 22  4  0
  2 20  4  0
  2 27  4  0
  3 12  4  0
  3 23  4  0
  4 25  4  0
  4 28  1  0
  5  8  4  0
  5 17  4  0
  6  7  4  0
  6 16  4  0
  7 18  4  0
  8 27  4  0
  9 13  4  0
  9 23  4  0
 10 11  1  0
 11 14  2  0
 11 27  1  0
 12 19  1  0
 12 24  4  0
 13 24  4  0
 15 18  1  0
 16 25  4  0
 16 26  4  0
 17 20  4  0
 17 28  1  0
 18 21  4  0
 21 26  4  0
 22 26  4  0
M  END
$$$$

 Created by Python create_sdf_string function

 28 30  0  0  0  0  0  0  0  0999 V2000
    5.7174   -8.4529   26.7190 C   0  0  0  0  0  0  0  0  0  0  0  0
    0.3974   -7.0711   27.5149 C   0  0  0  0  0  0  0  0  0  0  0  0
    2.5338   -7.6891   16.0102 C   0  0  0  0  0  0  0  0  0  0  0  0
    4.8690   -7.4380   26.4151 C   0  0  0  0  0  0  0  0  0  0  0  0
    2.3021   -5.6726   26.0378 C   0  0  0  0  0  0  0  0  0  0  0  0
    7.0880   -4.6163   27.0010 C   0  0  0  0  0  0  0  0  0  0  0  0
    8.3117   -4.3698   27.4436 C   0  0  0  0  0  0  0  0  0  0  0  0
    1.1339   -5.0515   26.3541 C   0  0  0  0  0  0  0  0  0  0  0  0
    4.8080   -8.0362   16.7101 C   0  0  0  0  0  0  0  0  0  0  0  0
   -1.2173   -3.9294   26.9717 O   0  0  0  0  0  0  0  0  0  0  0  0
   -1.0025   -5.0942   27.4586 C   0  0  0  0  0  0  0  0  0  0  0  0
    2.2474   -8.9123   16.6273 C   0  0  0  0  0  0  0  0  0  0  0  0
    4.4957   -9.2636   17.3041 C   0  0  0  0  0  0  0  0  0  0  0  0
   -1.8070   -5.6086   28.1920 O   0  0  0  0  0  0  0  0  0  0  0  0
   10.4296   -5.1799   28.3140 C   0  0  0  0  0  0  0  0  0  0  0  0
    6.6017   -5.9004   26.9187 C   0  0  0  0  0  0  0  0  0  0  0  0
    2.4761   -6.9940   26.4111 N   0  0  0  0  0  0  0  0  0  0  0  0
    9.1353   -5.4053   27.8239 C   0  0  0  0  0  0  0  0  0  0  0  0
    0.9922   -9.3232   16.5995 O   0  0  0  0  0  0  0  0  0  0  0  0
    1.5232   -7.6869   27.1182 C   0  0  0  0  0  0  0  0  0  0  0  0
    8.6878   -6.6715   27.7262 N   0  0  0  0  0  0  0  0  0  0  0  0
    6.9911   -8.2423   27.1808 C   0  0  0  0  0  0  0  0  0  0  0  0
    3.8436   -7.2758   16.0578 C   0  0  0  0  0  0  0  0  0  0  0  0
    3.1882   -9.7190   17.2566 C   0  0  0  0  0  0  0  0  0  0  0  0
    5.3488   -6.1737   26.5092 C   0  0  0  0  0  0  0  0  0  0  0  0
    7.4567   -6.9464   27.2858 C   0  0  0  0  0  0  0  0  0  0  0  0
    0.1921   -5.7592   27.1123 C   0  0  0  0  0  0  0  0  0  0  0  0
    3.5517   -7.7407   25.9711 C   0  0  0  0  0  0  0  0  0  0  0  0
  1  4  4  0
  1 22  4  0
  2 20  4  0
  2 27  4  0
  3 12  4  0
  3 23  4  0
  4 25  4  0
  4 28  1  0
  5  8  4  0
  5 17  4  0
  6  7  4  0
  6 16  4  0
  7 18  4  0
  8 27  4  0
  9 13  4  0
  9 23  4  0
 10 11  1  0
 11 14  2  0
 11 27  1  0
 12 19  1  0
 12 24  4  0
 13 24  4  0
 15 18  1  0
 16 25  4  0
 16 26  4  0
 17 20  4  0
 17 28  1  0
 18 21  4  0
 21 26  4  0
 22 26  4  0
M  END
$$$$

 Created by Python create_sdf_string function

 28 30  0  0  0  0  0  0  0  0999 V2000
    5.7174   -8.4529   26.7190 C   0  0  0  0  0  0  0  0  0  0  0  0
    0.3974   -7.0711   27.5149 C   0  0  0  0  0  0  0  0  0  0  0  0
    2.5338   -7.6891   16.0102 C   0  0  0  0  0  0  0  0  0  0  0  0
    4.8690   -7.4380   26.4151 C   0  0  0  0  0  0  0  0  0  0  0  0
    2.3021   -5.6726   26.0378 C   0  0  0  0  0  0  0  0  0  0  0  0
    7.0880   -4.6163   27.0010 C   0  0  0  0  0  0  0  0  0  0  0  0
    8.3117   -4.3698   27.4436 C   0  0  0  0  0  0  0  0  0  0  0  0
    1.1339   -5.0515   26.3541 C   0  0  0  0  0  0  0  0  0  0  0  0
    4.8080   -8.0362   16.7101 C   0  0  0  0  0  0  0  0  0  0  0  0
   -1.2173   -3.9294   26.9717 O   0  0  0  0  0  0  0  0  0  0  0  0
   -1.0025   -5.0942   27.4586 C   0  0  0  0  0  0  0  0  0  0  0  0
    2.2474   -8.9123   16.6273 C   0  0  0  0  0  0  0  0  0  0  0  0
    4.4957   -9.2636   17.3041 C   0  0  0  0  0  0  0  0  0  0  0  0
   -1.8070   -5.6086   28.1920 O   0  0  0  0  0  0  0  0  0  0  0  0
   10.4296   -5.1799   28.3140 C   0  0  0  0  0  0  0  0  0  0  0  0
    6.6017   -5.9004   26.9187 C   0  0  0  0  0  0  0  0  0  0  0  0
    2.4761   -6.9940   26.4111 N   0  0  0  0  0  0  0  0  0  0  0  0
    9.1353   -5.4053   27.8239 C   0  0  0  0  0  0  0  0  0  0  0  0
    0.9922   -9.3232   16.5995 O   0  0  0  0  0  0  0  0  0  0  0  0
    1.5232   -7.6869   27.1182 C   0  0  0  0  0  0  0  0  0  0  0  0
    8.6878   -6.6715   27.7262 N   0  0  0  0  0  0  0  0  0  0  0  0
    6.9911   -8.2423   27.1808 C   0  0  0  0  0  0  0  0  0  0  0  0
    3.8436   -7.2758   16.0578 C   0  0  0  0  0  0  0  0  0  0  0  0
    3.1882   -9.7190   17.2566 C   0  0  0  0  0  0  0  0  0  0  0  0
    5.3488   -6.1737   26.5092 C   0  0  0  0  0  0  0  0  0  0  0  0
    7.4567   -6.9464   27.2858 C   0  0  0  0  0  0  0  0  0  0  0  0
    0.1921   -5.7592   27.1123 C   0  0  0  0  0  0  0  0  0  0  0  0
    3.5517   -7.7407   25.9711 C   0  0  0  0  0  0  0  0  0  0  0  0
  1  4  4  0
  1 22  4  0
  2 20  4  0
  2 27  4  0
  3 12  4  0
  3 23  4  0
  4 25  4  0
  4 28  1  0
  5  8  4  0
  5 17  4  0
  6  7  4  0
  6 16  4  0
  7 18  4  0
  8 27  4  0
  9 13  4  0
  9 23  4  0
 10 11  1  0
 11 14  2  0
 11 27  1  0
 12 19  1  0
 12 24  4  0
 13 24  4  0
 15 18  1  0
 16 25  4  0
 16 26  4  0
 17 20  4  0
 17 28  1  0
 18 21  4  0
 21 26  4  0
 22 26  4  0
M  END
$$$$

 Created by Python create_sdf_string function

 28 30  0  0  0  0  0  0  0  0999 V2000
    5.7174   -8.4529   26.7190 C   0  0  0  0  0  0  0  0  0  0  0  0
    0.3974   -7.0711   27.5149 C   0  0  0  0  0  0  0  0  0  0  0  0
    2.5338   -7.6891   16.0102 C   0  0  0  0  0  0  0  0  0  0  0  0
    4.8690   -7.4380   26.4151 C   0  0  0  0  0  0  0  0  0  0  0  0
    2.3021   -5.6726   26.0378 C   0  0  0  0  0  0  0  0  0  0  0  0
    7.0880   -4.6163   27.0010 C   0  0  0  0  0  0  0  0  0  0  0  0
    8.3117   -4.3698   27.4436 C   0  0  0  0  0  0  0  0  0  0  0  0
    1.1339   -5.0515   26.3541 C   0  0  0  0  0  0  0  0  0  0  0  0
    4.8080   -8.0362   16.7101 C   0  0  0  0  0  0  0  0  0  0  0  0
   -1.2173   -3.9294   26.9717 O   0  0  0  0  0  0  0  0  0  0  0  0
   -1.0025   -5.0942   27.4586 C   0  0  0  0  0  0  0  0  0  0  0  0
    2.2474   -8.9123   16.6273 C   0  0  0  0  0  0  0  0  0  0  0  0
    4.4957   -9.2636   17.3041 C   0  0  0  0  0  0  0  0  0  0  0  0
   -1.8070   -5.6086   28.1920 O   0  0  0  0  0  0  0  0  0  0  0  0
   10.4296   -5.1799   28.3140 C   0  0  0  0  0  0  0  0  0  0  0  0
    6.6017   -5.9004   26.9187 C   0  0  0  0  0  0  0  0  0  0  0  0
    2.4761   -6.9940   26.4111 N   0  0  0  0  0  0  0  0  0  0  0  0
    9.1353   -5.4053   27.8239 C   0  0  0  0  0  0  0  0  0  0  0  0
    0.9922   -9.3232   16.5995 O   0  0  0  0  0  0  0  0  0  0  0  0
    1.5232   -7.6869   27.1182 C   0  0  0  0  0  0  0  0  0  0  0  0
    8.6878   -6.6715   27.7262 N   0  0  0  0  0  0  0  0  0  0  0  0
    6.9911   -8.2423   27.1808 C   0  0  0  0  0  0  0  0  0  0  0  0
    3.8436   -7.2758   16.0578 C   0  0  0  0  0  0  0  0  0  0  0  0
    3.1882   -9.7190   17.2566 C   0  0  0  0  0  0  0  0  0  0  0  0
    5.3488   -6.1737   26.5092 C   0  0  0  0  0  0  0  0  0  0  0  0
    7.4567   -6.9464   27.2858 C   0  0  0  0  0  0  0  0  0  0  0  0
    0.1921   -5.7592   27.1123 C   0  0  0  0  0  0  0  0  0  0  0  0
    3.5517   -7.7407   25.9711 C   0  0  0  0  0  0  0  0  0  0  0  0
  1  4  4  0
  1 22  4  0
  2 20  4  0
  2 27  4  0
  3 12  4  0
  3 23  4  0
  4 25  4  0
  4 28  1  0
  5  8  4  0
  5 17  4  0
  6  7  4  0
  6 16  4  0
  7 18  4  0
  8 27  4  0
  9 13  4  0
  9 23  4  0
 10 11  1  0
 11 14  2  0
 11 27  1  0
 12 19  1  0
 12 24  4  0
 13 24  4  0
 15 18  1  0
 16 25  4  0
 16 26  4  0
 17 20  4  0
 17 28  1  0
 18 21  4  0
 21 26  4  0
 22 26  4  0
M  END
$$$$

 Created by Python create_sdf_string function

 28 30  0  0  0  0  0  0  0  0999 V2000
    5.7174   -8.4529   26.7190 C   0  0  0  0  0  0  0  0  0  0  0  0
    0.3974   -7.0711   27.5149 C   0  0  0  0  0  0  0  0  0  0  0  0
    2.5338   -7.6891   16.0102 C   0  0  0  0  0  0  0  0  0  0  0  0
    4.8690   -7.4380   26.4151 C   0  0  0  0  0  0  0  0  0  0  0  0
    2.3021   -5.6726   26.0378 C   0  0  0  0  0  0  0  0  0  0  0  0
    7.0880   -4.6163   27.0010 C   0  0  0  0  0  0  0  0  0  0  0  0
    8.3117   -4.3698   27.4436 C   0  0  0  0  0  0  0  0  0  0  0  0
    1.1339   -5.0515   26.3541 C   0  0  0  0  0  0  0  0  0  0  0  0
    4.8080   -8.0362   16.7101 C   0  0  0  0  0  0  0  0  0  0  0  0
   -1.2173   -3.9294   26.9717 O   0  0  0  0  0  0  0  0  0  0  0  0
   -1.0025   -5.0942   27.4586 C   0  0  0  0  0  0  0  0  0  0  0  0
    2.2474   -8.9123   16.6273 C   0  0  0  0  0  0  0  0  0  0  0  0
    4.4957   -9.2636   17.3041 C   0  0  0  0  0  0  0  0  0  0  0  0
   -1.8070   -5.6086   28.1920 O   0  0  0  0  0  0  0  0  0  0  0  0
   10.4296   -5.1799   28.3140 C   0  0  0  0  0  0  0  0  0  0  0  0
    6.6017   -5.9004   26.9187 C   0  0  0  0  0  0  0  0  0  0  0  0
    2.4761   -6.9940   26.4111 N   0  0  0  0  0  0  0  0  0  0  0  0
    9.1353   -5.4053   27.8239 C   0  0  0  0  0  0  0  0  0  0  0  0
    0.9922   -9.3232   16.5995 O   0  0  0  0  0  0  0  0  0  0  0  0
    1.5232   -7.6869   27.1182 C   0  0  0  0  0  0  0  0  0  0  0  0
    8.6878   -6.6715   27.7262 N   0  0  0  0  0  0  0  0  0  0  0  0
    6.9911   -8.2423   27.1808 C   0  0  0  0  0  0  0  0  0  0  0  0
    3.8436   -7.2758   16.0578 C   0  0  0  0  0  0  0  0  0  0  0  0
    3.1882   -9.7190   17.2566 C   0  0  0  0  0  0  0  0  0  0  0  0
    5.3488   -6.1737   26.5092 C   0  0  0  0  0  0  0  0  0  0  0  0
    7.4567   -6.9464   27.2858 C   0  0  0  0  0  0  0  0  0  0  0  0
    0.1921   -5.7592   27.1123 C   0  0  0  0  0  0  0  0  0  0  0  0
    3.5517   -7.7407   25.9711 C   0  0  0  0  0  0  0  0  0  0  0  0
  1  4  4  0
  1 22  4  0
  2 20  4  0
  2 27  4  0
  3 12  4  0
  3 23  4  0
  4 25  4  0
  4 28  1  0
  5  8  4  0
  5 17  4  0
  6  7  4  0
  6 16  4  0
  7 18  4  0
  8 27  4  0
  9 13  4  0
  9 23  4  0
 10 11  1  0
 11 14  2  0
 11 27  1  0
 12 19  1  0
 12 24  4  0
 13 24  4  0
 15 18  1  0
 16 25  4  0
 16 26  4  0
 17 20  4  0
 17 28  1  0
 18 21  4  0
 21 26  4  0
 22 26  4  0
M  END
$$$$

 Created by Python create_sdf_string function

 28 30  0  0  0  0  0  0  0  0999 V2000
    5.7174   -8.4529   26.7190 C   0  0  0  0  0  0  0  0  0  0  0  0
    0.3974   -7.0711   27.5149 C   0  0  0  0  0  0  0  0  0  0  0  0
    2.5338   -7.6891   16.0102 C   0  0  0  0  0  0  0  0  0  0  0  0
    4.8690   -7.4380   26.4151 C   0  0  0  0  0  0  0  0  0  0  0  0
    2.3021   -5.6726   26.0378 C   0  0  0  0  0  0  0  0  0  0  0  0
    7.0880   -4.6163   27.0010 C   0  0  0  0  0  0  0  0  0  0  0  0
    8.3117   -4.3698   27.4436 C   0  0  0  0  0  0  0  0  0  0  0  0
    1.1339   -5.0515   26.3541 C   0  0  0  0  0  0  0  0  0  0  0  0
    4.8080   -8.0362   16.7101 C   0  0  0  0  0  0  0  0  0  0  0  0
   -1.2173   -3.9294   26.9717 O   0  0  0  0  0  0  0  0  0  0  0  0
   -1.0025   -5.0942   27.4586 C   0  0  0  0  0  0  0  0  0  0  0  0
    2.2474   -8.9123   16.6273 C   0  0  0  0  0  0  0  0  0  0  0  0
    4.4957   -9.2636   17.3041 C   0  0  0  0  0  0  0  0  0  0  0  0
   -1.8070   -5.6086   28.1920 O   0  0  0  0  0  0  0  0  0  0  0  0
   10.4296   -5.1799   28.3140 C   0  0  0  0  0  0  0  0  0  0  0  0
    6.6017   -5.9004   26.9187 C   0  0  0  0  0  0  0  0  0  0  0  0
    2.4761   -6.9940   26.4111 N   0  0  0  0  0  0  0  0  0  0  0  0
    9.1353   -5.4053   27.8239 C   0  0  0  0  0  0  0  0  0  0  0  0
    0.9922   -9.3232   16.5995 O   0  0  0  0  0  0  0  0  0  0  0  0
    1.5232   -7.6869   27.1182 C   0  0  0  0  0  0  0  0  0  0  0  0
    8.6878   -6.6715   27.7262 N   0  0  0  0  0  0  0  0  0  0  0  0
    6.9911   -8.2423   27.1808 C   0  0  0  0  0  0  0  0  0  0  0  0
    3.8436   -7.2758   16.0578 C   0  0  0  0  0  0  0  0  0  0  0  0
    3.1882   -9.7190   17.2566 C   0  0  0  0  0  0  0  0  0  0  0  0
    5.3488   -6.1737   26.5092 C   0  0  0  0  0  0  0  0  0  0  0  0
    7.4567   -6.9464   27.2858 C   0  0  0  0  0  0  0  0  0  0  0  0
    0.1921   -5.7592   27.1123 C   0  0  0  0  0  0  0  0  0  0  0  0
    3.5517   -7.7407   25.9711 C   0  0  0  0  0  0  0  0  0  0  0  0
  1  4  4  0
  1 22  4  0
  2 20  4  0
  2 27  4  0
  3 12  4  0
  3 23  4  0
  4 25  4  0
  4 28  1  0
  5  8  4  0
  5 17  4  0
  6  7  4  0
  6 16  4  0
  7 18  4  0
  8 27  4  0
  9 13  4  0
  9 23  4  0
 10 11  1  0
 11 14  2  0
 11 27  1  0
 12 19  1  0
 12 24  4  0
 13 24  4  0
 15 18  1  0
 16 25  4  0
 16 26  4  0
 17 20  4  0
 17 28  1  0
 18 21  4  0
 21 26  4  0
 22 26  4  0
M  END
$$$$

 Created by Python create_sdf_string function

 28 30  0  0  0  0  0  0  0  0999 V2000
    5.7174   -8.4529   26.7190 C   0  0  0  0  0  0  0  0  0  0  0  0
    0.3974   -7.0711   27.5149 C   0  0  0  0  0  0  0  0  0  0  0  0
    2.5338   -7.6891   16.0102 C   0  0  0  0  0  0  0  0  0  0  0  0
    4.8690   -7.4380   26.4151 C   0  0  0  0  0  0  0  0  0  0  0  0
    2.3021   -5.6726   26.0378 C   0  0  0  0  0  0  0  0  0  0  0  0
    7.0880   -4.6163   27.0010 C   0  0  0  0  0  0  0  0  0  0  0  0
    8.3117   -4.3698   27.4436 C   0  0  0  0  0  0  0  0  0  0  0  0
    1.1339   -5.0515   26.3541 C   0  0  0  0  0  0  0  0  0  0  0  0
    4.8080   -8.0362   16.7101 C   0  0  0  0  0  0  0  0  0  0  0  0
   -1.2173   -3.9294   26.9717 O   0  0  0  0  0  0  0  0  0  0  0  0
   -1.0025   -5.0942   27.4586 C   0  0  0  0  0  0  0  0  0  0  0  0
    2.2474   -8.9123   16.6273 C   0  0  0  0  0  0  0  0  0  0  0  0
    4.4957   -9.2636   17.3041 C   0  0  0  0  0  0  0  0  0  0  0  0
   -1.8070   -5.6086   28.1920 O   0  0  0  0  0  0  0  0  0  0  0  0
   10.4296   -5.1799   28.3140 C   0  0  0  0  0  0  0  0  0  0  0  0
    6.6017   -5.9004   26.9187 C   0  0  0  0  0  0  0  0  0  0  0  0
    2.4761   -6.9940   26.4111 N   0  0  0  0  0  0  0  0  0  0  0  0
    9.1353   -5.4053   27.8239 C   0  0  0  0  0  0  0  0  0  0  0  0
    0.9922   -9.3232   16.5995 O   0  0  0  0  0  0  0  0  0  0  0  0
    1.5232   -7.6869   27.1182 C   0  0  0  0  0  0  0  0  0  0  0  0
    8.6878   -6.6715   27.7262 N   0  0  0  0  0  0  0  0  0  0  0  0
    6.9911   -8.2423   27.1808 C   0  0  0  0  0  0  0  0  0  0  0  0
    3.8436   -7.2758   16.0578 C   0  0  0  0  0  0  0  0  0  0  0  0
    3.1882   -9.7190   17.2566 C   0  0  0  0  0  0  0  0  0  0  0  0
    5.3488   -6.1737   26.5092 C   0  0  0  0  0  0  0  0  0  0  0  0
    7.4567   -6.9464   27.2858 C   0  0  0  0  0  0  0  0  0  0  0  0
    0.1921   -5.7592   27.1123 C   0  0  0  0  0  0  0  0  0  0  0  0
    3.5517   -7.7407   25.9711 C   0  0  0  0  0  0  0  0  0  0  0  0
  1  4  4  0
  1 22  4  0
  2 20  4  0
  2 27  4  0
  3 12  4  0
  3 23  4  0
  4 25  4  0
  4 28  1  0
  5  8  4  0
  5 17  4  0
  6  7  4  0
  6 16  4  0
  7 18  4  0
  8 27  4  0
  9 13  4  0
  9 23  4  0
 10 11  1  0
 11 14  2  0
 11 27  1  0
 12 19  1  0
 12 24  4  0
 13 24  4  0
 15 18  1  0
 16 25  4  0
 16 26  4  0
 17 20  4  0
 17 28  1  0
 18 21  4  0
 21 26  4  0
 22 26  4  0
M  END
$$$$

 Created by Python create_sdf_string function

 28 30  0  0  0  0  0  0  0  0999 V2000
    5.7174   -8.4529   26.7190 C   0  0  0  0  0  0  0  0  0  0  0  0
    0.3974   -7.0711   27.5149 C   0  0  0  0  0  0  0  0  0  0  0  0
    2.5338   -7.6891   16.0102 C   0  0  0  0  0  0  0  0  0  0  0  0
    4.8690   -7.4380   26.4151 C   0  0  0  0  0  0  0  0  0  0  0  0
    2.3021   -5.6726   26.0378 C   0  0  0  0  0  0  0  0  0  0  0  0
    7.0880   -4.6163   27.0010 C   0  0  0  0  0  0  0  0  0  0  0  0
    8.3117   -4.3698   27.4436 C   0  0  0  0  0  0  0  0  0  0  0  0
    1.1339   -5.0515   26.3541 C   0  0  0  0  0  0  0  0  0  0  0  0
    4.8080   -8.0362   16.7101 C   0  0  0  0  0  0  0  0  0  0  0  0
   -1.2173   -3.9294   26.9717 O   0  0  0  0  0  0  0  0  0  0  0  0
   -1.0025   -5.0942   27.4586 C   0  0  0  0  0  0  0  0  0  0  0  0
    2.2474   -8.9123   16.6273 C   0  0  0  0  0  0  0  0  0  0  0  0
    4.4957   -9.2636   17.3041 C   0  0  0  0  0  0  0  0  0  0  0  0
   -1.8070   -5.6086   28.1920 O   0  0  0  0  0  0  0  0  0  0  0  0
   10.4296   -5.1799   28.3140 C   0  0  0  0  0  0  0  0  0  0  0  0
    6.6017   -5.9004   26.9187 C   0  0  0  0  0  0  0  0  0  0  0  0
    2.4761   -6.9940   26.4111 N   0  0  0  0  0  0  0  0  0  0  0  0
    9.1353   -5.4053   27.8239 C   0  0  0  0  0  0  0  0  0  0  0  0
    0.9922   -9.3232   16.5995 O   0  0  0  0  0  0  0  0  0  0  0  0
    1.5232   -7.6869   27.1182 C   0  0  0  0  0  0  0  0  0  0  0  0
    8.6878   -6.6715   27.7262 N   0  0  0  0  0  0  0  0  0  0  0  0
    6.9911   -8.2423   27.1808 C   0  0  0  0  0  0  0  0  0  0  0  0
    3.8436   -7.2758   16.0578 C   0  0  0  0  0  0  0  0  0  0  0  0
    3.1882   -9.7190   17.2566 C   0  0  0  0  0  0  0  0  0  0  0  0
    5.3488   -6.1737   26.5092 C   0  0  0  0  0  0  0  0  0  0  0  0
    7.4567   -6.9464   27.2858 C   0  0  0  0  0  0  0  0  0  0  0  0
    0.1921   -5.7592   27.1123 C   0  0  0  0  0  0  0  0  0  0  0  0
    3.5517   -7.7407   25.9711 C   0  0  0  0  0  0  0  0  0  0  0  0
  1  4  4  0
  1 22  4  0
  2 20  4  0
  2 27  4  0
  3 12  4  0
  3 23  4  0
  4 25  4  0
  4 28  1  0
  5  8  4  0
  5 17  4  0
  6  7  4  0
  6 16  4  0
  7 18  4  0
  8 27  4  0
  9 13  4  0
  9 23  4  0
 10 11  1  0
 11 14  2  0
 11 27  1  0
 12 19  1  0
 12 24  4  0
 13 24  4  0
 15 18  1  0
 16 25  4  0
 16 26  4  0
 17 20  4  0
 17 28  1  0
 18 21  4  0
 21 26  4  0
 22 26  4  0
M  END
$$$$

 Created by Python create_sdf_string function

 28 30  0  0  0  0  0  0  0  0999 V2000
    5.7174   -8.4529   26.7190 C   0  0  0  0  0  0  0  0  0  0  0  0
    0.3974   -7.0711   27.5149 C   0  0  0  0  0  0  0  0  0  0  0  0
    2.5338   -7.6891   16.0102 C   0  0  0  0  0  0  0  0  0  0  0  0
    4.8690   -7.4380   26.4151 C   0  0  0  0  0  0  0  0  0  0  0  0
    2.3021   -5.6726   26.0378 C   0  0  0  0  0  0  0  0  0  0  0  0
    7.0880   -4.6163   27.0010 C   0  0  0  0  0  0  0  0  0  0  0  0
    8.3117   -4.3698   27.4436 C   0  0  0  0  0  0  0  0  0  0  0  0
    1.1339   -5.0515   26.3541 C   0  0  0  0  0  0  0  0  0  0  0  0
    4.8080   -8.0362   16.7101 C   0  0  0  0  0  0  0  0  0  0  0  0
   -1.2173   -3.9294   26.9717 O   0  0  0  0  0  0  0  0  0  0  0  0
   -1.0025   -5.0942   27.4586 C   0  0  0  0  0  0  0  0  0  0  0  0
    2.2474   -8.9123   16.6273 C   0  0  0  0  0  0  0  0  0  0  0  0
    4.4957   -9.2636   17.3041 C   0  0  0  0  0  0  0  0  0  0  0  0
   -1.8070   -5.6086   28.1920 O   0  0  0  0  0  0  0  0  0  0  0  0
   10.4296   -5.1799   28.3140 C   0  0  0  0  0  0  0  0  0  0  0  0
    6.6017   -5.9004   26.9187 C   0  0  0  0  0  0  0  0  0  0  0  0
    2.4761   -6.9940   26.4111 N   0  0  0  0  0  0  0  0  0  0  0  0
    9.1353   -5.4053   27.8239 C   0  0  0  0  0  0  0  0  0  0  0  0
    0.9922   -9.3232   16.5995 O   0  0  0  0  0  0  0  0  0  0  0  0
    1.5232   -7.6869   27.1182 C   0  0  0  0  0  0  0  0  0  0  0  0
    8.6878   -6.6715   27.7262 N   0  0  0  0  0  0  0  0  0  0  0  0
    6.9911   -8.2423   27.1808 C   0  0  0  0  0  0  0  0  0  0  0  0
    3.8436   -7.2758   16.0578 C   0  0  0  0  0  0  0  0  0  0  0  0
    3.1882   -9.7190   17.2566 C   0  0  0  0  0  0  0  0  0  0  0  0
    5.3488   -6.1737   26.5092 C   0  0  0  0  0  0  0  0  0  0  0  0
    7.4567   -6.9464   27.2858 C   0  0  0  0  0  0  0  0  0  0  0  0
    0.1921   -5.7592   27.1123 C   0  0  0  0  0  0  0  0  0  0  0  0
    3.5517   -7.7407   25.9711 C   0  0  0  0  0  0  0  0  0  0  0  0
  1  4  4  0
  1 22  4  0
  2 20  4  0
  2 27  4  0
  3 12  4  0
  3 23  4  0
  4 25  4  0
  4 28  1  0
  5  8  4  0
  5 17  4  0
  6  7  4  0
  6 16  4  0
  7 18  4  0
  8 27  4  0
  9 13  4  0
  9 23  4  0
 10 11  1  0
 11 14  2  0
 11 27  1  0
 12 19  1  0
 12 24  4  0
 13 24  4  0
 15 18  1  0
 16 25  4  0
 16 26  4  0
 17 20  4  0
 17 28  1  0
 18 21  4  0
 21 26  4  0
 22 26  4  0
M  END
$$$$

 Created by Python create_sdf_string function

 28 30  0  0  0  0  0  0  0  0999 V2000
    5.7174   -8.4529   26.7190 C   0  0  0  0  0  0  0  0  0  0  0  0
    0.3974   -7.0711   27.5149 C   0  0  0  0  0  0  0  0  0  0  0  0
    2.5338   -7.6891   16.0102 C   0  0  0  0  0  0  0  0  0  0  0  0
    4.8690   -7.4380   26.4151 C   0  0  0  0  0  0  0  0  0  0  0  0
    2.3021   -5.6726   26.0378 C   0  0  0  0  0  0  0  0  0  0  0  0
    7.0880   -4.6163   27.0010 C   0  0  0  0  0  0  0  0  0  0  0  0
    8.3117   -4.3698   27.4436 C   0  0  0  0  0  0  0  0  0  0  0  0
    1.1339   -5.0515   26.3541 C   0  0  0  0  0  0  0  0  0  0  0  0
    4.8080   -8.0362   16.7101 C   0  0  0  0  0  0  0  0  0  0  0  0
   -1.2173   -3.9294   26.9717 O   0  0  0  0  0  0  0  0  0  0  0  0
   -1.0025   -5.0942   27.4586 C   0  0  0  0  0  0  0  0  0  0  0  0
    2.2474   -8.9123   16.6273 C   0  0  0  0  0  0  0  0  0  0  0  0
    4.4957   -9.2636   17.3041 C   0  0  0  0  0  0  0  0  0  0  0  0
   -1.8070   -5.6086   28.1920 O   0  0  0  0  0  0  0  0  0  0  0  0
   10.4296   -5.1799   28.3140 C   0  0  0  0  0  0  0  0  0  0  0  0
    6.6017   -5.9004   26.9187 C   0  0  0  0  0  0  0  0  0  0  0  0
    2.4761   -6.9940   26.4111 N   0  0  0  0  0  0  0  0  0  0  0  0
    9.1353   -5.4053   27.8239 C   0  0  0  0  0  0  0  0  0  0  0  0
    0.9922   -9.3232   16.5995 O   0  0  0  0  0  0  0  0  0  0  0  0
    1.5232   -7.6869   27.1182 C   0  0  0  0  0  0  0  0  0  0  0  0
    8.6878   -6.6715   27.7262 N   0  0  0  0  0  0  0  0  0  0  0  0
    6.9911   -8.2423   27.1808 C   0  0  0  0  0  0  0  0  0  0  0  0
    3.8436   -7.2758   16.0578 C   0  0  0  0  0  0  0  0  0  0  0  0
    3.1882   -9.7190   17.2566 C   0  0  0  0  0  0  0  0  0  0  0  0
    5.3488   -6.1737   26.5092 C   0  0  0  0  0  0  0  0  0  0  0  0
    7.4567   -6.9464   27.2858 C   0  0  0  0  0  0  0  0  0  0  0  0
    0.1921   -5.7592   27.1123 C   0  0  0  0  0  0  0  0  0  0  0  0
    3.5517   -7.7407   25.9711 C   0  0  0  0  0  0  0  0  0  0  0  0
  1  4  4  0
  1 22  4  0
  2 20  4  0
  2 27  4  0
  3 12  4  0
  3 23  4  0
  4 25  4  0
  4 28  1  0
  5  8  4  0
  5 17  4  0
  6  7  4  0
  6 16  4  0
  7 18  4  0
  8 27  4  0
  9 13  4  0
  9 23  4  0
 10 11  1  0
 11 14  2  0
 11 27  1  0
 12 19  1  0
 12 24  4  0
 13 24  4  0
 15 18  1  0
 16 25  4  0
 16 26  4  0
 17 20  4  0
 17 28  1  0
 18 21  4  0
 21 26  4  0
 22 26  4  0
M  END
$$$$

 Created by Python create_sdf_string function

 28 30  0  0  0  0  0  0  0  0999 V2000
    5.7174   -8.4529   26.7190 C   0  0  0  0  0  0  0  0  0  0  0  0
    0.3974   -7.0711   27.5149 C   0  0  0  0  0  0  0  0  0  0  0  0
    2.5338   -7.6891   16.0102 C   0  0  0  0  0  0  0  0  0  0  0  0
    4.8690   -7.4380   26.4151 C   0  0  0  0  0  0  0  0  0  0  0  0
    2.3021   -5.6726   26.0378 C   0  0  0  0  0  0  0  0  0  0  0  0
    7.0880   -4.6163   27.0010 C   0  0  0  0  0  0  0  0  0  0  0  0
    8.3117   -4.3698   27.4436 C   0  0  0  0  0  0  0  0  0  0  0  0
    1.1339   -5.0515   26.3541 C   0  0  0  0  0  0  0  0  0  0  0  0
    4.8080   -8.0362   16.7101 C   0  0  0  0  0  0  0  0  0  0  0  0
   -1.2173   -3.9294   26.9717 O   0  0  0  0  0  0  0  0  0  0  0  0
   -1.0025   -5.0942   27.4586 C   0  0  0  0  0  0  0  0  0  0  0  0
    2.2474   -8.9123   16.6273 C   0  0  0  0  0  0  0  0  0  0  0  0
    4.4957   -9.2636   17.3041 C   0  0  0  0  0  0  0  0  0  0  0  0
   -1.8070   -5.6086   28.1920 O   0  0  0  0  0  0  0  0  0  0  0  0
   10.4296   -5.1799   28.3140 C   0  0  0  0  0  0  0  0  0  0  0  0
    6.6017   -5.9004   26.9187 C   0  0  0  0  0  0  0  0  0  0  0  0
    2.4761   -6.9940   26.4111 N   0  0  0  0  0  0  0  0  0  0  0  0
    9.1353   -5.4053   27.8239 C   0  0  0  0  0  0  0  0  0  0  0  0
    0.9922   -9.3232   16.5995 O   0  0  0  0  0  0  0  0  0  0  0  0
    1.5232   -7.6869   27.1182 C   0  0  0  0  0  0  0  0  0  0  0  0
    8.6878   -6.6715   27.7262 N   0  0  0  0  0  0  0  0  0  0  0  0
    6.9911   -8.2423   27.1808 C   0  0  0  0  0  0  0  0  0  0  0  0
    3.8436   -7.2758   16.0578 C   0  0  0  0  0  0  0  0  0  0  0  0
    3.1882   -9.7190   17.2566 C   0  0  0  0  0  0  0  0  0  0  0  0
    5.3488   -6.1737   26.5092 C   0  0  0  0  0  0  0  0  0  0  0  0
    7.4567   -6.9464   27.2858 C   0  0  0  0  0  0  0  0  0  0  0  0
    0.1921   -5.7592   27.1123 C   0  0  0  0  0  0  0  0  0  0  0  0
    3.5517   -7.7407   25.9711 C   0  0  0  0  0  0  0  0  0  0  0  0
  1  4  4  0
  1 22  4  0
  2 20  4  0
  2 27  4  0
  3 12  4  0
  3 23  4  0
  4 25  4  0
  4 28  1  0
  5  8  4  0
  5 17  4  0
  6  7  4  0
  6 16  4  0
  7 18  4  0
  8 27  4  0
  9 13  4  0
  9 23  4  0
 10 11  1  0
 11 14  2  0
 11 27  1  0
 12 19  1  0
 12 24  4  0
 13 24  4  0
 15 18  1  0
 16 25  4  0
 16 26  4  0
 17 20  4  0
 17 28  1  0
 18 21  4  0
 21 26  4  0
 22 26  4  0
M  END
$$$$

 Created by Python create_sdf_string function

 28 30  0  0  0  0  0  0  0  0999 V2000
    5.7174   -8.4529   26.7190 C   0  0  0  0  0  0  0  0  0  0  0  0
    0.3974   -7.0711   27.5149 C   0  0  0  0  0  0  0  0  0  0  0  0
    2.5338   -7.6891   16.0102 C   0  0  0  0  0  0  0  0  0  0  0  0
    4.8690   -7.4380   26.4151 C   0  0  0  0  0  0  0  0  0  0  0  0
    2.3021   -5.6726   26.0378 C   0  0  0  0  0  0  0  0  0  0  0  0
    7.0880   -4.6163   27.0010 C   0  0  0  0  0  0  0  0  0  0  0  0
    8.3117   -4.3698   27.4436 C   0  0  0  0  0  0  0  0  0  0  0  0
    1.1339   -5.0515   26.3541 C   0  0  0  0  0  0  0  0  0  0  0  0
    4.8080   -8.0362   16.7101 C   0  0  0  0  0  0  0  0  0  0  0  0
   -1.2173   -3.9294   26.9717 O   0  0  0  0  0  0  0  0  0  0  0  0
   -1.0025   -5.0942   27.4586 C   0  0  0  0  0  0  0  0  0  0  0  0
    2.2474   -8.9123   16.6273 C   0  0  0  0  0  0  0  0  0  0  0  0
    4.4957   -9.2636   17.3041 C   0  0  0  0  0  0  0  0  0  0  0  0
   -1.8070   -5.6086   28.1920 O   0  0  0  0  0  0  0  0  0  0  0  0
   10.4296   -5.1799   28.3140 C   0  0  0  0  0  0  0  0  0  0  0  0
    6.6017   -5.9004   26.9187 C   0  0  0  0  0  0  0  0  0  0  0  0
    2.4761   -6.9940   26.4111 N   0  0  0  0  0  0  0  0  0  0  0  0
    9.1353   -5.4053   27.8239 C   0  0  0  0  0  0  0  0  0  0  0  0
    0.9922   -9.3232   16.5995 O   0  0  0  0  0  0  0  0  0  0  0  0
    1.5232   -7.6869   27.1182 C   0  0  0  0  0  0  0  0  0  0  0  0
    8.6878   -6.6715   27.7262 N   0  0  0  0  0  0  0  0  0  0  0  0
    6.9911   -8.2423   27.1808 C   0  0  0  0  0  0  0  0  0  0  0  0
    3.8436   -7.2758   16.0578 C   0  0  0  0  0  0  0  0  0  0  0  0
    3.1882   -9.7190   17.2566 C   0  0  0  0  0  0  0  0  0  0  0  0
    5.3488   -6.1737   26.5092 C   0  0  0  0  0  0  0  0  0  0  0  0
    7.4567   -6.9464   27.2858 C   0  0  0  0  0  0  0  0  0  0  0  0
    0.1921   -5.7592   27.1123 C   0  0  0  0  0  0  0  0  0  0  0  0
    3.5517   -7.7407   25.9711 C   0  0  0  0  0  0  0  0  0  0  0  0
  1  4  4  0
  1 22  4  0
  2 20  4  0
  2 27  4  0
  3 12  4  0
  3 23  4  0
  4 25  4  0
  4 28  1  0
  5  8  4  0
  5 17  4  0
  6  7  4  0
  6 16  4  0
  7 18  4  0
  8 27  4  0
  9 13  4  0
  9 23  4  0
 10 11  1  0
 11 14  2  0
 11 27  1  0
 12 19  1  0
 12 24  4  0
 13 24  4  0
 15 18  1  0
 16 25  4  0
 16 26  4  0
 17 20  4  0
 17 28  1  0
 18 21  4  0
 21 26  4  0
 22 26  4  0
M  END
$$$$

 Created by Python create_sdf_string function

 28 30  0  0  0  0  0  0  0  0999 V2000
    5.7174   -8.4529   26.7190 C   0  0  0  0  0  0  0  0  0  0  0  0
    0.3974   -7.0711   27.5149 C   0  0  0  0  0  0  0  0  0  0  0  0
    2.5338   -7.6891   16.0102 C   0  0  0  0  0  0  0  0  0  0  0  0
    4.8690   -7.4380   26.4151 C   0  0  0  0  0  0  0  0  0  0  0  0
    2.3021   -5.6726   26.0378 C   0  0  0  0  0  0  0  0  0  0  0  0
    7.0880   -4.6163   27.0010 C   0  0  0  0  0  0  0  0  0  0  0  0
    8.3117   -4.3698   27.4436 C   0  0  0  0  0  0  0  0  0  0  0  0
    1.1339   -5.0515   26.3541 C   0  0  0  0  0  0  0  0  0  0  0  0
    4.8080   -8.0362   16.7101 C   0  0  0  0  0  0  0  0  0  0  0  0
   -1.2173   -3.9294   26.9717 O   0  0  0  0  0  0  0  0  0  0  0  0
   -1.0025   -5.0942   27.4586 C   0  0  0  0  0  0  0  0  0  0  0  0
    2.2474   -8.9123   16.6273 C   0  0  0  0  0  0  0  0  0  0  0  0
    4.4957   -9.2636   17.3041 C   0  0  0  0  0  0  0  0  0  0  0  0
   -1.8070   -5.6086   28.1920 O   0  0  0  0  0  0  0  0  0  0  0  0
   10.4296   -5.1799   28.3140 C   0  0  0  0  0  0  0  0  0  0  0  0
    6.6017   -5.9004   26.9187 C   0  0  0  0  0  0  0  0  0  0  0  0
    2.4761   -6.9940   26.4111 N   0  0  0  0  0  0  0  0  0  0  0  0
    9.1353   -5.4053   27.8239 C   0  0  0  0  0  0  0  0  0  0  0  0
    0.9922   -9.3232   16.5995 O   0  0  0  0  0  0  0  0  0  0  0  0
    1.5232   -7.6869   27.1182 C   0  0  0  0  0  0  0  0  0  0  0  0
    8.6878   -6.6715   27.7262 N   0  0  0  0  0  0  0  0  0  0  0  0
    6.9911   -8.2423   27.1808 C   0  0  0  0  0  0  0  0  0  0  0  0
    3.8436   -7.2758   16.0578 C   0  0  0  0  0  0  0  0  0  0  0  0
    3.1882   -9.7190   17.2566 C   0  0  0  0  0  0  0  0  0  0  0  0
    5.3488   -6.1737   26.5092 C   0  0  0  0  0  0  0  0  0  0  0  0
    7.4567   -6.9464   27.2858 C   0  0  0  0  0  0  0  0  0  0  0  0
    0.1921   -5.7592   27.1123 C   0  0  0  0  0  0  0  0  0  0  0  0
    3.5517   -7.7407   25.9711 C   0  0  0  0  0  0  0  0  0  0  0  0
  1  4  4  0
  1 22  4  0
  2 20  4  0
  2 27  4  0
  3 12  4  0
  3 23  4  0
  4 25  4  0
  4 28  1  0
  5  8  4  0
  5 17  4  0
  6  7  4  0
  6 16  4  0
  7 18  4  0
  8 27  4  0
  9 13  4  0
  9 23  4  0
 10 11  1  0
 11 14  2  0
 11 27  1  0
 12 19  1  0
 12 24  4  0
 13 24  4  0
 15 18  1  0
 16 25  4  0
 16 26  4  0
 17 20  4  0
 17 28  1  0
 18 21  4  0
 21 26  4  0
 22 26  4  0
M  END
$$$$

 Created by Python create_sdf_string function

 28 30  0  0  0  0  0  0  0  0999 V2000
    5.7174   -8.4529   26.7190 C   0  0  0  0  0  0  0  0  0  0  0  0
    0.3974   -7.0711   27.5149 C   0  0  0  0  0  0  0  0  0  0  0  0
    2.5338   -7.6891   16.0102 C   0  0  0  0  0  0  0  0  0  0  0  0
    4.8690   -7.4380   26.4151 C   0  0  0  0  0  0  0  0  0  0  0  0
    2.3021   -5.6726   26.0378 C   0  0  0  0  0  0  0  0  0  0  0  0
    7.0880   -4.6163   27.0010 C   0  0  0  0  0  0  0  0  0  0  0  0
    8.3117   -4.3698   27.4436 C   0  0  0  0  0  0  0  0  0  0  0  0
    1.1339   -5.0515   26.3541 C   0  0  0  0  0  0  0  0  0  0  0  0
    4.8080   -8.0362   16.7101 C   0  0  0  0  0  0  0  0  0  0  0  0
   -1.2173   -3.9294   26.9717 O   0  0  0  0  0  0  0  0  0  0  0  0
   -1.0025   -5.0942   27.4586 C   0  0  0  0  0  0  0  0  0  0  0  0
    2.2474   -8.9123   16.6273 C   0  0  0  0  0  0  0  0  0  0  0  0
    4.4957   -9.2636   17.3041 C   0  0  0  0  0  0  0  0  0  0  0  0
   -1.8070   -5.6086   28.1920 O   0  0  0  0  0  0  0  0  0  0  0  0
   10.4296   -5.1799   28.3140 C   0  0  0  0  0  0  0  0  0  0  0  0
    6.6017   -5.9004   26.9187 C   0  0  0  0  0  0  0  0  0  0  0  0
    2.4761   -6.9940   26.4111 N   0  0  0  0  0  0  0  0  0  0  0  0
    9.1353   -5.4053   27.8239 C   0  0  0  0  0  0  0  0  0  0  0  0
    0.9922   -9.3232   16.5995 O   0  0  0  0  0  0  0  0  0  0  0  0
    1.5232   -7.6869   27.1182 C   0  0  0  0  0  0  0  0  0  0  0  0
    8.6878   -6.6715   27.7262 N   0  0  0  0  0  0  0  0  0  0  0  0
    6.9911   -8.2423   27.1808 C   0  0  0  0  0  0  0  0  0  0  0  0
    3.8436   -7.2758   16.0578 C   0  0  0  0  0  0  0  0  0  0  0  0
    3.1882   -9.7190   17.2566 C   0  0  0  0  0  0  0  0  0  0  0  0
    5.3488   -6.1737   26.5092 C   0  0  0  0  0  0  0  0  0  0  0  0
    7.4567   -6.9464   27.2858 C   0  0  0  0  0  0  0  0  0  0  0  0
    0.1921   -5.7592   27.1123 C   0  0  0  0  0  0  0  0  0  0  0  0
    3.5517   -7.7407   25.9711 C   0  0  0  0  0  0  0  0  0  0  0  0
  1  4  4  0
  1 22  4  0
  2 20  4  0
  2 27  4  0
  3 12  4  0
  3 23  4  0
  4 25  4  0
  4 28  1  0
  5  8  4  0
  5 17  4  0
  6  7  4  0
  6 16  4  0
  7 18  4  0
  8 27  4  0
  9 13  4  0
  9 23  4  0
 10 11  1  0
 11 14  2  0
 11 27  1  0
 12 19  1  0
 12 24  4  0
 13 24  4  0
 15 18  1  0
 16 25  4  0
 16 26  4  0
 17 20  4  0
 17 28  1  0
 18 21  4  0
 21 26  4  0
 22 26  4  0
M  END
$$$$

 Created by Python create_sdf_string function

 28 30  0  0  0  0  0  0  0  0999 V2000
    5.7174   -8.4529   26.7190 C   0  0  0  0  0  0  0  0  0  0  0  0
    0.3974   -7.0711   27.5149 C   0  0  0  0  0  0  0  0  0  0  0  0
    2.5338   -7.6891   16.0102 C   0  0  0  0  0  0  0  0  0  0  0  0
    4.8690   -7.4380   26.4151 C   0  0  0  0  0  0  0  0  0  0  0  0
    2.3021   -5.6726   26.0378 C   0  0  0  0  0  0  0  0  0  0  0  0
    7.0880   -4.6163   27.0010 C   0  0  0  0  0  0  0  0  0  0  0  0
    8.3117   -4.3698   27.4436 C   0  0  0  0  0  0  0  0  0  0  0  0
    1.1339   -5.0515   26.3541 C   0  0  0  0  0  0  0  0  0  0  0  0
    4.8080   -8.0362   16.7101 C   0  0  0  0  0  0  0  0  0  0  0  0
   -1.2173   -3.9294   26.9717 O   0  0  0  0  0  0  0  0  0  0  0  0
   -1.0025   -5.0942   27.4586 C   0  0  0  0  0  0  0  0  0  0  0  0
    2.2474   -8.9123   16.6273 C   0  0  0  0  0  0  0  0  0  0  0  0
    4.4957   -9.2636   17.3041 C   0  0  0  0  0  0  0  0  0  0  0  0
   -1.8070   -5.6086   28.1920 O   0  0  0  0  0  0  0  0  0  0  0  0
   10.4296   -5.1799   28.3140 C   0  0  0  0  0  0  0  0  0  0  0  0
    6.6017   -5.9004   26.9187 C   0  0  0  0  0  0  0  0  0  0  0  0
    2.4761   -6.9940   26.4111 N   0  0  0  0  0  0  0  0  0  0  0  0
    9.1353   -5.4053   27.8239 C   0  0  0  0  0  0  0  0  0  0  0  0
    0.9922   -9.3232   16.5995 O   0  0  0  0  0  0  0  0  0  0  0  0
    1.5232   -7.6869   27.1182 C   0  0  0  0  0  0  0  0  0  0  0  0
    8.6878   -6.6715   27.7262 N   0  0  0  0  0  0  0  0  0  0  0  0
    6.9911   -8.2423   27.1808 C   0  0  0  0  0  0  0  0  0  0  0  0
    3.8436   -7.2758   16.0578 C   0  0  0  0  0  0  0  0  0  0  0  0
    3.1882   -9.7190   17.2566 C   0  0  0  0  0  0  0  0  0  0  0  0
    5.3488   -6.1737   26.5092 C   0  0  0  0  0  0  0  0  0  0  0  0
    7.4567   -6.9464   27.2858 C   0  0  0  0  0  0  0  0  0  0  0  0
    0.1921   -5.7592   27.1123 C   0  0  0  0  0  0  0  0  0  0  0  0
    3.5517   -7.7407   25.9711 C   0  0  0  0  0  0  0  0  0  0  0  0
  1  4  4  0
  1 22  4  0
  2 20  4  0
  2 27  4  0
  3 12  4  0
  3 23  4  0
  4 25  4  0
  4 28  1  0
  5  8  4  0
  5 17  4  0
  6  7  4  0
  6 16  4  0
  7 18  4  0
  8 27  4  0
  9 13  4  0
  9 23  4  0
 10 11  1  0
 11 14  2  0
 11 27  1  0
 12 19  1  0
 12 24  4  0
 13 24  4  0
 15 18  1  0
 16 25  4  0
 16 26  4  0
 17 20  4  0
 17 28  1  0
 18 21  4  0
 21 26  4  0
 22 26  4  0
M  END
$$$$

 Created by Python create_sdf_string function

 28 30  0  0  0  0  0  0  0  0999 V2000
    5.7174   -8.4529   26.7190 C   0  0  0  0  0  0  0  0  0  0  0  0
    0.3974   -7.0711   27.5149 C   0  0  0  0  0  0  0  0  0  0  0  0
    2.5338   -7.6891   16.0102 C   0  0  0  0  0  0  0  0  0  0  0  0
    4.8690   -7.4380   26.4151 C   0  0  0  0  0  0  0  0  0  0  0  0
    2.3021   -5.6726   26.0378 C   0  0  0  0  0  0  0  0  0  0  0  0
    7.0880   -4.6163   27.0010 C   0  0  0  0  0  0  0  0  0  0  0  0
    8.3117   -4.3698   27.4436 C   0  0  0  0  0  0  0  0  0  0  0  0
    1.1339   -5.0515   26.3541 C   0  0  0  0  0  0  0  0  0  0  0  0
    4.8080   -8.0362   16.7101 C   0  0  0  0  0  0  0  0  0  0  0  0
   -1.2173   -3.9294   26.9717 O   0  0  0  0  0  0  0  0  0  0  0  0
   -1.0025   -5.0942   27.4586 C   0  0  0  0  0  0  0  0  0  0  0  0
    2.2474   -8.9123   16.6273 C   0  0  0  0  0  0  0  0  0  0  0  0
    4.4957   -9.2636   17.3041 C   0  0  0  0  0  0  0  0  0  0  0  0
   -1.8070   -5.6086   28.1920 O   0  0  0  0  0  0  0  0  0  0  0  0
   10.4296   -5.1799   28.3140 C   0  0  0  0  0  0  0  0  0  0  0  0
    6.6017   -5.9004   26.9187 C   0  0  0  0  0  0  0  0  0  0  0  0
    2.4761   -6.9940   26.4111 N   0  0  0  0  0  0  0  0  0  0  0  0
    9.1353   -5.4053   27.8239 C   0  0  0  0  0  0  0  0  0  0  0  0
    0.9922   -9.3232   16.5995 O   0  0  0  0  0  0  0  0  0  0  0  0
    1.5232   -7.6869   27.1182 C   0  0  0  0  0  0  0  0  0  0  0  0
    8.6878   -6.6715   27.7262 N   0  0  0  0  0  0  0  0  0  0  0  0
    6.9911   -8.2423   27.1808 C   0  0  0  0  0  0  0  0  0  0  0  0
    3.8436   -7.2758   16.0578 C   0  0  0  0  0  0  0  0  0  0  0  0
    3.1882   -9.7190   17.2566 C   0  0  0  0  0  0  0  0  0  0  0  0
    5.3488   -6.1737   26.5092 C   0  0  0  0  0  0  0  0  0  0  0  0
    7.4567   -6.9464   27.2858 C   0  0  0  0  0  0  0  0  0  0  0  0
    0.1921   -5.7592   27.1123 C   0  0  0  0  0  0  0  0  0  0  0  0
    3.5517   -7.7407   25.9711 C   0  0  0  0  0  0  0  0  0  0  0  0
  1  4  4  0
  1 22  4  0
  2 20  4  0
  2 27  4  0
  3 12  4  0
  3 23  4  0
  4 25  4  0
  4 28  1  0
  5  8  4  0
  5 17  4  0
  6  7  4  0
  6 16  4  0
  7 18  4  0
  8 27  4  0
  9 13  4  0
  9 23  4  0
 10 11  1  0
 11 14  2  0
 11 27  1  0
 12 19  1  0
 12 24  4  0
 13 24  4  0
 15 18  1  0
 16 25  4  0
 16 26  4  0
 17 20  4  0
 17 28  1  0
 18 21  4  0
 21 26  4  0
 22 26  4  0
M  END
$$$$

 Created by Python create_sdf_string function

 28 30  0  0  0  0  0  0  0  0999 V2000
    5.7174   -8.4529   26.7190 C   0  0  0  0  0  0  0  0  0  0  0  0
    0.3974   -7.0711   27.5149 C   0  0  0  0  0  0  0  0  0  0  0  0
    2.5338   -7.6891   16.0102 C   0  0  0  0  0  0  0  0  0  0  0  0
    4.8690   -7.4380   26.4151 C   0  0  0  0  0  0  0  0  0  0  0  0
    2.3021   -5.6726   26.0378 C   0  0  0  0  0  0  0  0  0  0  0  0
    7.0880   -4.6163   27.0010 C   0  0  0  0  0  0  0  0  0  0  0  0
    8.3117   -4.3698   27.4436 C   0  0  0  0  0  0  0  0  0  0  0  0
    1.1339   -5.0515   26.3541 C   0  0  0  0  0  0  0  0  0  0  0  0
    4.8080   -8.0362   16.7101 C   0  0  0  0  0  0  0  0  0  0  0  0
   -1.2173   -3.9294   26.9717 O   0  0  0  0  0  0  0  0  0  0  0  0
   -1.0025   -5.0942   27.4586 C   0  0  0  0  0  0  0  0  0  0  0  0
    2.2474   -8.9123   16.6273 C   0  0  0  0  0  0  0  0  0  0  0  0
    4.4957   -9.2636   17.3041 C   0  0  0  0  0  0  0  0  0  0  0  0
   -1.8070   -5.6086   28.1920 O   0  0  0  0  0  0  0  0  0  0  0  0
   10.4296   -5.1799   28.3140 C   0  0  0  0  0  0  0  0  0  0  0  0
    6.6017   -5.9004   26.9187 C   0  0  0  0  0  0  0  0  0  0  0  0
    2.4761   -6.9940   26.4111 N   0  0  0  0  0  0  0  0  0  0  0  0
    9.1353   -5.4053   27.8239 C   0  0  0  0  0  0  0  0  0  0  0  0
    0.9922   -9.3232   16.5995 O   0  0  0  0  0  0  0  0  0  0  0  0
    1.5232   -7.6869   27.1182 C   0  0  0  0  0  0  0  0  0  0  0  0
    8.6878   -6.6715   27.7262 N   0  0  0  0  0  0  0  0  0  0  0  0
    6.9911   -8.2423   27.1808 C   0  0  0  0  0  0  0  0  0  0  0  0
    3.8436   -7.2758   16.0578 C   0  0  0  0  0  0  0  0  0  0  0  0
    3.1882   -9.7190   17.2566 C   0  0  0  0  0  0  0  0  0  0  0  0
    5.3488   -6.1737   26.5092 C   0  0  0  0  0  0  0  0  0  0  0  0
    7.4567   -6.9464   27.2858 C   0  0  0  0  0  0  0  0  0  0  0  0
    0.1921   -5.7592   27.1123 C   0  0  0  0  0  0  0  0  0  0  0  0
    3.5517   -7.7407   25.9711 C   0  0  0  0  0  0  0  0  0  0  0  0
  1  4  4  0
  1 22  4  0
  2 20  4  0
  2 27  4  0
  3 12  4  0
  3 23  4  0
  4 25  4  0
  4 28  1  0
  5  8  4  0
  5 17  4  0
  6  7  4  0
  6 16  4  0
  7 18  4  0
  8 27  4  0
  9 13  4  0
  9 23  4  0
 10 11  1  0
 11 14  2  0
 11 27  1  0
 12 19  1  0
 12 24  4  0
 13 24  4  0
 15 18  1  0
 16 25  4  0
 16 26  4  0
 17 20  4  0
 17 28  1  0
 18 21  4  0
 21 26  4  0
 22 26  4  0
M  END
$$$$

 Created by Python create_sdf_string function

 28 30  0  0  0  0  0  0  0  0999 V2000
    5.7174   -8.4529   26.7190 C   0  0  0  0  0  0  0  0  0  0  0  0
    0.3974   -7.0711   27.5149 C   0  0  0  0  0  0  0  0  0  0  0  0
    2.5338   -7.6891   16.0102 C   0  0  0  0  0  0  0  0  0  0  0  0
    4.8690   -7.4380   26.4151 C   0  0  0  0  0  0  0  0  0  0  0  0
    2.3021   -5.6726   26.0378 C   0  0  0  0  0  0  0  0  0  0  0  0
    7.0880   -4.6163   27.0010 C   0  0  0  0  0  0  0  0  0  0  0  0
    8.3117   -4.3698   27.4436 C   0  0  0  0  0  0  0  0  0  0  0  0
    1.1339   -5.0515   26.3541 C   0  0  0  0  0  0  0  0  0  0  0  0
    4.8080   -8.0362   16.7101 C   0  0  0  0  0  0  0  0  0  0  0  0
   -1.2173   -3.9294   26.9717 O   0  0  0  0  0  0  0  0  0  0  0  0
   -1.0025   -5.0942   27.4586 C   0  0  0  0  0  0  0  0  0  0  0  0
    2.2474   -8.9123   16.6273 C   0  0  0  0  0  0  0  0  0  0  0  0
    4.4957   -9.2636   17.3041 C   0  0  0  0  0  0  0  0  0  0  0  0
   -1.8070   -5.6086   28.1920 O   0  0  0  0  0  0  0  0  0  0  0  0
   10.4296   -5.1799   28.3140 C   0  0  0  0  0  0  0  0  0  0  0  0
    6.6017   -5.9004   26.9187 C   0  0  0  0  0  0  0  0  0  0  0  0
    2.4761   -6.9940   26.4111 N   0  0  0  0  0  0  0  0  0  0  0  0
    9.1353   -5.4053   27.8239 C   0  0  0  0  0  0  0  0  0  0  0  0
    0.9922   -9.3232   16.5995 O   0  0  0  0  0  0  0  0  0  0  0  0
    1.5232   -7.6869   27.1182 C   0  0  0  0  0  0  0  0  0  0  0  0
    8.6878   -6.6715   27.7262 N   0  0  0  0  0  0  0  0  0  0  0  0
    6.9911   -8.2423   27.1808 C   0  0  0  0  0  0  0  0  0  0  0  0
    3.8436   -7.2758   16.0578 C   0  0  0  0  0  0  0  0  0  0  0  0
    3.1882   -9.7190   17.2566 C   0  0  0  0  0  0  0  0  0  0  0  0
    5.3488   -6.1737   26.5092 C   0  0  0  0  0  0  0  0  0  0  0  0
    7.4567   -6.9464   27.2858 C   0  0  0  0  0  0  0  0  0  0  0  0
    0.1921   -5.7592   27.1123 C   0  0  0  0  0  0  0  0  0  0  0  0
    3.5517   -7.7407   25.9711 C   0  0  0  0  0  0  0  0  0  0  0  0
  1  4  4  0
  1 22  4  0
  2 20  4  0
  2 27  4  0
  3 12  4  0
  3 23  4  0
  4 25  4  0
  4 28  1  0
  5  8  4  0
  5 17  4  0
  6  7  4  0
  6 16  4  0
  7 18  4  0
  8 27  4  0
  9 13  4  0
  9 23  4  0
 10 11  1  0
 11 14  2  0
 11 27  1  0
 12 19  1  0
 12 24  4  0
 13 24  4  0
 15 18  1  0
 16 25  4  0
 16 26  4  0
 17 20  4  0
 17 28  1  0
 18 21  4  0
 21 26  4  0
 22 26  4  0
M  END
$$$$

 Created by Python create_sdf_string function

 28 30  0  0  0  0  0  0  0  0999 V2000
    5.7174   -8.4529   26.7190 C   0  0  0  0  0  0  0  0  0  0  0  0
    0.3974   -7.0711   27.5149 C   0  0  0  0  0  0  0  0  0  0  0  0
    2.5338   -7.6891   16.0102 C   0  0  0  0  0  0  0  0  0  0  0  0
    4.8690   -7.4380   26.4151 C   0  0  0  0  0  0  0  0  0  0  0  0
    2.3021   -5.6726   26.0378 C   0  0  0  0  0  0  0  0  0  0  0  0
    7.0880   -4.6163   27.0010 C   0  0  0  0  0  0  0  0  0  0  0  0
    8.3117   -4.3698   27.4436 C   0  0  0  0  0  0  0  0  0  0  0  0
    1.1339   -5.0515   26.3541 C   0  0  0  0  0  0  0  0  0  0  0  0
    4.8080   -8.0362   16.7101 C   0  0  0  0  0  0  0  0  0  0  0  0
   -1.2173   -3.9294   26.9717 O   0  0  0  0  0  0  0  0  0  0  0  0
   -1.0025   -5.0942   27.4586 C   0  0  0  0  0  0  0  0  0  0  0  0
    2.2474   -8.9123   16.6273 C   0  0  0  0  0  0  0  0  0  0  0  0
    4.4957   -9.2636   17.3041 C   0  0  0  0  0  0  0  0  0  0  0  0
   -1.8070   -5.6086   28.1920 O   0  0  0  0  0  0  0  0  0  0  0  0
   10.4296   -5.1799   28.3140 C   0  0  0  0  0  0  0  0  0  0  0  0
    6.6017   -5.9004   26.9187 C   0  0  0  0  0  0  0  0  0  0  0  0
    2.4761   -6.9940   26.4111 N   0  0  0  0  0  0  0  0  0  0  0  0
    9.1353   -5.4053   27.8239 C   0  0  0  0  0  0  0  0  0  0  0  0
    0.9922   -9.3232   16.5995 O   0  0  0  0  0  0  0  0  0  0  0  0
    1.5232   -7.6869   27.1182 C   0  0  0  0  0  0  0  0  0  0  0  0
    8.6878   -6.6715   27.7262 N   0  0  0  0  0  0  0  0  0  0  0  0
    6.9911   -8.2423   27.1808 C   0  0  0  0  0  0  0  0  0  0  0  0
    3.8436   -7.2758   16.0578 C   0  0  0  0  0  0  0  0  0  0  0  0
    3.1882   -9.7190   17.2566 C   0  0  0  0  0  0  0  0  0  0  0  0
    5.3488   -6.1737   26.5092 C   0  0  0  0  0  0  0  0  0  0  0  0
    7.4567   -6.9464   27.2858 C   0  0  0  0  0  0  0  0  0  0  0  0
    0.1921   -5.7592   27.1123 C   0  0  0  0  0  0  0  0  0  0  0  0
    3.5517   -7.7407   25.9711 C   0  0  0  0  0  0  0  0  0  0  0  0
  1  4  4  0
  1 22  4  0
  2 20  4  0
  2 27  4  0
  3 12  4  0
  3 23  4  0
  4 25  4  0
  4 28  1  0
  5  8  4  0
  5 17  4  0
  6  7  4  0
  6 16  4  0
  7 18  4  0
  8 27  4  0
  9 13  4  0
  9 23  4  0
 10 11  1  0
 11 14  2  0
 11 27  1  0
 12 19  1  0
 12 24  4  0
 13 24  4  0
 15 18  1  0
 16 25  4  0
 16 26  4  0
 17 20  4  0
 17 28  1  0
 18 21  4  0
 21 26  4  0
 22 26  4  0
M  END
$$$$

 Created by Python create_sdf_string function

 28 30  0  0  0  0  0  0  0  0999 V2000
    5.7174   -8.4529   26.7190 C   0  0  0  0  0  0  0  0  0  0  0  0
    0.3974   -7.0711   27.5149 C   0  0  0  0  0  0  0  0  0  0  0  0
    2.5338   -7.6891   16.0102 C   0  0  0  0  0  0  0  0  0  0  0  0
    4.8690   -7.4380   26.4151 C   0  0  0  0  0  0  0  0  0  0  0  0
    2.3021   -5.6726   26.0378 C   0  0  0  0  0  0  0  0  0  0  0  0
    7.0880   -4.6163   27.0010 C   0  0  0  0  0  0  0  0  0  0  0  0
    8.3117   -4.3698   27.4436 C   0  0  0  0  0  0  0  0  0  0  0  0
    1.1339   -5.0515   26.3541 C   0  0  0  0  0  0  0  0  0  0  0  0
    4.8080   -8.0362   16.7101 C   0  0  0  0  0  0  0  0  0  0  0  0
   -1.2173   -3.9294   26.9717 O   0  0  0  0  0  0  0  0  0  0  0  0
   -1.0025   -5.0942   27.4586 C   0  0  0  0  0  0  0  0  0  0  0  0
    2.2474   -8.9123   16.6273 C   0  0  0  0  0  0  0  0  0  0  0  0
    4.4957   -9.2636   17.3041 C   0  0  0  0  0  0  0  0  0  0  0  0
   -1.8070   -5.6086   28.1920 O   0  0  0  0  0  0  0  0  0  0  0  0
   10.4296   -5.1799   28.3140 C   0  0  0  0  0  0  0  0  0  0  0  0
    6.6017   -5.9004   26.9187 C   0  0  0  0  0  0  0  0  0  0  0  0
    2.4761   -6.9940   26.4111 N   0  0  0  0  0  0  0  0  0  0  0  0
    9.1353   -5.4053   27.8239 C   0  0  0  0  0  0  0  0  0  0  0  0
    0.9922   -9.3232   16.5995 O   0  0  0  0  0  0  0  0  0  0  0  0
    1.5232   -7.6869   27.1182 C   0  0  0  0  0  0  0  0  0  0  0  0
    8.6878   -6.6715   27.7262 N   0  0  0  0  0  0  0  0  0  0  0  0
    6.9911   -8.2423   27.1808 C   0  0  0  0  0  0  0  0  0  0  0  0
    3.8436   -7.2758   16.0578 C   0  0  0  0  0  0  0  0  0  0  0  0
    3.1882   -9.7190   17.2566 C   0  0  0  0  0  0  0  0  0  0  0  0
    5.3488   -6.1737   26.5092 C   0  0  0  0  0  0  0  0  0  0  0  0
    7.4567   -6.9464   27.2858 C   0  0  0  0  0  0  0  0  0  0  0  0
    0.1921   -5.7592   27.1123 C   0  0  0  0  0  0  0  0  0  0  0  0
    3.5517   -7.7407   25.9711 C   0  0  0  0  0  0  0  0  0  0  0  0
  1  4  4  0
  1 22  4  0
  2 20  4  0
  2 27  4  0
  3 12  4  0
  3 23  4  0
  4 25  4  0
  4 28  1  0
  5  8  4  0
  5 17  4  0
  6  7  4  0
  6 16  4  0
  7 18  4  0
  8 27  4  0
  9 13  4  0
  9 23  4  0
 10 11  1  0
 11 14  2  0
 11 27  1  0
 12 19  1  0
 12 24  4  0
 13 24  4  0
 15 18  1  0
 16 25  4  0
 16 26  4  0
 17 20  4  0
 17 28  1  0
 18 21  4  0
 21 26  4  0
 22 26  4  0
M  END
$$$$

 Created by Python create_sdf_string function

 28 30  0  0  0  0  0  0  0  0999 V2000
    5.7174   -8.4529   26.7190 C   0  0  0  0  0  0  0  0  0  0  0  0
    0.3974   -7.0711   27.5149 C   0  0  0  0  0  0  0  0  0  0  0  0
    2.5338   -7.6891   16.0102 C   0  0  0  0  0  0  0  0  0  0  0  0
    4.8690   -7.4380   26.4151 C   0  0  0  0  0  0  0  0  0  0  0  0
    2.3021   -5.6726   26.0378 C   0  0  0  0  0  0  0  0  0  0  0  0
    7.0880   -4.6163   27.0010 C   0  0  0  0  0  0  0  0  0  0  0  0
    8.3117   -4.3698   27.4436 C   0  0  0  0  0  0  0  0  0  0  0  0
    1.1339   -5.0515   26.3541 C   0  0  0  0  0  0  0  0  0  0  0  0
    4.8080   -8.0362   16.7101 C   0  0  0  0  0  0  0  0  0  0  0  0
   -1.2173   -3.9294   26.9717 O   0  0  0  0  0  0  0  0  0  0  0  0
   -1.0025   -5.0942   27.4586 C   0  0  0  0  0  0  0  0  0  0  0  0
    2.2474   -8.9123   16.6273 C   0  0  0  0  0  0  0  0  0  0  0  0
    4.4957   -9.2636   17.3041 C   0  0  0  0  0  0  0  0  0  0  0  0
   -1.8070   -5.6086   28.1920 O   0  0  0  0  0  0  0  0  0  0  0  0
   10.4296   -5.1799   28.3140 C   0  0  0  0  0  0  0  0  0  0  0  0
    6.6017   -5.9004   26.9187 C   0  0  0  0  0  0  0  0  0  0  0  0
    2.4761   -6.9940   26.4111 N   0  0  0  0  0  0  0  0  0  0  0  0
    9.1353   -5.4053   27.8239 C   0  0  0  0  0  0  0  0  0  0  0  0
    0.9922   -9.3232   16.5995 O   0  0  0  0  0  0  0  0  0  0  0  0
    1.5232   -7.6869   27.1182 C   0  0  0  0  0  0  0  0  0  0  0  0
    8.6878   -6.6715   27.7262 N   0  0  0  0  0  0  0  0  0  0  0  0
    6.9911   -8.2423   27.1808 C   0  0  0  0  0  0  0  0  0  0  0  0
    3.8436   -7.2758   16.0578 C   0  0  0  0  0  0  0  0  0  0  0  0
    3.1882   -9.7190   17.2566 C   0  0  0  0  0  0  0  0  0  0  0  0
    5.3488   -6.1737   26.5092 C   0  0  0  0  0  0  0  0  0  0  0  0
    7.4567   -6.9464   27.2858 C   0  0  0  0  0  0  0  0  0  0  0  0
    0.1921   -5.7592   27.1123 C   0  0  0  0  0  0  0  0  0  0  0  0
    3.5517   -7.7407   25.9711 C   0  0  0  0  0  0  0  0  0  0  0  0
  1  4  4  0
  1 22  4  0
  2 20  4  0
  2 27  4  0
  3 12  4  0
  3 23  4  0
  4 25  4  0
  4 28  1  0
  5  8  4  0
  5 17  4  0
  6  7  4  0
  6 16  4  0
  7 18  4  0
  8 27  4  0
  9 13  4  0
  9 23  4  0
 10 11  1  0
 11 14  2  0
 11 27  1  0
 12 19  1  0
 12 24  4  0
 13 24  4  0
 15 18  1  0
 16 25  4  0
 16 26  4  0
 17 20  4  0
 17 28  1  0
 18 21  4  0
 21 26  4  0
 22 26  4  0
M  END
$$$$

 Created by Python create_sdf_string function

 28 30  0  0  0  0  0  0  0  0999 V2000
    5.7174   -8.4529   26.7190 C   0  0  0  0  0  0  0  0  0  0  0  0
    0.3974   -7.0711   27.5149 C   0  0  0  0  0  0  0  0  0  0  0  0
    2.5338   -7.6891   16.0102 C   0  0  0  0  0  0  0  0  0  0  0  0
    4.8690   -7.4380   26.4151 C   0  0  0  0  0  0  0  0  0  0  0  0
    2.3021   -5.6726   26.0378 C   0  0  0  0  0  0  0  0  0  0  0  0
    7.0880   -4.6163   27.0010 C   0  0  0  0  0  0  0  0  0  0  0  0
    8.3117   -4.3698   27.4436 C   0  0  0  0  0  0  0  0  0  0  0  0
    1.1339   -5.0515   26.3541 C   0  0  0  0  0  0  0  0  0  0  0  0
    4.8080   -8.0362   16.7101 C   0  0  0  0  0  0  0  0  0  0  0  0
   -1.2173   -3.9294   26.9717 O   0  0  0  0  0  0  0  0  0  0  0  0
   -1.0025   -5.0942   27.4586 C   0  0  0  0  0  0  0  0  0  0  0  0
    2.2474   -8.9123   16.6273 C   0  0  0  0  0  0  0  0  0  0  0  0
    4.4957   -9.2636   17.3041 C   0  0  0  0  0  0  0  0  0  0  0  0
   -1.8070   -5.6086   28.1920 O   0  0  0  0  0  0  0  0  0  0  0  0
   10.4296   -5.1799   28.3140 C   0  0  0  0  0  0  0  0  0  0  0  0
    6.6017   -5.9004   26.9187 C   0  0  0  0  0  0  0  0  0  0  0  0
    2.4761   -6.9940   26.4111 N   0  0  0  0  0  0  0  0  0  0  0  0
    9.1353   -5.4053   27.8239 C   0  0  0  0  0  0  0  0  0  0  0  0
    0.9922   -9.3232   16.5995 O   0  0  0  0  0  0  0  0  0  0  0  0
    1.5232   -7.6869   27.1182 C   0  0  0  0  0  0  0  0  0  0  0  0
    8.6878   -6.6715   27.7262 N   0  0  0  0  0  0  0  0  0  0  0  0
    6.9911   -8.2423   27.1808 C   0  0  0  0  0  0  0  0  0  0  0  0
    3.8436   -7.2758   16.0578 C   0  0  0  0  0  0  0  0  0  0  0  0
    3.1882   -9.7190   17.2566 C   0  0  0  0  0  0  0  0  0  0  0  0
    5.3488   -6.1737   26.5092 C   0  0  0  0  0  0  0  0  0  0  0  0
    7.4567   -6.9464   27.2858 C   0  0  0  0  0  0  0  0  0  0  0  0
    0.1921   -5.7592   27.1123 C   0  0  0  0  0  0  0  0  0  0  0  0
    3.5517   -7.7407   25.9711 C   0  0  0  0  0  0  0  0  0  0  0  0
  1  4  4  0
  1 22  4  0
  2 20  4  0
  2 27  4  0
  3 12  4  0
  3 23  4  0
  4 25  4  0
  4 28  1  0
  5  8  4  0
  5 17  4  0
  6  7  4  0
  6 16  4  0
  7 18  4  0
  8 27  4  0
  9 13  4  0
  9 23  4  0
 10 11  1  0
 11 14  2  0
 11 27  1  0
 12 19  1  0
 12 24  4  0
 13 24  4  0
 15 18  1  0
 16 25  4  0
 16 26  4  0
 17 20  4  0
 17 28  1  0
 18 21  4  0
 21 26  4  0
 22 26  4  0
M  END
$$$$

 Created by Python create_sdf_string function

 28 30  0  0  0  0  0  0  0  0999 V2000
    5.7174   -8.4529   26.7190 C   0  0  0  0  0  0  0  0  0  0  0  0
    0.3974   -7.0711   27.5149 C   0  0  0  0  0  0  0  0  0  0  0  0
    2.5338   -7.6891   16.0102 C   0  0  0  0  0  0  0  0  0  0  0  0
    4.8690   -7.4380   26.4151 C   0  0  0  0  0  0  0  0  0  0  0  0
    2.3021   -5.6726   26.0378 C   0  0  0  0  0  0  0  0  0  0  0  0
    7.0880   -4.6163   27.0010 C   0  0  0  0  0  0  0  0  0  0  0  0
    8.3117   -4.3698   27.4436 C   0  0  0  0  0  0  0  0  0  0  0  0
    1.1339   -5.0515   26.3541 C   0  0  0  0  0  0  0  0  0  0  0  0
    4.8080   -8.0362   16.7101 C   0  0  0  0  0  0  0  0  0  0  0  0
   -1.2173   -3.9294   26.9717 O   0  0  0  0  0  0  0  0  0  0  0  0
   -1.0025   -5.0942   27.4586 C   0  0  0  0  0  0  0  0  0  0  0  0
    2.2474   -8.9123   16.6273 C   0  0  0  0  0  0  0  0  0  0  0  0
    4.4957   -9.2636   17.3041 C   0  0  0  0  0  0  0  0  0  0  0  0
   -1.8070   -5.6086   28.1920 O   0  0  0  0  0  0  0  0  0  0  0  0
   10.4296   -5.1799   28.3140 C   0  0  0  0  0  0  0  0  0  0  0  0
    6.6017   -5.9004   26.9187 C   0  0  0  0  0  0  0  0  0  0  0  0
    2.4761   -6.9940   26.4111 N   0  0  0  0  0  0  0  0  0  0  0  0
    9.1353   -5.4053   27.8239 C   0  0  0  0  0  0  0  0  0  0  0  0
    0.9922   -9.3232   16.5995 O   0  0  0  0  0  0  0  0  0  0  0  0
    1.5232   -7.6869   27.1182 C   0  0  0  0  0  0  0  0  0  0  0  0
    8.6878   -6.6715   27.7262 N   0  0  0  0  0  0  0  0  0  0  0  0
    6.9911   -8.2423   27.1808 C   0  0  0  0  0  0  0  0  0  0  0  0
    3.8436   -7.2758   16.0578 C   0  0  0  0  0  0  0  0  0  0  0  0
    3.1882   -9.7190   17.2566 C   0  0  0  0  0  0  0  0  0  0  0  0
    5.3488   -6.1737   26.5092 C   0  0  0  0  0  0  0  0  0  0  0  0
    7.4567   -6.9464   27.2858 C   0  0  0  0  0  0  0  0  0  0  0  0
    0.1921   -5.7592   27.1123 C   0  0  0  0  0  0  0  0  0  0  0  0
    3.5517   -7.7407   25.9711 C   0  0  0  0  0  0  0  0  0  0  0  0
  1  4  4  0
  1 22  4  0
  2 20  4  0
  2 27  4  0
  3 12  4  0
  3 23  4  0
  4 25  4  0
  4 28  1  0
  5  8  4  0
  5 17  4  0
  6  7  4  0
  6 16  4  0
  7 18  4  0
  8 27  4  0
  9 13  4  0
  9 23  4  0
 10 11  1  0
 11 14  2  0
 11 27  1  0
 12 19  1  0
 12 24  4  0
 13 24  4  0
 15 18  1  0
 16 25  4  0
 16 26  4  0
 17 20  4  0
 17 28  1  0
 18 21  4  0
 21 26  4  0
 22 26  4  0
M  END
$$$$

 Created by Python create_sdf_string function

 28 30  0  0  0  0  0  0  0  0999 V2000
    5.7174   -8.4529   26.7190 C   0  0  0  0  0  0  0  0  0  0  0  0
    0.3974   -7.0711   27.5149 C   0  0  0  0  0  0  0  0  0  0  0  0
    2.5338   -7.6891   16.0102 C   0  0  0  0  0  0  0  0  0  0  0  0
    4.8690   -7.4380   26.4151 C   0  0  0  0  0  0  0  0  0  0  0  0
    2.3021   -5.6726   26.0378 C   0  0  0  0  0  0  0  0  0  0  0  0
    7.0880   -4.6163   27.0010 C   0  0  0  0  0  0  0  0  0  0  0  0
    8.3117   -4.3698   27.4436 C   0  0  0  0  0  0  0  0  0  0  0  0
    1.1339   -5.0515   26.3541 C   0  0  0  0  0  0  0  0  0  0  0  0
    4.8080   -8.0362   16.7101 C   0  0  0  0  0  0  0  0  0  0  0  0
   -1.2173   -3.9294   26.9717 O   0  0  0  0  0  0  0  0  0  0  0  0
   -1.0025   -5.0942   27.4586 C   0  0  0  0  0  0  0  0  0  0  0  0
    2.2474   -8.9123   16.6273 C   0  0  0  0  0  0  0  0  0  0  0  0
    4.4957   -9.2636   17.3041 C   0  0  0  0  0  0  0  0  0  0  0  0
   -1.8070   -5.6086   28.1920 O   0  0  0  0  0  0  0  0  0  0  0  0
   10.4296   -5.1799   28.3140 C   0  0  0  0  0  0  0  0  0  0  0  0
    6.6017   -5.9004   26.9187 C   0  0  0  0  0  0  0  0  0  0  0  0
    2.4761   -6.9940   26.4111 N   0  0  0  0  0  0  0  0  0  0  0  0
    9.1353   -5.4053   27.8239 C   0  0  0  0  0  0  0  0  0  0  0  0
    0.9922   -9.3232   16.5995 O   0  0  0  0  0  0  0  0  0  0  0  0
    1.5232   -7.6869   27.1182 C   0  0  0  0  0  0  0  0  0  0  0  0
    8.6878   -6.6715   27.7262 N   0  0  0  0  0  0  0  0  0  0  0  0
    6.9911   -8.2423   27.1808 C   0  0  0  0  0  0  0  0  0  0  0  0
    3.8436   -7.2758   16.0578 C   0  0  0  0  0  0  0  0  0  0  0  0
    3.1882   -9.7190   17.2566 C   0  0  0  0  0  0  0  0  0  0  0  0
    5.3488   -6.1737   26.5092 C   0  0  0  0  0  0  0  0  0  0  0  0
    7.4567   -6.9464   27.2858 C   0  0  0  0  0  0  0  0  0  0  0  0
    0.1921   -5.7592   27.1123 C   0  0  0  0  0  0  0  0  0  0  0  0
    3.5517   -7.7407   25.9711 C   0  0  0  0  0  0  0  0  0  0  0  0
  1  4  4  0
  1 22  4  0
  2 20  4  0
  2 27  4  0
  3 12  4  0
  3 23  4  0
  4 25  4  0
  4 28  1  0
  5  8  4  0
  5 17  4  0
  6  7  4  0
  6 16  4  0
  7 18  4  0
  8 27  4  0
  9 13  4  0
  9 23  4  0
 10 11  1  0
 11 14  2  0
 11 27  1  0
 12 19  1  0
 12 24  4  0
 13 24  4  0
 15 18  1  0
 16 25  4  0
 16 26  4  0
 17 20  4  0
 17 28  1  0
 18 21  4  0
 21 26  4  0
 22 26  4  0
M  END
$$$$

 Created by Python create_sdf_string function

 28 30  0  0  0  0  0  0  0  0999 V2000
    5.7174   -8.4529   26.7190 C   0  0  0  0  0  0  0  0  0  0  0  0
    0.3974   -7.0711   27.5149 C   0  0  0  0  0  0  0  0  0  0  0  0
    2.5338   -7.6891   16.0102 C   0  0  0  0  0  0  0  0  0  0  0  0
    4.8690   -7.4380   26.4151 C   0  0  0  0  0  0  0  0  0  0  0  0
    2.3021   -5.6726   26.0378 C   0  0  0  0  0  0  0  0  0  0  0  0
    7.0880   -4.6163   27.0010 C   0  0  0  0  0  0  0  0  0  0  0  0
    8.3117   -4.3698   27.4436 C   0  0  0  0  0  0  0  0  0  0  0  0
    1.1339   -5.0515   26.3541 C   0  0  0  0  0  0  0  0  0  0  0  0
    4.8080   -8.0362   16.7101 C   0  0  0  0  0  0  0  0  0  0  0  0
   -1.2173   -3.9294   26.9717 O   0  0  0  0  0  0  0  0  0  0  0  0
   -1.0025   -5.0942   27.4586 C   0  0  0  0  0  0  0  0  0  0  0  0
    2.2474   -8.9123   16.6273 C   0  0  0  0  0  0  0  0  0  0  0  0
    4.4957   -9.2636   17.3041 C   0  0  0  0  0  0  0  0  0  0  0  0
   -1.8070   -5.6086   28.1920 O   0  0  0  0  0  0  0  0  0  0  0  0
   10.4296   -5.1799   28.3140 C   0  0  0  0  0  0  0  0  0  0  0  0
    6.6017   -5.9004   26.9187 C   0  0  0  0  0  0  0  0  0  0  0  0
    2.4761   -6.9940   26.4111 N   0  0  0  0  0  0  0  0  0  0  0  0
    9.1353   -5.4053   27.8239 C   0  0  0  0  0  0  0  0  0  0  0  0
    0.9922   -9.3232   16.5995 O   0  0  0  0  0  0  0  0  0  0  0  0
    1.5232   -7.6869   27.1182 C   0  0  0  0  0  0  0  0  0  0  0  0
    8.6878   -6.6715   27.7262 N   0  0  0  0  0  0  0  0  0  0  0  0
    6.9911   -8.2423   27.1808 C   0  0  0  0  0  0  0  0  0  0  0  0
    3.8436   -7.2758   16.0578 C   0  0  0  0  0  0  0  0  0  0  0  0
    3.1882   -9.7190   17.2566 C   0  0  0  0  0  0  0  0  0  0  0  0
    5.3488   -6.1737   26.5092 C   0  0  0  0  0  0  0  0  0  0  0  0
    7.4567   -6.9464   27.2858 C   0  0  0  0  0  0  0  0  0  0  0  0
    0.1921   -5.7592   27.1123 C   0  0  0  0  0  0  0  0  0  0  0  0
    3.5517   -7.7407   25.9711 C   0  0  0  0  0  0  0  0  0  0  0  0
  1  4  4  0
  1 22  4  0
  2 20  4  0
  2 27  4  0
  3 12  4  0
  3 23  4  0
  4 25  4  0
  4 28  1  0
  5  8  4  0
  5 17  4  0
  6  7  4  0
  6 16  4  0
  7 18  4  0
  8 27  4  0
  9 13  4  0
  9 23  4  0
 10 11  1  0
 11 14  2  0
 11 27  1  0
 12 19  1  0
 12 24  4  0
 13 24  4  0
 15 18  1  0
 16 25  4  0
 16 26  4  0
 17 20  4  0
 17 28  1  0
 18 21  4  0
 21 26  4  0
 22 26  4  0
M  END
$$$$

 Created by Python create_sdf_string function

 28 30  0  0  0  0  0  0  0  0999 V2000
    5.7174   -8.4529   26.7190 C   0  0  0  0  0  0  0  0  0  0  0  0
    0.3974   -7.0711   27.5149 C   0  0  0  0  0  0  0  0  0  0  0  0
    2.5338   -7.6891   16.0102 C   0  0  0  0  0  0  0  0  0  0  0  0
    4.8690   -7.4380   26.4151 C   0  0  0  0  0  0  0  0  0  0  0  0
    2.3021   -5.6726   26.0378 C   0  0  0  0  0  0  0  0  0  0  0  0
    7.0880   -4.6163   27.0010 C   0  0  0  0  0  0  0  0  0  0  0  0
    8.3117   -4.3698   27.4436 C   0  0  0  0  0  0  0  0  0  0  0  0
    1.1339   -5.0515   26.3541 C   0  0  0  0  0  0  0  0  0  0  0  0
    4.8080   -8.0362   16.7101 C   0  0  0  0  0  0  0  0  0  0  0  0
   -1.2173   -3.9294   26.9717 O   0  0  0  0  0  0  0  0  0  0  0  0
   -1.0025   -5.0942   27.4586 C   0  0  0  0  0  0  0  0  0  0  0  0
    2.2474   -8.9123   16.6273 C   0  0  0  0  0  0  0  0  0  0  0  0
    4.4957   -9.2636   17.3041 C   0  0  0  0  0  0  0  0  0  0  0  0
   -1.8070   -5.6086   28.1920 O   0  0  0  0  0  0  0  0  0  0  0  0
   10.4296   -5.1799   28.3140 C   0  0  0  0  0  0  0  0  0  0  0  0
    6.6017   -5.9004   26.9187 C   0  0  0  0  0  0  0  0  0  0  0  0
    2.4761   -6.9940   26.4111 N   0  0  0  0  0  0  0  0  0  0  0  0
    9.1353   -5.4053   27.8239 C   0  0  0  0  0  0  0  0  0  0  0  0
    0.9922   -9.3232   16.5995 O   0  0  0  0  0  0  0  0  0  0  0  0
    1.5232   -7.6869   27.1182 C   0  0  0  0  0  0  0  0  0  0  0  0
    8.6878   -6.6715   27.7262 N   0  0  0  0  0  0  0  0  0  0  0  0
    6.9911   -8.2423   27.1808 C   0  0  0  0  0  0  0  0  0  0  0  0
    3.8436   -7.2758   16.0578 C   0  0  0  0  0  0  0  0  0  0  0  0
    3.1882   -9.7190   17.2566 C   0  0  0  0  0  0  0  0  0  0  0  0
    5.3488   -6.1737   26.5092 C   0  0  0  0  0  0  0  0  0  0  0  0
    7.4567   -6.9464   27.2858 C   0  0  0  0  0  0  0  0  0  0  0  0
    0.1921   -5.7592   27.1123 C   0  0  0  0  0  0  0  0  0  0  0  0
    3.5517   -7.7407   25.9711 C   0  0  0  0  0  0  0  0  0  0  0  0
  1  4  4  0
  1 22  4  0
  2 20  4  0
  2 27  4  0
  3 12  4  0
  3 23  4  0
  4 25  4  0
  4 28  1  0
  5  8  4  0
  5 17  4  0
  6  7  4  0
  6 16  4  0
  7 18  4  0
  8 27  4  0
  9 13  4  0
  9 23  4  0
 10 11  1  0
 11 14  2  0
 11 27  1  0
 12 19  1  0
 12 24  4  0
 13 24  4  0
 15 18  1  0
 16 25  4  0
 16 26  4  0
 17 20  4  0
 17 28  1  0
 18 21  4  0
 21 26  4  0
 22 26  4  0
M  END
$$$$

 Created by Python create_sdf_string function

 28 30  0  0  0  0  0  0  0  0999 V2000
    5.7174   -8.4529   26.7190 C   0  0  0  0  0  0  0  0  0  0  0  0
    0.3974   -7.0711   27.5149 C   0  0  0  0  0  0  0  0  0  0  0  0
    2.5338   -7.6891   16.0102 C   0  0  0  0  0  0  0  0  0  0  0  0
    4.8690   -7.4380   26.4151 C   0  0  0  0  0  0  0  0  0  0  0  0
    2.3021   -5.6726   26.0378 C   0  0  0  0  0  0  0  0  0  0  0  0
    7.0880   -4.6163   27.0010 C   0  0  0  0  0  0  0  0  0  0  0  0
    8.3117   -4.3698   27.4436 C   0  0  0  0  0  0  0  0  0  0  0  0
    1.1339   -5.0515   26.3541 C   0  0  0  0  0  0  0  0  0  0  0  0
    4.8080   -8.0362   16.7101 C   0  0  0  0  0  0  0  0  0  0  0  0
   -1.2173   -3.9294   26.9717 O   0  0  0  0  0  0  0  0  0  0  0  0
   -1.0025   -5.0942   27.4586 C   0  0  0  0  0  0  0  0  0  0  0  0
    2.2474   -8.9123   16.6273 C   0  0  0  0  0  0  0  0  0  0  0  0
    4.4957   -9.2636   17.3041 C   0  0  0  0  0  0  0  0  0  0  0  0
   -1.8070   -5.6086   28.1920 O   0  0  0  0  0  0  0  0  0  0  0  0
   10.4296   -5.1799   28.3140 C   0  0  0  0  0  0  0  0  0  0  0  0
    6.6017   -5.9004   26.9187 C   0  0  0  0  0  0  0  0  0  0  0  0
    2.4761   -6.9940   26.4111 N   0  0  0  0  0  0  0  0  0  0  0  0
    9.1353   -5.4053   27.8239 C   0  0  0  0  0  0  0  0  0  0  0  0
    0.9922   -9.3232   16.5995 O   0  0  0  0  0  0  0  0  0  0  0  0
    1.5232   -7.6869   27.1182 C   0  0  0  0  0  0  0  0  0  0  0  0
    8.6878   -6.6715   27.7262 N   0  0  0  0  0  0  0  0  0  0  0  0
    6.9911   -8.2423   27.1808 C   0  0  0  0  0  0  0  0  0  0  0  0
    3.8436   -7.2758   16.0578 C   0  0  0  0  0  0  0  0  0  0  0  0
    3.1882   -9.7190   17.2566 C   0  0  0  0  0  0  0  0  0  0  0  0
    5.3488   -6.1737   26.5092 C   0  0  0  0  0  0  0  0  0  0  0  0
    7.4567   -6.9464   27.2858 C   0  0  0  0  0  0  0  0  0  0  0  0
    0.1921   -5.7592   27.1123 C   0  0  0  0  0  0  0  0  0  0  0  0
    3.5517   -7.7407   25.9711 C   0  0  0  0  0  0  0  0  0  0  0  0
  1  4  4  0
  1 22  4  0
  2 20  4  0
  2 27  4  0
  3 12  4  0
  3 23  4  0
  4 25  4  0
  4 28  1  0
  5  8  4  0
  5 17  4  0
  6  7  4  0
  6 16  4  0
  7 18  4  0
  8 27  4  0
  9 13  4  0
  9 23  4  0
 10 11  1  0
 11 14  2  0
 11 27  1  0
 12 19  1  0
 12 24  4  0
 13 24  4  0
 15 18  1  0
 16 25  4  0
 16 26  4  0
 17 20  4  0
 17 28  1  0
 18 21  4  0
 21 26  4  0
 22 26  4  0
M  END
$$$$

 Created by Python create_sdf_string function

 28 30  0  0  0  0  0  0  0  0999 V2000
    5.7174   -8.4529   26.7190 C   0  0  0  0  0  0  0  0  0  0  0  0
    0.3974   -7.0711   27.5149 C   0  0  0  0  0  0  0  0  0  0  0  0
    2.5338   -7.6891   16.0102 C   0  0  0  0  0  0  0  0  0  0  0  0
    4.8690   -7.4380   26.4151 C   0  0  0  0  0  0  0  0  0  0  0  0
    2.3021   -5.6726   26.0378 C   0  0  0  0  0  0  0  0  0  0  0  0
    7.0880   -4.6163   27.0010 C   0  0  0  0  0  0  0  0  0  0  0  0
    8.3117   -4.3698   27.4436 C   0  0  0  0  0  0  0  0  0  0  0  0
    1.1339   -5.0515   26.3541 C   0  0  0  0  0  0  0  0  0  0  0  0
    4.8080   -8.0362   16.7101 C   0  0  0  0  0  0  0  0  0  0  0  0
   -1.2173   -3.9294   26.9717 O   0  0  0  0  0  0  0  0  0  0  0  0
   -1.0025   -5.0942   27.4586 C   0  0  0  0  0  0  0  0  0  0  0  0
    2.2474   -8.9123   16.6273 C   0  0  0  0  0  0  0  0  0  0  0  0
    4.4957   -9.2636   17.3041 C   0  0  0  0  0  0  0  0  0  0  0  0
   -1.8070   -5.6086   28.1920 O   0  0  0  0  0  0  0  0  0  0  0  0
   10.4296   -5.1799   28.3140 C   0  0  0  0  0  0  0  0  0  0  0  0
    6.6017   -5.9004   26.9187 C   0  0  0  0  0  0  0  0  0  0  0  0
    2.4761   -6.9940   26.4111 N   0  0  0  0  0  0  0  0  0  0  0  0
    9.1353   -5.4053   27.8239 C   0  0  0  0  0  0  0  0  0  0  0  0
    0.9922   -9.3232   16.5995 O   0  0  0  0  0  0  0  0  0  0  0  0
    1.5232   -7.6869   27.1182 C   0  0  0  0  0  0  0  0  0  0  0  0
    8.6878   -6.6715   27.7262 N   0  0  0  0  0  0  0  0  0  0  0  0
    6.9911   -8.2423   27.1808 C   0  0  0  0  0  0  0  0  0  0  0  0
    3.8436   -7.2758   16.0578 C   0  0  0  0  0  0  0  0  0  0  0  0
    3.1882   -9.7190   17.2566 C   0  0  0  0  0  0  0  0  0  0  0  0
    5.3488   -6.1737   26.5092 C   0  0  0  0  0  0  0  0  0  0  0  0
    7.4567   -6.9464   27.2858 C   0  0  0  0  0  0  0  0  0  0  0  0
    0.1921   -5.7592   27.1123 C   0  0  0  0  0  0  0  0  0  0  0  0
    3.5517   -7.7407   25.9711 C   0  0  0  0  0  0  0  0  0  0  0  0
  1  4  4  0
  1 22  4  0
  2 20  4  0
  2 27  4  0
  3 12  4  0
  3 23  4  0
  4 25  4  0
  4 28  1  0
  5  8  4  0
  5 17  4  0
  6  7  4  0
  6 16  4  0
  7 18  4  0
  8 27  4  0
  9 13  4  0
  9 23  4  0
 10 11  1  0
 11 14  2  0
 11 27  1  0
 12 19  1  0
 12 24  4  0
 13 24  4  0
 15 18  1  0
 16 25  4  0
 16 26  4  0
 17 20  4  0
 17 28  1  0
 18 21  4  0
 21 26  4  0
 22 26  4  0
M  END
$$$$

 Created by Python create_sdf_string function

 28 30  0  0  0  0  0  0  0  0999 V2000
    5.7174   -8.4529   26.7190 C   0  0  0  0  0  0  0  0  0  0  0  0
    0.3974   -7.0711   27.5149 C   0  0  0  0  0  0  0  0  0  0  0  0
    2.5338   -7.6891   16.0102 C   0  0  0  0  0  0  0  0  0  0  0  0
    4.8690   -7.4380   26.4151 C   0  0  0  0  0  0  0  0  0  0  0  0
    2.3021   -5.6726   26.0378 C   0  0  0  0  0  0  0  0  0  0  0  0
    7.0880   -4.6163   27.0010 C   0  0  0  0  0  0  0  0  0  0  0  0
    8.3117   -4.3698   27.4436 C   0  0  0  0  0  0  0  0  0  0  0  0
    1.1339   -5.0515   26.3541 C   0  0  0  0  0  0  0  0  0  0  0  0
    4.8080   -8.0362   16.7101 C   0  0  0  0  0  0  0  0  0  0  0  0
   -1.2173   -3.9294   26.9717 O   0  0  0  0  0  0  0  0  0  0  0  0
   -1.0025   -5.0942   27.4586 C   0  0  0  0  0  0  0  0  0  0  0  0
    2.2474   -8.9123   16.6273 C   0  0  0  0  0  0  0  0  0  0  0  0
    4.4957   -9.2636   17.3041 C   0  0  0  0  0  0  0  0  0  0  0  0
   -1.8070   -5.6086   28.1920 O   0  0  0  0  0  0  0  0  0  0  0  0
   10.4296   -5.1799   28.3140 C   0  0  0  0  0  0  0  0  0  0  0  0
    6.6017   -5.9004   26.9187 C   0  0  0  0  0  0  0  0  0  0  0  0
    2.4761   -6.9940   26.4111 N   0  0  0  0  0  0  0  0  0  0  0  0
    9.1353   -5.4053   27.8239 C   0  0  0  0  0  0  0  0  0  0  0  0
    0.9922   -9.3232   16.5995 O   0  0  0  0  0  0  0  0  0  0  0  0
    1.5232   -7.6869   27.1182 C   0  0  0  0  0  0  0  0  0  0  0  0
    8.6878   -6.6715   27.7262 N   0  0  0  0  0  0  0  0  0  0  0  0
    6.9911   -8.2423   27.1808 C   0  0  0  0  0  0  0  0  0  0  0  0
    3.8436   -7.2758   16.0578 C   0  0  0  0  0  0  0  0  0  0  0  0
    3.1882   -9.7190   17.2566 C   0  0  0  0  0  0  0  0  0  0  0  0
    5.3488   -6.1737   26.5092 C   0  0  0  0  0  0  0  0  0  0  0  0
    7.4567   -6.9464   27.2858 C   0  0  0  0  0  0  0  0  0  0  0  0
    0.1921   -5.7592   27.1123 C   0  0  0  0  0  0  0  0  0  0  0  0
    3.5517   -7.7407   25.9711 C   0  0  0  0  0  0  0  0  0  0  0  0
  1  4  4  0
  1 22  4  0
  2 20  4  0
  2 27  4  0
  3 12  4  0
  3 23  4  0
  4 25  4  0
  4 28  1  0
  5  8  4  0
  5 17  4  0
  6  7  4  0
  6 16  4  0
  7 18  4  0
  8 27  4  0
  9 13  4  0
  9 23  4  0
 10 11  1  0
 11 14  2  0
 11 27  1  0
 12 19  1  0
 12 24  4  0
 13 24  4  0
 15 18  1  0
 16 25  4  0
 16 26  4  0
 17 20  4  0
 17 28  1  0
 18 21  4  0
 21 26  4  0
 22 26  4  0
M  END
$$$$

 Created by Python create_sdf_string function

 28 30  0  0  0  0  0  0  0  0999 V2000
    5.7174   -8.4529   26.7190 C   0  0  0  0  0  0  0  0  0  0  0  0
    0.3974   -7.0711   27.5149 C   0  0  0  0  0  0  0  0  0  0  0  0
    2.5338   -7.6891   16.0102 C   0  0  0  0  0  0  0  0  0  0  0  0
    4.8690   -7.4380   26.4151 C   0  0  0  0  0  0  0  0  0  0  0  0
    2.3021   -5.6726   26.0378 C   0  0  0  0  0  0  0  0  0  0  0  0
    7.0880   -4.6163   27.0010 C   0  0  0  0  0  0  0  0  0  0  0  0
    8.3117   -4.3698   27.4436 C   0  0  0  0  0  0  0  0  0  0  0  0
    1.1339   -5.0515   26.3541 C   0  0  0  0  0  0  0  0  0  0  0  0
    4.8080   -8.0362   16.7101 C   0  0  0  0  0  0  0  0  0  0  0  0
   -1.2173   -3.9294   26.9717 O   0  0  0  0  0  0  0  0  0  0  0  0
   -1.0025   -5.0942   27.4586 C   0  0  0  0  0  0  0  0  0  0  0  0
    2.2474   -8.9123   16.6273 C   0  0  0  0  0  0  0  0  0  0  0  0
    4.4957   -9.2636   17.3041 C   0  0  0  0  0  0  0  0  0  0  0  0
   -1.8070   -5.6086   28.1920 O   0  0  0  0  0  0  0  0  0  0  0  0
   10.4296   -5.1799   28.3140 C   0  0  0  0  0  0  0  0  0  0  0  0
    6.6017   -5.9004   26.9187 C   0  0  0  0  0  0  0  0  0  0  0  0
    2.4761   -6.9940   26.4111 N   0  0  0  0  0  0  0  0  0  0  0  0
    9.1353   -5.4053   27.8239 C   0  0  0  0  0  0  0  0  0  0  0  0
    0.9922   -9.3232   16.5995 O   0  0  0  0  0  0  0  0  0  0  0  0
    1.5232   -7.6869   27.1182 C   0  0  0  0  0  0  0  0  0  0  0  0
    8.6878   -6.6715   27.7262 N   0  0  0  0  0  0  0  0  0  0  0  0
    6.9911   -8.2423   27.1808 C   0  0  0  0  0  0  0  0  0  0  0  0
    3.8436   -7.2758   16.0578 C   0  0  0  0  0  0  0  0  0  0  0  0
    3.1882   -9.7190   17.2566 C   0  0  0  0  0  0  0  0  0  0  0  0
    5.3488   -6.1737   26.5092 C   0  0  0  0  0  0  0  0  0  0  0  0
    7.4567   -6.9464   27.2858 C   0  0  0  0  0  0  0  0  0  0  0  0
    0.1921   -5.7592   27.1123 C   0  0  0  0  0  0  0  0  0  0  0  0
    3.5517   -7.7407   25.9711 C   0  0  0  0  0  0  0  0  0  0  0  0
  1  4  4  0
  1 22  4  0
  2 20  4  0
  2 27  4  0
  3 12  4  0
  3 23  4  0
  4 25  4  0
  4 28  1  0
  5  8  4  0
  5 17  4  0
  6  7  4  0
  6 16  4  0
  7 18  4  0
  8 27  4  0
  9 13  4  0
  9 23  4  0
 10 11  1  0
 11 14  2  0
 11 27  1  0
 12 19  1  0
 12 24  4  0
 13 24  4  0
 15 18  1  0
 16 25  4  0
 16 26  4  0
 17 20  4  0
 17 28  1  0
 18 21  4  0
 21 26  4  0
 22 26  4  0
M  END
$$$$

 Created by Python create_sdf_string function

 28 30  0  0  0  0  0  0  0  0999 V2000
    5.7174   -8.4529   26.7190 C   0  0  0  0  0  0  0  0  0  0  0  0
    0.3974   -7.0711   27.5149 C   0  0  0  0  0  0  0  0  0  0  0  0
    2.5338   -7.6891   16.0102 C   0  0  0  0  0  0  0  0  0  0  0  0
    4.8690   -7.4380   26.4151 C   0  0  0  0  0  0  0  0  0  0  0  0
    2.3021   -5.6726   26.0378 C   0  0  0  0  0  0  0  0  0  0  0  0
    7.0880   -4.6163   27.0010 C   0  0  0  0  0  0  0  0  0  0  0  0
    8.3117   -4.3698   27.4436 C   0  0  0  0  0  0  0  0  0  0  0  0
    1.1339   -5.0515   26.3541 C   0  0  0  0  0  0  0  0  0  0  0  0
    4.8080   -8.0362   16.7101 C   0  0  0  0  0  0  0  0  0  0  0  0
   -1.2173   -3.9294   26.9717 O   0  0  0  0  0  0  0  0  0  0  0  0
   -1.0025   -5.0942   27.4586 C   0  0  0  0  0  0  0  0  0  0  0  0
    2.2474   -8.9123   16.6273 C   0  0  0  0  0  0  0  0  0  0  0  0
    4.4957   -9.2636   17.3041 C   0  0  0  0  0  0  0  0  0  0  0  0
   -1.8070   -5.6086   28.1920 O   0  0  0  0  0  0  0  0  0  0  0  0
   10.4296   -5.1799   28.3140 C   0  0  0  0  0  0  0  0  0  0  0  0
    6.6017   -5.9004   26.9187 C   0  0  0  0  0  0  0  0  0  0  0  0
    2.4761   -6.9940   26.4111 N   0  0  0  0  0  0  0  0  0  0  0  0
    9.1353   -5.4053   27.8239 C   0  0  0  0  0  0  0  0  0  0  0  0
    0.9922   -9.3232   16.5995 O   0  0  0  0  0  0  0  0  0  0  0  0
    1.5232   -7.6869   27.1182 C   0  0  0  0  0  0  0  0  0  0  0  0
    8.6878   -6.6715   27.7262 N   0  0  0  0  0  0  0  0  0  0  0  0
    6.9911   -8.2423   27.1808 C   0  0  0  0  0  0  0  0  0  0  0  0
    3.8436   -7.2758   16.0578 C   0  0  0  0  0  0  0  0  0  0  0  0
    3.1882   -9.7190   17.2566 C   0  0  0  0  0  0  0  0  0  0  0  0
    5.3488   -6.1737   26.5092 C   0  0  0  0  0  0  0  0  0  0  0  0
    7.4567   -6.9464   27.2858 C   0  0  0  0  0  0  0  0  0  0  0  0
    0.1921   -5.7592   27.1123 C   0  0  0  0  0  0  0  0  0  0  0  0
    3.5517   -7.7407   25.9711 C   0  0  0  0  0  0  0  0  0  0  0  0
  1  4  4  0
  1 22  4  0
  2 20  4  0
  2 27  4  0
  3 12  4  0
  3 23  4  0
  4 25  4  0
  4 28  1  0
  5  8  4  0
  5 17  4  0
  6  7  4  0
  6 16  4  0
  7 18  4  0
  8 27  4  0
  9 13  4  0
  9 23  4  0
 10 11  1  0
 11 14  2  0
 11 27  1  0
 12 19  1  0
 12 24  4  0
 13 24  4  0
 15 18  1  0
 16 25  4  0
 16 26  4  0
 17 20  4  0
 17 28  1  0
 18 21  4  0
 21 26  4  0
 22 26  4  0
M  END
$$$$

 Created by Python create_sdf_string function

 28 30  0  0  0  0  0  0  0  0999 V2000
    5.7174   -8.4529   26.7190 C   0  0  0  0  0  0  0  0  0  0  0  0
    0.3974   -7.0711   27.5149 C   0  0  0  0  0  0  0  0  0  0  0  0
    2.5338   -7.6891   16.0102 C   0  0  0  0  0  0  0  0  0  0  0  0
    4.8690   -7.4380   26.4151 C   0  0  0  0  0  0  0  0  0  0  0  0
    2.3021   -5.6726   26.0378 C   0  0  0  0  0  0  0  0  0  0  0  0
    7.0880   -4.6163   27.0010 C   0  0  0  0  0  0  0  0  0  0  0  0
    8.3117   -4.3698   27.4436 C   0  0  0  0  0  0  0  0  0  0  0  0
    1.1339   -5.0515   26.3541 C   0  0  0  0  0  0  0  0  0  0  0  0
    4.8080   -8.0362   16.7101 C   0  0  0  0  0  0  0  0  0  0  0  0
   -1.2173   -3.9294   26.9717 O   0  0  0  0  0  0  0  0  0  0  0  0
   -1.0025   -5.0942   27.4586 C   0  0  0  0  0  0  0  0  0  0  0  0
    2.2474   -8.9123   16.6273 C   0  0  0  0  0  0  0  0  0  0  0  0
    4.4957   -9.2636   17.3041 C   0  0  0  0  0  0  0  0  0  0  0  0
   -1.8070   -5.6086   28.1920 O   0  0  0  0  0  0  0  0  0  0  0  0
   10.4296   -5.1799   28.3140 C   0  0  0  0  0  0  0  0  0  0  0  0
    6.6017   -5.9004   26.9187 C   0  0  0  0  0  0  0  0  0  0  0  0
    2.4761   -6.9940   26.4111 N   0  0  0  0  0  0  0  0  0  0  0  0
    9.1353   -5.4053   27.8239 C   0  0  0  0  0  0  0  0  0  0  0  0
    0.9922   -9.3232   16.5995 O   0  0  0  0  0  0  0  0  0  0  0  0
    1.5232   -7.6869   27.1182 C   0  0  0  0  0  0  0  0  0  0  0  0
    8.6878   -6.6715   27.7262 N   0  0  0  0  0  0  0  0  0  0  0  0
    6.9911   -8.2423   27.1808 C   0  0  0  0  0  0  0  0  0  0  0  0
    3.8436   -7.2758   16.0578 C   0  0  0  0  0  0  0  0  0  0  0  0
    3.1882   -9.7190   17.2566 C   0  0  0  0  0  0  0  0  0  0  0  0
    5.3488   -6.1737   26.5092 C   0  0  0  0  0  0  0  0  0  0  0  0
    7.4567   -6.9464   27.2858 C   0  0  0  0  0  0  0  0  0  0  0  0
    0.1921   -5.7592   27.1123 C   0  0  0  0  0  0  0  0  0  0  0  0
    3.5517   -7.7407   25.9711 C   0  0  0  0  0  0  0  0  0  0  0  0
  1  4  4  0
  1 22  4  0
  2 20  4  0
  2 27  4  0
  3 12  4  0
  3 23  4  0
  4 25  4  0
  4 28  1  0
  5  8  4  0
  5 17  4  0
  6  7  4  0
  6 16  4  0
  7 18  4  0
  8 27  4  0
  9 13  4  0
  9 23  4  0
 10 11  1  0
 11 14  2  0
 11 27  1  0
 12 19  1  0
 12 24  4  0
 13 24  4  0
 15 18  1  0
 16 25  4  0
 16 26  4  0
 17 20  4  0
 17 28  1  0
 18 21  4  0
 21 26  4  0
 22 26  4  0
M  END
$$$$

 Created by Python create_sdf_string function

 28 30  0  0  0  0  0  0  0  0999 V2000
    5.7174   -8.4529   26.7190 C   0  0  0  0  0  0  0  0  0  0  0  0
    0.3974   -7.0711   27.5149 C   0  0  0  0  0  0  0  0  0  0  0  0
    2.5338   -7.6891   16.0102 C   0  0  0  0  0  0  0  0  0  0  0  0
    4.8690   -7.4380   26.4151 C   0  0  0  0  0  0  0  0  0  0  0  0
    2.3021   -5.6726   26.0378 C   0  0  0  0  0  0  0  0  0  0  0  0
    7.0880   -4.6163   27.0010 C   0  0  0  0  0  0  0  0  0  0  0  0
    8.3117   -4.3698   27.4436 C   0  0  0  0  0  0  0  0  0  0  0  0
    1.1339   -5.0515   26.3541 C   0  0  0  0  0  0  0  0  0  0  0  0
    4.8080   -8.0362   16.7101 C   0  0  0  0  0  0  0  0  0  0  0  0
   -1.2173   -3.9294   26.9717 O   0  0  0  0  0  0  0  0  0  0  0  0
   -1.0025   -5.0942   27.4586 C   0  0  0  0  0  0  0  0  0  0  0  0
    2.2474   -8.9123   16.6273 C   0  0  0  0  0  0  0  0  0  0  0  0
    4.4957   -9.2636   17.3041 C   0  0  0  0  0  0  0  0  0  0  0  0
   -1.8070   -5.6086   28.1920 O   0  0  0  0  0  0  0  0  0  0  0  0
   10.4296   -5.1799   28.3140 C   0  0  0  0  0  0  0  0  0  0  0  0
    6.6017   -5.9004   26.9187 C   0  0  0  0  0  0  0  0  0  0  0  0
    2.4761   -6.9940   26.4111 N   0  0  0  0  0  0  0  0  0  0  0  0
    9.1353   -5.4053   27.8239 C   0  0  0  0  0  0  0  0  0  0  0  0
    0.9922   -9.3232   16.5995 O   0  0  0  0  0  0  0  0  0  0  0  0
    1.5232   -7.6869   27.1182 C   0  0  0  0  0  0  0  0  0  0  0  0
    8.6878   -6.6715   27.7262 N   0  0  0  0  0  0  0  0  0  0  0  0
    6.9911   -8.2423   27.1808 C   0  0  0  0  0  0  0  0  0  0  0  0
    3.8436   -7.2758   16.0578 C   0  0  0  0  0  0  0  0  0  0  0  0
    3.1882   -9.7190   17.2566 C   0  0  0  0  0  0  0  0  0  0  0  0
    5.3488   -6.1737   26.5092 C   0  0  0  0  0  0  0  0  0  0  0  0
    7.4567   -6.9464   27.2858 C   0  0  0  0  0  0  0  0  0  0  0  0
    0.1921   -5.7592   27.1123 C   0  0  0  0  0  0  0  0  0  0  0  0
    3.5517   -7.7407   25.9711 C   0  0  0  0  0  0  0  0  0  0  0  0
  1  4  4  0
  1 22  4  0
  2 20  4  0
  2 27  4  0
  3 12  4  0
  3 23  4  0
  4 25  4  0
  4 28  1  0
  5  8  4  0
  5 17  4  0
  6  7  4  0
  6 16  4  0
  7 18  4  0
  8 27  4  0
  9 13  4  0
  9 23  4  0
 10 11  1  0
 11 14  2  0
 11 27  1  0
 12 19  1  0
 12 24  4  0
 13 24  4  0
 15 18  1  0
 16 25  4  0
 16 26  4  0
 17 20  4  0
 17 28  1  0
 18 21  4  0
 21 26  4  0
 22 26  4  0
M  END
$$$$

 Created by Python create_sdf_string function

 28 30  0  0  0  0  0  0  0  0999 V2000
    5.7174   -8.4529   26.7190 C   0  0  0  0  0  0  0  0  0  0  0  0
    0.3974   -7.0711   27.5149 C   0  0  0  0  0  0  0  0  0  0  0  0
    2.5338   -7.6891   16.0102 C   0  0  0  0  0  0  0  0  0  0  0  0
    4.8690   -7.4380   26.4151 C   0  0  0  0  0  0  0  0  0  0  0  0
    2.3021   -5.6726   26.0378 C   0  0  0  0  0  0  0  0  0  0  0  0
    7.0880   -4.6163   27.0010 C   0  0  0  0  0  0  0  0  0  0  0  0
    8.3117   -4.3698   27.4436 C   0  0  0  0  0  0  0  0  0  0  0  0
    1.1339   -5.0515   26.3541 C   0  0  0  0  0  0  0  0  0  0  0  0
    4.8080   -8.0362   16.7101 C   0  0  0  0  0  0  0  0  0  0  0  0
   -1.2173   -3.9294   26.9717 O   0  0  0  0  0  0  0  0  0  0  0  0
   -1.0025   -5.0942   27.4586 C   0  0  0  0  0  0  0  0  0  0  0  0
    2.2474   -8.9123   16.6273 C   0  0  0  0  0  0  0  0  0  0  0  0
    4.4957   -9.2636   17.3041 C   0  0  0  0  0  0  0  0  0  0  0  0
   -1.8070   -5.6086   28.1920 O   0  0  0  0  0  0  0  0  0  0  0  0
   10.4296   -5.1799   28.3140 C   0  0  0  0  0  0  0  0  0  0  0  0
    6.6017   -5.9004   26.9187 C   0  0  0  0  0  0  0  0  0  0  0  0
    2.4761   -6.9940   26.4111 N   0  0  0  0  0  0  0  0  0  0  0  0
    9.1353   -5.4053   27.8239 C   0  0  0  0  0  0  0  0  0  0  0  0
    0.9922   -9.3232   16.5995 O   0  0  0  0  0  0  0  0  0  0  0  0
    1.5232   -7.6869   27.1182 C   0  0  0  0  0  0  0  0  0  0  0  0
    8.6878   -6.6715   27.7262 N   0  0  0  0  0  0  0  0  0  0  0  0
    6.9911   -8.2423   27.1808 C   0  0  0  0  0  0  0  0  0  0  0  0
    3.8436   -7.2758   16.0578 C   0  0  0  0  0  0  0  0  0  0  0  0
    3.1882   -9.7190   17.2566 C   0  0  0  0  0  0  0  0  0  0  0  0
    5.3488   -6.1737   26.5092 C   0  0  0  0  0  0  0  0  0  0  0  0
    7.4567   -6.9464   27.2858 C   0  0  0  0  0  0  0  0  0  0  0  0
    0.1921   -5.7592   27.1123 C   0  0  0  0  0  0  0  0  0  0  0  0
    3.5517   -7.7407   25.9711 C   0  0  0  0  0  0  0  0  0  0  0  0
  1  4  4  0
  1 22  4  0
  2 20  4  0
  2 27  4  0
  3 12  4  0
  3 23  4  0
  4 25  4  0
  4 28  1  0
  5  8  4  0
  5 17  4  0
  6  7  4  0
  6 16  4  0
  7 18  4  0
  8 27  4  0
  9 13  4  0
  9 23  4  0
 10 11  1  0
 11 14  2  0
 11 27  1  0
 12 19  1  0
 12 24  4  0
 13 24  4  0
 15 18  1  0
 16 25  4  0
 16 26  4  0
 17 20  4  0
 17 28  1  0
 18 21  4  0
 21 26  4  0
 22 26  4  0
M  END
$$$$

 Created by Python create_sdf_string function

 28 30  0  0  0  0  0  0  0  0999 V2000
    5.7174   -8.4529   26.7190 C   0  0  0  0  0  0  0  0  0  0  0  0
    0.3974   -7.0711   27.5149 C   0  0  0  0  0  0  0  0  0  0  0  0
    2.5338   -7.6891   16.0102 C   0  0  0  0  0  0  0  0  0  0  0  0
    4.8690   -7.4380   26.4151 C   0  0  0  0  0  0  0  0  0  0  0  0
    2.3021   -5.6726   26.0378 C   0  0  0  0  0  0  0  0  0  0  0  0
    7.0880   -4.6163   27.0010 C   0  0  0  0  0  0  0  0  0  0  0  0
    8.3117   -4.3698   27.4436 C   0  0  0  0  0  0  0  0  0  0  0  0
    1.1339   -5.0515   26.3541 C   0  0  0  0  0  0  0  0  0  0  0  0
    4.8080   -8.0362   16.7101 C   0  0  0  0  0  0  0  0  0  0  0  0
   -1.2173   -3.9294   26.9717 O   0  0  0  0  0  0  0  0  0  0  0  0
   -1.0025   -5.0942   27.4586 C   0  0  0  0  0  0  0  0  0  0  0  0
    2.2474   -8.9123   16.6273 C   0  0  0  0  0  0  0  0  0  0  0  0
    4.4957   -9.2636   17.3041 C   0  0  0  0  0  0  0  0  0  0  0  0
   -1.8070   -5.6086   28.1920 O   0  0  0  0  0  0  0  0  0  0  0  0
   10.4296   -5.1799   28.3140 C   0  0  0  0  0  0  0  0  0  0  0  0
    6.6017   -5.9004   26.9187 C   0  0  0  0  0  0  0  0  0  0  0  0
    2.4761   -6.9940   26.4111 N   0  0  0  0  0  0  0  0  0  0  0  0
    9.1353   -5.4053   27.8239 C   0  0  0  0  0  0  0  0  0  0  0  0
    0.9922   -9.3232   16.5995 O   0  0  0  0  0  0  0  0  0  0  0  0
    1.5232   -7.6869   27.1182 C   0  0  0  0  0  0  0  0  0  0  0  0
    8.6878   -6.6715   27.7262 N   0  0  0  0  0  0  0  0  0  0  0  0
    6.9911   -8.2423   27.1808 C   0  0  0  0  0  0  0  0  0  0  0  0
    3.8436   -7.2758   16.0578 C   0  0  0  0  0  0  0  0  0  0  0  0
    3.1882   -9.7190   17.2566 C   0  0  0  0  0  0  0  0  0  0  0  0
    5.3488   -6.1737   26.5092 C   0  0  0  0  0  0  0  0  0  0  0  0
    7.4567   -6.9464   27.2858 C   0  0  0  0  0  0  0  0  0  0  0  0
    0.1921   -5.7592   27.1123 C   0  0  0  0  0  0  0  0  0  0  0  0
    3.5517   -7.7407   25.9711 C   0  0  0  0  0  0  0  0  0  0  0  0
  1  4  4  0
  1 22  4  0
  2 20  4  0
  2 27  4  0
  3 12  4  0
  3 23  4  0
  4 25  4  0
  4 28  1  0
  5  8  4  0
  5 17  4  0
  6  7  4  0
  6 16  4  0
  7 18  4  0
  8 27  4  0
  9 13  4  0
  9 23  4  0
 10 11  1  0
 11 14  2  0
 11 27  1  0
 12 19  1  0
 12 24  4  0
 13 24  4  0
 15 18  1  0
 16 25  4  0
 16 26  4  0
 17 20  4  0
 17 28  1  0
 18 21  4  0
 21 26  4  0
 22 26  4  0
M  END
$$$$

 Created by Python create_sdf_string function

 28 30  0  0  0  0  0  0  0  0999 V2000
    5.7174   -8.4529   26.7190 C   0  0  0  0  0  0  0  0  0  0  0  0
    0.3974   -7.0711   27.5149 C   0  0  0  0  0  0  0  0  0  0  0  0
    2.5338   -7.6891   16.0102 C   0  0  0  0  0  0  0  0  0  0  0  0
    4.8690   -7.4380   26.4151 C   0  0  0  0  0  0  0  0  0  0  0  0
    2.3021   -5.6726   26.0378 C   0  0  0  0  0  0  0  0  0  0  0  0
    7.0880   -4.6163   27.0010 C   0  0  0  0  0  0  0  0  0  0  0  0
    8.3117   -4.3698   27.4436 C   0  0  0  0  0  0  0  0  0  0  0  0
    1.1339   -5.0515   26.3541 C   0  0  0  0  0  0  0  0  0  0  0  0
    4.8080   -8.0362   16.7101 C   0  0  0  0  0  0  0  0  0  0  0  0
   -1.2173   -3.9294   26.9717 O   0  0  0  0  0  0  0  0  0  0  0  0
   -1.0025   -5.0942   27.4586 C   0  0  0  0  0  0  0  0  0  0  0  0
    2.2474   -8.9123   16.6273 C   0  0  0  0  0  0  0  0  0  0  0  0
    4.4957   -9.2636   17.3041 C   0  0  0  0  0  0  0  0  0  0  0  0
   -1.8070   -5.6086   28.1920 O   0  0  0  0  0  0  0  0  0  0  0  0
   10.4296   -5.1799   28.3140 C   0  0  0  0  0  0  0  0  0  0  0  0
    6.6017   -5.9004   26.9187 C   0  0  0  0  0  0  0  0  0  0  0  0
    2.4761   -6.9940   26.4111 N   0  0  0  0  0  0  0  0  0  0  0  0
    9.1353   -5.4053   27.8239 C   0  0  0  0  0  0  0  0  0  0  0  0
    0.9922   -9.3232   16.5995 O   0  0  0  0  0  0  0  0  0  0  0  0
    1.5232   -7.6869   27.1182 C   0  0  0  0  0  0  0  0  0  0  0  0
    8.6878   -6.6715   27.7262 N   0  0  0  0  0  0  0  0  0  0  0  0
    6.9911   -8.2423   27.1808 C   0  0  0  0  0  0  0  0  0  0  0  0
    3.8436   -7.2758   16.0578 C   0  0  0  0  0  0  0  0  0  0  0  0
    3.1882   -9.7190   17.2566 C   0  0  0  0  0  0  0  0  0  0  0  0
    5.3488   -6.1737   26.5092 C   0  0  0  0  0  0  0  0  0  0  0  0
    7.4567   -6.9464   27.2858 C   0  0  0  0  0  0  0  0  0  0  0  0
    0.1921   -5.7592   27.1123 C   0  0  0  0  0  0  0  0  0  0  0  0
    3.5517   -7.7407   25.9711 C   0  0  0  0  0  0  0  0  0  0  0  0
  1  4  4  0
  1 22  4  0
  2 20  4  0
  2 27  4  0
  3 12  4  0
  3 23  4  0
  4 25  4  0
  4 28  1  0
  5  8  4  0
  5 17  4  0
  6  7  4  0
  6 16  4  0
  7 18  4  0
  8 27  4  0
  9 13  4  0
  9 23  4  0
 10 11  1  0
 11 14  2  0
 11 27  1  0
 12 19  1  0
 12 24  4  0
 13 24  4  0
 15 18  1  0
 16 25  4  0
 16 26  4  0
 17 20  4  0
 17 28  1  0
 18 21  4  0
 21 26  4  0
 22 26  4  0
M  END
$$$$

 Created by Python create_sdf_string function

 28 30  0  0  0  0  0  0  0  0999 V2000
    5.7174   -8.4529   26.7190 C   0  0  0  0  0  0  0  0  0  0  0  0
    0.3974   -7.0711   27.5149 C   0  0  0  0  0  0  0  0  0  0  0  0
    2.5338   -7.6891   16.0102 C   0  0  0  0  0  0  0  0  0  0  0  0
    4.8690   -7.4380   26.4151 C   0  0  0  0  0  0  0  0  0  0  0  0
    2.3021   -5.6726   26.0378 C   0  0  0  0  0  0  0  0  0  0  0  0
    7.0880   -4.6163   27.0010 C   0  0  0  0  0  0  0  0  0  0  0  0
    8.3117   -4.3698   27.4436 C   0  0  0  0  0  0  0  0  0  0  0  0
    1.1339   -5.0515   26.3541 C   0  0  0  0  0  0  0  0  0  0  0  0
    4.8080   -8.0362   16.7101 C   0  0  0  0  0  0  0  0  0  0  0  0
   -1.2173   -3.9294   26.9717 O   0  0  0  0  0  0  0  0  0  0  0  0
   -1.0025   -5.0942   27.4586 C   0  0  0  0  0  0  0  0  0  0  0  0
    2.2474   -8.9123   16.6273 C   0  0  0  0  0  0  0  0  0  0  0  0
    4.4957   -9.2636   17.3041 C   0  0  0  0  0  0  0  0  0  0  0  0
   -1.8070   -5.6086   28.1920 O   0  0  0  0  0  0  0  0  0  0  0  0
   10.4296   -5.1799   28.3140 C   0  0  0  0  0  0  0  0  0  0  0  0
    6.6017   -5.9004   26.9187 C   0  0  0  0  0  0  0  0  0  0  0  0
    2.4761   -6.9940   26.4111 N   0  0  0  0  0  0  0  0  0  0  0  0
    9.1353   -5.4053   27.8239 C   0  0  0  0  0  0  0  0  0  0  0  0
    0.9922   -9.3232   16.5995 O   0  0  0  0  0  0  0  0  0  0  0  0
    1.5232   -7.6869   27.1182 C   0  0  0  0  0  0  0  0  0  0  0  0
    8.6878   -6.6715   27.7262 N   0  0  0  0  0  0  0  0  0  0  0  0
    6.9911   -8.2423   27.1808 C   0  0  0  0  0  0  0  0  0  0  0  0
    3.8436   -7.2758   16.0578 C   0  0  0  0  0  0  0  0  0  0  0  0
    3.1882   -9.7190   17.2566 C   0  0  0  0  0  0  0  0  0  0  0  0
    5.3488   -6.1737   26.5092 C   0  0  0  0  0  0  0  0  0  0  0  0
    7.4567   -6.9464   27.2858 C   0  0  0  0  0  0  0  0  0  0  0  0
    0.1921   -5.7592   27.1123 C   0  0  0  0  0  0  0  0  0  0  0  0
    3.5517   -7.7407   25.9711 C   0  0  0  0  0  0  0  0  0  0  0  0
  1  4  4  0
  1 22  4  0
  2 20  4  0
  2 27  4  0
  3 12  4  0
  3 23  4  0
  4 25  4  0
  4 28  1  0
  5  8  4  0
  5 17  4  0
  6  7  4  0
  6 16  4  0
  7 18  4  0
  8 27  4  0
  9 13  4  0
  9 23  4  0
 10 11  1  0
 11 14  2  0
 11 27  1  0
 12 19  1  0
 12 24  4  0
 13 24  4  0
 15 18  1  0
 16 25  4  0
 16 26  4  0
 17 20  4  0
 17 28  1  0
 18 21  4  0
 21 26  4  0
 22 26  4  0
M  END
$$$$

 Created by Python create_sdf_string function

 28 30  0  0  0  0  0  0  0  0999 V2000
    5.7174   -8.4529   26.7190 C   0  0  0  0  0  0  0  0  0  0  0  0
    0.3974   -7.0711   27.5149 C   0  0  0  0  0  0  0  0  0  0  0  0
    2.5338   -7.6891   16.0102 C   0  0  0  0  0  0  0  0  0  0  0  0
    4.8690   -7.4380   26.4151 C   0  0  0  0  0  0  0  0  0  0  0  0
    2.3021   -5.6726   26.0378 C   0  0  0  0  0  0  0  0  0  0  0  0
    7.0880   -4.6163   27.0010 C   0  0  0  0  0  0  0  0  0  0  0  0
    8.3117   -4.3698   27.4436 C   0  0  0  0  0  0  0  0  0  0  0  0
    1.1339   -5.0515   26.3541 C   0  0  0  0  0  0  0  0  0  0  0  0
    4.8080   -8.0362   16.7101 C   0  0  0  0  0  0  0  0  0  0  0  0
   -1.2173   -3.9294   26.9717 O   0  0  0  0  0  0  0  0  0  0  0  0
   -1.0025   -5.0942   27.4586 C   0  0  0  0  0  0  0  0  0  0  0  0
    2.2474   -8.9123   16.6273 C   0  0  0  0  0  0  0  0  0  0  0  0
    4.4957   -9.2636   17.3041 C   0  0  0  0  0  0  0  0  0  0  0  0
   -1.8070   -5.6086   28.1920 O   0  0  0  0  0  0  0  0  0  0  0  0
   10.4296   -5.1799   28.3140 C   0  0  0  0  0  0  0  0  0  0  0  0
    6.6017   -5.9004   26.9187 C   0  0  0  0  0  0  0  0  0  0  0  0
    2.4761   -6.9940   26.4111 N   0  0  0  0  0  0  0  0  0  0  0  0
    9.1353   -5.4053   27.8239 C   0  0  0  0  0  0  0  0  0  0  0  0
    0.9922   -9.3232   16.5995 O   0  0  0  0  0  0  0  0  0  0  0  0
    1.5232   -7.6869   27.1182 C   0  0  0  0  0  0  0  0  0  0  0  0
    8.6878   -6.6715   27.7262 N   0  0  0  0  0  0  0  0  0  0  0  0
    6.9911   -8.2423   27.1808 C   0  0  0  0  0  0  0  0  0  0  0  0
    3.8436   -7.2758   16.0578 C   0  0  0  0  0  0  0  0  0  0  0  0
    3.1882   -9.7190   17.2566 C   0  0  0  0  0  0  0  0  0  0  0  0
    5.3488   -6.1737   26.5092 C   0  0  0  0  0  0  0  0  0  0  0  0
    7.4567   -6.9464   27.2858 C   0  0  0  0  0  0  0  0  0  0  0  0
    0.1921   -5.7592   27.1123 C   0  0  0  0  0  0  0  0  0  0  0  0
    3.5517   -7.7407   25.9711 C   0  0  0  0  0  0  0  0  0  0  0  0
  1  4  4  0
  1 22  4  0
  2 20  4  0
  2 27  4  0
  3 12  4  0
  3 23  4  0
  4 25  4  0
  4 28  1  0
  5  8  4  0
  5 17  4  0
  6  7  4  0
  6 16  4  0
  7 18  4  0
  8 27  4  0
  9 13  4  0
  9 23  4  0
 10 11  1  0
 11 14  2  0
 11 27  1  0
 12 19  1  0
 12 24  4  0
 13 24  4  0
 15 18  1  0
 16 25  4  0
 16 26  4  0
 17 20  4  0
 17 28  1  0
 18 21  4  0
 21 26  4  0
 22 26  4  0
M  END
$$$$

 Created by Python create_sdf_string function

 28 30  0  0  0  0  0  0  0  0999 V2000
    5.7174   -8.4529   26.7190 C   0  0  0  0  0  0  0  0  0  0  0  0
    0.3974   -7.0711   27.5149 C   0  0  0  0  0  0  0  0  0  0  0  0
    2.5338   -7.6891   16.0102 C   0  0  0  0  0  0  0  0  0  0  0  0
    4.8690   -7.4380   26.4151 C   0  0  0  0  0  0  0  0  0  0  0  0
    2.3021   -5.6726   26.0378 C   0  0  0  0  0  0  0  0  0  0  0  0
    7.0880   -4.6163   27.0010 C   0  0  0  0  0  0  0  0  0  0  0  0
    8.3117   -4.3698   27.4436 C   0  0  0  0  0  0  0  0  0  0  0  0
    1.1339   -5.0515   26.3541 C   0  0  0  0  0  0  0  0  0  0  0  0
    4.8080   -8.0362   16.7101 C   0  0  0  0  0  0  0  0  0  0  0  0
   -1.2173   -3.9294   26.9717 O   0  0  0  0  0  0  0  0  0  0  0  0
   -1.0025   -5.0942   27.4586 C   0  0  0  0  0  0  0  0  0  0  0  0
    2.2474   -8.9123   16.6273 C   0  0  0  0  0  0  0  0  0  0  0  0
    4.4957   -9.2636   17.3041 C   0  0  0  0  0  0  0  0  0  0  0  0
   -1.8070   -5.6086   28.1920 O   0  0  0  0  0  0  0  0  0  0  0  0
   10.4296   -5.1799   28.3140 C   0  0  0  0  0  0  0  0  0  0  0  0
    6.6017   -5.9004   26.9187 C   0  0  0  0  0  0  0  0  0  0  0  0
    2.4761   -6.9940   26.4111 N   0  0  0  0  0  0  0  0  0  0  0  0
    9.1353   -5.4053   27.8239 C   0  0  0  0  0  0  0  0  0  0  0  0
    0.9922   -9.3232   16.5995 O   0  0  0  0  0  0  0  0  0  0  0  0
    1.5232   -7.6869   27.1182 C   0  0  0  0  0  0  0  0  0  0  0  0
    8.6878   -6.6715   27.7262 N   0  0  0  0  0  0  0  0  0  0  0  0
    6.9911   -8.2423   27.1808 C   0  0  0  0  0  0  0  0  0  0  0  0
    3.8436   -7.2758   16.0578 C   0  0  0  0  0  0  0  0  0  0  0  0
    3.1882   -9.7190   17.2566 C   0  0  0  0  0  0  0  0  0  0  0  0
    5.3488   -6.1737   26.5092 C   0  0  0  0  0  0  0  0  0  0  0  0
    7.4567   -6.9464   27.2858 C   0  0  0  0  0  0  0  0  0  0  0  0
    0.1921   -5.7592   27.1123 C   0  0  0  0  0  0  0  0  0  0  0  0
    3.5517   -7.7407   25.9711 C   0  0  0  0  0  0  0  0  0  0  0  0
  1  4  4  0
  1 22  4  0
  2 20  4  0
  2 27  4  0
  3 12  4  0
  3 23  4  0
  4 25  4  0
  4 28  1  0
  5  8  4  0
  5 17  4  0
  6  7  4  0
  6 16  4  0
  7 18  4  0
  8 27  4  0
  9 13  4  0
  9 23  4  0
 10 11  1  0
 11 14  2  0
 11 27  1  0
 12 19  1  0
 12 24  4  0
 13 24  4  0
 15 18  1  0
 16 25  4  0
 16 26  4  0
 17 20  4  0
 17 28  1  0
 18 21  4  0
 21 26  4  0
 22 26  4  0
M  END
$$$$

 Created by Python create_sdf_string function

 28 30  0  0  0  0  0  0  0  0999 V2000
    5.7174   -8.4529   26.7190 C   0  0  0  0  0  0  0  0  0  0  0  0
    0.3974   -7.0711   27.5149 C   0  0  0  0  0  0  0  0  0  0  0  0
    2.5338   -7.6891   16.0102 C   0  0  0  0  0  0  0  0  0  0  0  0
    4.8690   -7.4380   26.4151 C   0  0  0  0  0  0  0  0  0  0  0  0
    2.3021   -5.6726   26.0378 C   0  0  0  0  0  0  0  0  0  0  0  0
    7.0880   -4.6163   27.0010 C   0  0  0  0  0  0  0  0  0  0  0  0
    8.3117   -4.3698   27.4436 C   0  0  0  0  0  0  0  0  0  0  0  0
    1.1339   -5.0515   26.3541 C   0  0  0  0  0  0  0  0  0  0  0  0
    4.8080   -8.0362   16.7101 C   0  0  0  0  0  0  0  0  0  0  0  0
   -1.2173   -3.9294   26.9717 O   0  0  0  0  0  0  0  0  0  0  0  0
   -1.0025   -5.0942   27.4586 C   0  0  0  0  0  0  0  0  0  0  0  0
    2.2474   -8.9123   16.6273 C   0  0  0  0  0  0  0  0  0  0  0  0
    4.4957   -9.2636   17.3041 C   0  0  0  0  0  0  0  0  0  0  0  0
   -1.8070   -5.6086   28.1920 O   0  0  0  0  0  0  0  0  0  0  0  0
   10.4296   -5.1799   28.3140 C   0  0  0  0  0  0  0  0  0  0  0  0
    6.6017   -5.9004   26.9187 C   0  0  0  0  0  0  0  0  0  0  0  0
    2.4761   -6.9940   26.4111 N   0  0  0  0  0  0  0  0  0  0  0  0
    9.1353   -5.4053   27.8239 C   0  0  0  0  0  0  0  0  0  0  0  0
    0.9922   -9.3232   16.5995 O   0  0  0  0  0  0  0  0  0  0  0  0
    1.5232   -7.6869   27.1182 C   0  0  0  0  0  0  0  0  0  0  0  0
    8.6878   -6.6715   27.7262 N   0  0  0  0  0  0  0  0  0  0  0  0
    6.9911   -8.2423   27.1808 C   0  0  0  0  0  0  0  0  0  0  0  0
    3.8436   -7.2758   16.0578 C   0  0  0  0  0  0  0  0  0  0  0  0
    3.1882   -9.7190   17.2566 C   0  0  0  0  0  0  0  0  0  0  0  0
    5.3488   -6.1737   26.5092 C   0  0  0  0  0  0  0  0  0  0  0  0
    7.4567   -6.9464   27.2858 C   0  0  0  0  0  0  0  0  0  0  0  0
    0.1921   -5.7592   27.1123 C   0  0  0  0  0  0  0  0  0  0  0  0
    3.5517   -7.7407   25.9711 C   0  0  0  0  0  0  0  0  0  0  0  0
  1  4  4  0
  1 22  4  0
  2 20  4  0
  2 27  4  0
  3 12  4  0
  3 23  4  0
  4 25  4  0
  4 28  1  0
  5  8  4  0
  5 17  4  0
  6  7  4  0
  6 16  4  0
  7 18  4  0
  8 27  4  0
  9 13  4  0
  9 23  4  0
 10 11  1  0
 11 14  2  0
 11 27  1  0
 12 19  1  0
 12 24  4  0
 13 24  4  0
 15 18  1  0
 16 25  4  0
 16 26  4  0
 17 20  4  0
 17 28  1  0
 18 21  4  0
 21 26  4  0
 22 26  4  0
M  END
$$$$

 Created by Python create_sdf_string function

 28 30  0  0  0  0  0  0  0  0999 V2000
    5.7174   -8.4529   26.7190 C   0  0  0  0  0  0  0  0  0  0  0  0
    0.3974   -7.0711   27.5149 C   0  0  0  0  0  0  0  0  0  0  0  0
    2.5338   -7.6891   16.0102 C   0  0  0  0  0  0  0  0  0  0  0  0
    4.8690   -7.4380   26.4151 C   0  0  0  0  0  0  0  0  0  0  0  0
    2.3021   -5.6726   26.0378 C   0  0  0  0  0  0  0  0  0  0  0  0
    7.0880   -4.6163   27.0010 C   0  0  0  0  0  0  0  0  0  0  0  0
    8.3117   -4.3698   27.4436 C   0  0  0  0  0  0  0  0  0  0  0  0
    1.1339   -5.0515   26.3541 C   0  0  0  0  0  0  0  0  0  0  0  0
    4.8080   -8.0362   16.7101 C   0  0  0  0  0  0  0  0  0  0  0  0
   -1.2173   -3.9294   26.9717 O   0  0  0  0  0  0  0  0  0  0  0  0
   -1.0025   -5.0942   27.4586 C   0  0  0  0  0  0  0  0  0  0  0  0
    2.2474   -8.9123   16.6273 C   0  0  0  0  0  0  0  0  0  0  0  0
    4.4957   -9.2636   17.3041 C   0  0  0  0  0  0  0  0  0  0  0  0
   -1.8070   -5.6086   28.1920 O   0  0  0  0  0  0  0  0  0  0  0  0
   10.4296   -5.1799   28.3140 C   0  0  0  0  0  0  0  0  0  0  0  0
    6.6017   -5.9004   26.9187 C   0  0  0  0  0  0  0  0  0  0  0  0
    2.4761   -6.9940   26.4111 N   0  0  0  0  0  0  0  0  0  0  0  0
    9.1353   -5.4053   27.8239 C   0  0  0  0  0  0  0  0  0  0  0  0
    0.9922   -9.3232   16.5995 O   0  0  0  0  0  0  0  0  0  0  0  0
    1.5232   -7.6869   27.1182 C   0  0  0  0  0  0  0  0  0  0  0  0
    8.6878   -6.6715   27.7262 N   0  0  0  0  0  0  0  0  0  0  0  0
    6.9911   -8.2423   27.1808 C   0  0  0  0  0  0  0  0  0  0  0  0
    3.8436   -7.2758   16.0578 C   0  0  0  0  0  0  0  0  0  0  0  0
    3.1882   -9.7190   17.2566 C   0  0  0  0  0  0  0  0  0  0  0  0
    5.3488   -6.1737   26.5092 C   0  0  0  0  0  0  0  0  0  0  0  0
    7.4567   -6.9464   27.2858 C   0  0  0  0  0  0  0  0  0  0  0  0
    0.1921   -5.7592   27.1123 C   0  0  0  0  0  0  0  0  0  0  0  0
    3.5517   -7.7407   25.9711 C   0  0  0  0  0  0  0  0  0  0  0  0
  1  4  4  0
  1 22  4  0
  2 20  4  0
  2 27  4  0
  3 12  4  0
  3 23  4  0
  4 25  4  0
  4 28  1  0
  5  8  4  0
  5 17  4  0
  6  7  4  0
  6 16  4  0
  7 18  4  0
  8 27  4  0
  9 13  4  0
  9 23  4  0
 10 11  1  0
 11 14  2  0
 11 27  1  0
 12 19  1  0
 12 24  4  0
 13 24  4  0
 15 18  1  0
 16 25  4  0
 16 26  4  0
 17 20  4  0
 17 28  1  0
 18 21  4  0
 21 26  4  0
 22 26  4  0
M  END
$$$$

 Created by Python create_sdf_string function

 28 30  0  0  0  0  0  0  0  0999 V2000
    5.7174   -8.4529   26.7190 C   0  0  0  0  0  0  0  0  0  0  0  0
    0.3974   -7.0711   27.5149 C   0  0  0  0  0  0  0  0  0  0  0  0
    2.5338   -7.6891   16.0102 C   0  0  0  0  0  0  0  0  0  0  0  0
    4.8690   -7.4380   26.4151 C   0  0  0  0  0  0  0  0  0  0  0  0
    2.3021   -5.6726   26.0378 C   0  0  0  0  0  0  0  0  0  0  0  0
    7.0880   -4.6163   27.0010 C   0  0  0  0  0  0  0  0  0  0  0  0
    8.3117   -4.3698   27.4436 C   0  0  0  0  0  0  0  0  0  0  0  0
    1.1339   -5.0515   26.3541 C   0  0  0  0  0  0  0  0  0  0  0  0
    4.8080   -8.0362   16.7101 C   0  0  0  0  0  0  0  0  0  0  0  0
   -1.2173   -3.9294   26.9717 O   0  0  0  0  0  0  0  0  0  0  0  0
   -1.0025   -5.0942   27.4586 C   0  0  0  0  0  0  0  0  0  0  0  0
    2.2474   -8.9123   16.6273 C   0  0  0  0  0  0  0  0  0  0  0  0
    4.4957   -9.2636   17.3041 C   0  0  0  0  0  0  0  0  0  0  0  0
   -1.8070   -5.6086   28.1920 O   0  0  0  0  0  0  0  0  0  0  0  0
   10.4296   -5.1799   28.3140 C   0  0  0  0  0  0  0  0  0  0  0  0
    6.6017   -5.9004   26.9187 C   0  0  0  0  0  0  0  0  0  0  0  0
    2.4761   -6.9940   26.4111 N   0  0  0  0  0  0  0  0  0  0  0  0
    9.1353   -5.4053   27.8239 C   0  0  0  0  0  0  0  0  0  0  0  0
    0.9922   -9.3232   16.5995 O   0  0  0  0  0  0  0  0  0  0  0  0
    1.5232   -7.6869   27.1182 C   0  0  0  0  0  0  0  0  0  0  0  0
    8.6878   -6.6715   27.7262 N   0  0  0  0  0  0  0  0  0  0  0  0
    6.9911   -8.2423   27.1808 C   0  0  0  0  0  0  0  0  0  0  0  0
    3.8436   -7.2758   16.0578 C   0  0  0  0  0  0  0  0  0  0  0  0
    3.1882   -9.7190   17.2566 C   0  0  0  0  0  0  0  0  0  0  0  0
    5.3488   -6.1737   26.5092 C   0  0  0  0  0  0  0  0  0  0  0  0
    7.4567   -6.9464   27.2858 C   0  0  0  0  0  0  0  0  0  0  0  0
    0.1921   -5.7592   27.1123 C   0  0  0  0  0  0  0  0  0  0  0  0
    3.5517   -7.7407   25.9711 C   0  0  0  0  0  0  0  0  0  0  0  0
  1  4  4  0
  1 22  4  0
  2 20  4  0
  2 27  4  0
  3 12  4  0
  3 23  4  0
  4 25  4  0
  4 28  1  0
  5  8  4  0
  5 17  4  0
  6  7  4  0
  6 16  4  0
  7 18  4  0
  8 27  4  0
  9 13  4  0
  9 23  4  0
 10 11  1  0
 11 14  2  0
 11 27  1  0
 12 19  1  0
 12 24  4  0
 13 24  4  0
 15 18  1  0
 16 25  4  0
 16 26  4  0
 17 20  4  0
 17 28  1  0
 18 21  4  0
 21 26  4  0
 22 26  4  0
M  END
$$$$

 Created by Python create_sdf_string function

 28 30  0  0  0  0  0  0  0  0999 V2000
    5.7174   -8.4529   26.7190 C   0  0  0  0  0  0  0  0  0  0  0  0
    0.3974   -7.0711   27.5149 C   0  0  0  0  0  0  0  0  0  0  0  0
    2.5338   -7.6891   16.0102 C   0  0  0  0  0  0  0  0  0  0  0  0
    4.8690   -7.4380   26.4151 C   0  0  0  0  0  0  0  0  0  0  0  0
    2.3021   -5.6726   26.0378 C   0  0  0  0  0  0  0  0  0  0  0  0
    7.0880   -4.6163   27.0010 C   0  0  0  0  0  0  0  0  0  0  0  0
    8.3117   -4.3698   27.4436 C   0  0  0  0  0  0  0  0  0  0  0  0
    1.1339   -5.0515   26.3541 C   0  0  0  0  0  0  0  0  0  0  0  0
    4.8080   -8.0362   16.7101 C   0  0  0  0  0  0  0  0  0  0  0  0
   -1.2173   -3.9294   26.9717 O   0  0  0  0  0  0  0  0  0  0  0  0
   -1.0025   -5.0942   27.4586 C   0  0  0  0  0  0  0  0  0  0  0  0
    2.2474   -8.9123   16.6273 C   0  0  0  0  0  0  0  0  0  0  0  0
    4.4957   -9.2636   17.3041 C   0  0  0  0  0  0  0  0  0  0  0  0
   -1.8070   -5.6086   28.1920 O   0  0  0  0  0  0  0  0  0  0  0  0
   10.4296   -5.1799   28.3140 C   0  0  0  0  0  0  0  0  0  0  0  0
    6.6017   -5.9004   26.9187 C   0  0  0  0  0  0  0  0  0  0  0  0
    2.4761   -6.9940   26.4111 N   0  0  0  0  0  0  0  0  0  0  0  0
    9.1353   -5.4053   27.8239 C   0  0  0  0  0  0  0  0  0  0  0  0
    0.9922   -9.3232   16.5995 O   0  0  0  0  0  0  0  0  0  0  0  0
    1.5232   -7.6869   27.1182 C   0  0  0  0  0  0  0  0  0  0  0  0
    8.6878   -6.6715   27.7262 N   0  0  0  0  0  0  0  0  0  0  0  0
    6.9911   -8.2423   27.1808 C   0  0  0  0  0  0  0  0  0  0  0  0
    3.8436   -7.2758   16.0578 C   0  0  0  0  0  0  0  0  0  0  0  0
    3.1882   -9.7190   17.2566 C   0  0  0  0  0  0  0  0  0  0  0  0
    5.3488   -6.1737   26.5092 C   0  0  0  0  0  0  0  0  0  0  0  0
    7.4567   -6.9464   27.2858 C   0  0  0  0  0  0  0  0  0  0  0  0
    0.1921   -5.7592   27.1123 C   0  0  0  0  0  0  0  0  0  0  0  0
    3.5517   -7.7407   25.9711 C   0  0  0  0  0  0  0  0  0  0  0  0
  1  4  4  0
  1 22  4  0
  2 20  4  0
  2 27  4  0
  3 12  4  0
  3 23  4  0
  4 25  4  0
  4 28  1  0
  5  8  4  0
  5 17  4  0
  6  7  4  0
  6 16  4  0
  7 18  4  0
  8 27  4  0
  9 13  4  0
  9 23  4  0
 10 11  1  0
 11 14  2  0
 11 27  1  0
 12 19  1  0
 12 24  4  0
 13 24  4  0
 15 18  1  0
 16 25  4  0
 16 26  4  0
 17 20  4  0
 17 28  1  0
 18 21  4  0
 21 26  4  0
 22 26  4  0
M  END
$$$$

 Created by Python create_sdf_string function

 28 30  0  0  0  0  0  0  0  0999 V2000
    5.7174   -8.4529   26.7190 C   0  0  0  0  0  0  0  0  0  0  0  0
    0.3974   -7.0711   27.5149 C   0  0  0  0  0  0  0  0  0  0  0  0
    2.5338   -7.6891   16.0102 C   0  0  0  0  0  0  0  0  0  0  0  0
    4.8690   -7.4380   26.4151 C   0  0  0  0  0  0  0  0  0  0  0  0
    2.3021   -5.6726   26.0378 C   0  0  0  0  0  0  0  0  0  0  0  0
    7.0880   -4.6163   27.0010 C   0  0  0  0  0  0  0  0  0  0  0  0
    8.3117   -4.3698   27.4436 C   0  0  0  0  0  0  0  0  0  0  0  0
    1.1339   -5.0515   26.3541 C   0  0  0  0  0  0  0  0  0  0  0  0
    4.8080   -8.0362   16.7101 C   0  0  0  0  0  0  0  0  0  0  0  0
   -1.2173   -3.9294   26.9717 O   0  0  0  0  0  0  0  0  0  0  0  0
   -1.0025   -5.0942   27.4586 C   0  0  0  0  0  0  0  0  0  0  0  0
    2.2474   -8.9123   16.6273 C   0  0  0  0  0  0  0  0  0  0  0  0
    4.4957   -9.2636   17.3041 C   0  0  0  0  0  0  0  0  0  0  0  0
   -1.8070   -5.6086   28.1920 O   0  0  0  0  0  0  0  0  0  0  0  0
   10.4296   -5.1799   28.3140 C   0  0  0  0  0  0  0  0  0  0  0  0
    6.6017   -5.9004   26.9187 C   0  0  0  0  0  0  0  0  0  0  0  0
    2.4761   -6.9940   26.4111 N   0  0  0  0  0  0  0  0  0  0  0  0
    9.1353   -5.4053   27.8239 C   0  0  0  0  0  0  0  0  0  0  0  0
    0.9922   -9.3232   16.5995 O   0  0  0  0  0  0  0  0  0  0  0  0
    1.5232   -7.6869   27.1182 C   0  0  0  0  0  0  0  0  0  0  0  0
    8.6878   -6.6715   27.7262 N   0  0  0  0  0  0  0  0  0  0  0  0
    6.9911   -8.2423   27.1808 C   0  0  0  0  0  0  0  0  0  0  0  0
    3.8436   -7.2758   16.0578 C   0  0  0  0  0  0  0  0  0  0  0  0
    3.1882   -9.7190   17.2566 C   0  0  0  0  0  0  0  0  0  0  0  0
    5.3488   -6.1737   26.5092 C   0  0  0  0  0  0  0  0  0  0  0  0
    7.4567   -6.9464   27.2858 C   0  0  0  0  0  0  0  0  0  0  0  0
    0.1921   -5.7592   27.1123 C   0  0  0  0  0  0  0  0  0  0  0  0
    3.5517   -7.7407   25.9711 C   0  0  0  0  0  0  0  0  0  0  0  0
  1  4  4  0
  1 22  4  0
  2 20  4  0
  2 27  4  0
  3 12  4  0
  3 23  4  0
  4 25  4  0
  4 28  1  0
  5  8  4  0
  5 17  4  0
  6  7  4  0
  6 16  4  0
  7 18  4  0
  8 27  4  0
  9 13  4  0
  9 23  4  0
 10 11  1  0
 11 14  2  0
 11 27  1  0
 12 19  1  0
 12 24  4  0
 13 24  4  0
 15 18  1  0
 16 25  4  0
 16 26  4  0
 17 20  4  0
 17 28  1  0
 18 21  4  0
 21 26  4  0
 22 26  4  0
M  END
$$$$

 Created by Python create_sdf_string function

 28 30  0  0  0  0  0  0  0  0999 V2000
    5.7174   -8.4529   26.7190 C   0  0  0  0  0  0  0  0  0  0  0  0
    0.3974   -7.0711   27.5149 C   0  0  0  0  0  0  0  0  0  0  0  0
    2.5338   -7.6891   16.0102 C   0  0  0  0  0  0  0  0  0  0  0  0
    4.8690   -7.4380   26.4151 C   0  0  0  0  0  0  0  0  0  0  0  0
    2.3021   -5.6726   26.0378 C   0  0  0  0  0  0  0  0  0  0  0  0
    7.0880   -4.6163   27.0010 C   0  0  0  0  0  0  0  0  0  0  0  0
    8.3117   -4.3698   27.4436 C   0  0  0  0  0  0  0  0  0  0  0  0
    1.1339   -5.0515   26.3541 C   0  0  0  0  0  0  0  0  0  0  0  0
    4.8080   -8.0362   16.7101 C   0  0  0  0  0  0  0  0  0  0  0  0
   -1.2173   -3.9294   26.9717 O   0  0  0  0  0  0  0  0  0  0  0  0
   -1.0025   -5.0942   27.4586 C   0  0  0  0  0  0  0  0  0  0  0  0
    2.2474   -8.9123   16.6273 C   0  0  0  0  0  0  0  0  0  0  0  0
    4.4957   -9.2636   17.3041 C   0  0  0  0  0  0  0  0  0  0  0  0
   -1.8070   -5.6086   28.1920 O   0  0  0  0  0  0  0  0  0  0  0  0
   10.4296   -5.1799   28.3140 C   0  0  0  0  0  0  0  0  0  0  0  0
    6.6017   -5.9004   26.9187 C   0  0  0  0  0  0  0  0  0  0  0  0
    2.4761   -6.9940   26.4111 N   0  0  0  0  0  0  0  0  0  0  0  0
    9.1353   -5.4053   27.8239 C   0  0  0  0  0  0  0  0  0  0  0  0
    0.9922   -9.3232   16.5995 O   0  0  0  0  0  0  0  0  0  0  0  0
    1.5232   -7.6869   27.1182 C   0  0  0  0  0  0  0  0  0  0  0  0
    8.6878   -6.6715   27.7262 N   0  0  0  0  0  0  0  0  0  0  0  0
    6.9911   -8.2423   27.1808 C   0  0  0  0  0  0  0  0  0  0  0  0
    3.8436   -7.2758   16.0578 C   0  0  0  0  0  0  0  0  0  0  0  0
    3.1882   -9.7190   17.2566 C   0  0  0  0  0  0  0  0  0  0  0  0
    5.3488   -6.1737   26.5092 C   0  0  0  0  0  0  0  0  0  0  0  0
    7.4567   -6.9464   27.2858 C   0  0  0  0  0  0  0  0  0  0  0  0
    0.1921   -5.7592   27.1123 C   0  0  0  0  0  0  0  0  0  0  0  0
    3.5517   -7.7407   25.9711 C   0  0  0  0  0  0  0  0  0  0  0  0
  1  4  4  0
  1 22  4  0
  2 20  4  0
  2 27  4  0
  3 12  4  0
  3 23  4  0
  4 25  4  0
  4 28  1  0
  5  8  4  0
  5 17  4  0
  6  7  4  0
  6 16  4  0
  7 18  4  0
  8 27  4  0
  9 13  4  0
  9 23  4  0
 10 11  1  0
 11 14  2  0
 11 27  1  0
 12 19  1  0
 12 24  4  0
 13 24  4  0
 15 18  1  0
 16 25  4  0
 16 26  4  0
 17 20  4  0
 17 28  1  0
 18 21  4  0
 21 26  4  0
 22 26  4  0
M  END
$$$$

 Created by Python create_sdf_string function

 28 30  0  0  0  0  0  0  0  0999 V2000
    5.7174   -8.4529   26.7190 C   0  0  0  0  0  0  0  0  0  0  0  0
    0.3974   -7.0711   27.5149 C   0  0  0  0  0  0  0  0  0  0  0  0
    2.5338   -7.6891   16.0102 C   0  0  0  0  0  0  0  0  0  0  0  0
    4.8690   -7.4380   26.4151 C   0  0  0  0  0  0  0  0  0  0  0  0
    2.3021   -5.6726   26.0378 C   0  0  0  0  0  0  0  0  0  0  0  0
    7.0880   -4.6163   27.0010 C   0  0  0  0  0  0  0  0  0  0  0  0
    8.3117   -4.3698   27.4436 C   0  0  0  0  0  0  0  0  0  0  0  0
    1.1339   -5.0515   26.3541 C   0  0  0  0  0  0  0  0  0  0  0  0
    4.8080   -8.0362   16.7101 C   0  0  0  0  0  0  0  0  0  0  0  0
   -1.2173   -3.9294   26.9717 O   0  0  0  0  0  0  0  0  0  0  0  0
   -1.0025   -5.0942   27.4586 C   0  0  0  0  0  0  0  0  0  0  0  0
    2.2474   -8.9123   16.6273 C   0  0  0  0  0  0  0  0  0  0  0  0
    4.4957   -9.2636   17.3041 C   0  0  0  0  0  0  0  0  0  0  0  0
   -1.8070   -5.6086   28.1920 O   0  0  0  0  0  0  0  0  0  0  0  0
   10.4296   -5.1799   28.3140 C   0  0  0  0  0  0  0  0  0  0  0  0
    6.6017   -5.9004   26.9187 C   0  0  0  0  0  0  0  0  0  0  0  0
    2.4761   -6.9940   26.4111 N   0  0  0  0  0  0  0  0  0  0  0  0
    9.1353   -5.4053   27.8239 C   0  0  0  0  0  0  0  0  0  0  0  0
    0.9922   -9.3232   16.5995 O   0  0  0  0  0  0  0  0  0  0  0  0
    1.5232   -7.6869   27.1182 C   0  0  0  0  0  0  0  0  0  0  0  0
    8.6878   -6.6715   27.7262 N   0  0  0  0  0  0  0  0  0  0  0  0
    6.9911   -8.2423   27.1808 C   0  0  0  0  0  0  0  0  0  0  0  0
    3.8436   -7.2758   16.0578 C   0  0  0  0  0  0  0  0  0  0  0  0
    3.1882   -9.7190   17.2566 C   0  0  0  0  0  0  0  0  0  0  0  0
    5.3488   -6.1737   26.5092 C   0  0  0  0  0  0  0  0  0  0  0  0
    7.4567   -6.9464   27.2858 C   0  0  0  0  0  0  0  0  0  0  0  0
    0.1921   -5.7592   27.1123 C   0  0  0  0  0  0  0  0  0  0  0  0
    3.5517   -7.7407   25.9711 C   0  0  0  0  0  0  0  0  0  0  0  0
  1  4  4  0
  1 22  4  0
  2 20  4  0
  2 27  4  0
  3 12  4  0
  3 23  4  0
  4 25  4  0
  4 28  1  0
  5  8  4  0
  5 17  4  0
  6  7  4  0
  6 16  4  0
  7 18  4  0
  8 27  4  0
  9 13  4  0
  9 23  4  0
 10 11  1  0
 11 14  2  0
 11 27  1  0
 12 19  1  0
 12 24  4  0
 13 24  4  0
 15 18  1  0
 16 25  4  0
 16 26  4  0
 17 20  4  0
 17 28  1  0
 18 21  4  0
 21 26  4  0
 22 26  4  0
M  END
$$$$

 Created by Python create_sdf_string function

 28 30  0  0  0  0  0  0  0  0999 V2000
    5.7174   -8.4529   26.7190 C   0  0  0  0  0  0  0  0  0  0  0  0
    0.3974   -7.0711   27.5149 C   0  0  0  0  0  0  0  0  0  0  0  0
    2.5338   -7.6891   16.0102 C   0  0  0  0  0  0  0  0  0  0  0  0
    4.8690   -7.4380   26.4151 C   0  0  0  0  0  0  0  0  0  0  0  0
    2.3021   -5.6726   26.0378 C   0  0  0  0  0  0  0  0  0  0  0  0
    7.0880   -4.6163   27.0010 C   0  0  0  0  0  0  0  0  0  0  0  0
    8.3117   -4.3698   27.4436 C   0  0  0  0  0  0  0  0  0  0  0  0
    1.1339   -5.0515   26.3541 C   0  0  0  0  0  0  0  0  0  0  0  0
    4.8080   -8.0362   16.7101 C   0  0  0  0  0  0  0  0  0  0  0  0
   -1.2173   -3.9294   26.9717 O   0  0  0  0  0  0  0  0  0  0  0  0
   -1.0025   -5.0942   27.4586 C   0  0  0  0  0  0  0  0  0  0  0  0
    2.2474   -8.9123   16.6273 C   0  0  0  0  0  0  0  0  0  0  0  0
    4.4957   -9.2636   17.3041 C   0  0  0  0  0  0  0  0  0  0  0  0
   -1.8070   -5.6086   28.1920 O   0  0  0  0  0  0  0  0  0  0  0  0
   10.4296   -5.1799   28.3140 C   0  0  0  0  0  0  0  0  0  0  0  0
    6.6017   -5.9004   26.9187 C   0  0  0  0  0  0  0  0  0  0  0  0
    2.4761   -6.9940   26.4111 N   0  0  0  0  0  0  0  0  0  0  0  0
    9.1353   -5.4053   27.8239 C   0  0  0  0  0  0  0  0  0  0  0  0
    0.9922   -9.3232   16.5995 O   0  0  0  0  0  0  0  0  0  0  0  0
    1.5232   -7.6869   27.1182 C   0  0  0  0  0  0  0  0  0  0  0  0
    8.6878   -6.6715   27.7262 N   0  0  0  0  0  0  0  0  0  0  0  0
    6.9911   -8.2423   27.1808 C   0  0  0  0  0  0  0  0  0  0  0  0
    3.8436   -7.2758   16.0578 C   0  0  0  0  0  0  0  0  0  0  0  0
    3.1882   -9.7190   17.2566 C   0  0  0  0  0  0  0  0  0  0  0  0
    5.3488   -6.1737   26.5092 C   0  0  0  0  0  0  0  0  0  0  0  0
    7.4567   -6.9464   27.2858 C   0  0  0  0  0  0  0  0  0  0  0  0
    0.1921   -5.7592   27.1123 C   0  0  0  0  0  0  0  0  0  0  0  0
    3.5517   -7.7407   25.9711 C   0  0  0  0  0  0  0  0  0  0  0  0
  1  4  4  0
  1 22  4  0
  2 20  4  0
  2 27  4  0
  3 12  4  0
  3 23  4  0
  4 25  4  0
  4 28  1  0
  5  8  4  0
  5 17  4  0
  6  7  4  0
  6 16  4  0
  7 18  4  0
  8 27  4  0
  9 13  4  0
  9 23  4  0
 10 11  1  0
 11 14  2  0
 11 27  1  0
 12 19  1  0
 12 24  4  0
 13 24  4  0
 15 18  1  0
 16 25  4  0
 16 26  4  0
 17 20  4  0
 17 28  1  0
 18 21  4  0
 21 26  4  0
 22 26  4  0
M  END
$$$$

 Created by Python create_sdf_string function

 28 30  0  0  0  0  0  0  0  0999 V2000
    5.7174   -8.4529   26.7190 C   0  0  0  0  0  0  0  0  0  0  0  0
    0.3974   -7.0711   27.5149 C   0  0  0  0  0  0  0  0  0  0  0  0
    2.5338   -7.6891   16.0102 C   0  0  0  0  0  0  0  0  0  0  0  0
    4.8690   -7.4380   26.4151 C   0  0  0  0  0  0  0  0  0  0  0  0
    2.3021   -5.6726   26.0378 C   0  0  0  0  0  0  0  0  0  0  0  0
    7.0880   -4.6163   27.0010 C   0  0  0  0  0  0  0  0  0  0  0  0
    8.3117   -4.3698   27.4436 C   0  0  0  0  0  0  0  0  0  0  0  0
    1.1339   -5.0515   26.3541 C   0  0  0  0  0  0  0  0  0  0  0  0
    4.8080   -8.0362   16.7101 C   0  0  0  0  0  0  0  0  0  0  0  0
   -1.2173   -3.9294   26.9717 O   0  0  0  0  0  0  0  0  0  0  0  0
   -1.0025   -5.0942   27.4586 C   0  0  0  0  0  0  0  0  0  0  0  0
    2.2474   -8.9123   16.6273 C   0  0  0  0  0  0  0  0  0  0  0  0
    4.4957   -9.2636   17.3041 C   0  0  0  0  0  0  0  0  0  0  0  0
   -1.8070   -5.6086   28.1920 O   0  0  0  0  0  0  0  0  0  0  0  0
   10.4296   -5.1799   28.3140 C   0  0  0  0  0  0  0  0  0  0  0  0
    6.6017   -5.9004   26.9187 C   0  0  0  0  0  0  0  0  0  0  0  0
    2.4761   -6.9940   26.4111 N   0  0  0  0  0  0  0  0  0  0  0  0
    9.1353   -5.4053   27.8239 C   0  0  0  0  0  0  0  0  0  0  0  0
    0.9922   -9.3232   16.5995 O   0  0  0  0  0  0  0  0  0  0  0  0
    1.5232   -7.6869   27.1182 C   0  0  0  0  0  0  0  0  0  0  0  0
    8.6878   -6.6715   27.7262 N   0  0  0  0  0  0  0  0  0  0  0  0
    6.9911   -8.2423   27.1808 C   0  0  0  0  0  0  0  0  0  0  0  0
    3.8436   -7.2758   16.0578 C   0  0  0  0  0  0  0  0  0  0  0  0
    3.1882   -9.7190   17.2566 C   0  0  0  0  0  0  0  0  0  0  0  0
    5.3488   -6.1737   26.5092 C   0  0  0  0  0  0  0  0  0  0  0  0
    7.4567   -6.9464   27.2858 C   0  0  0  0  0  0  0  0  0  0  0  0
    0.1921   -5.7592   27.1123 C   0  0  0  0  0  0  0  0  0  0  0  0
    3.5517   -7.7407   25.9711 C   0  0  0  0  0  0  0  0  0  0  0  0
  1  4  4  0
  1 22  4  0
  2 20  4  0
  2 27  4  0
  3 12  4  0
  3 23  4  0
  4 25  4  0
  4 28  1  0
  5  8  4  0
  5 17  4  0
  6  7  4  0
  6 16  4  0
  7 18  4  0
  8 27  4  0
  9 13  4  0
  9 23  4  0
 10 11  1  0
 11 14  2  0
 11 27  1  0
 12 19  1  0
 12 24  4  0
 13 24  4  0
 15 18  1  0
 16 25  4  0
 16 26  4  0
 17 20  4  0
 17 28  1  0
 18 21  4  0
 21 26  4  0
 22 26  4  0
M  END
$$$$

 Created by Python create_sdf_string function

 28 30  0  0  0  0  0  0  0  0999 V2000
    5.7174   -8.4529   26.7190 C   0  0  0  0  0  0  0  0  0  0  0  0
    0.3974   -7.0711   27.5149 C   0  0  0  0  0  0  0  0  0  0  0  0
    2.5338   -7.6891   16.0102 C   0  0  0  0  0  0  0  0  0  0  0  0
    4.8690   -7.4380   26.4151 C   0  0  0  0  0  0  0  0  0  0  0  0
    2.3021   -5.6726   26.0378 C   0  0  0  0  0  0  0  0  0  0  0  0
    7.0880   -4.6163   27.0010 C   0  0  0  0  0  0  0  0  0  0  0  0
    8.3117   -4.3698   27.4436 C   0  0  0  0  0  0  0  0  0  0  0  0
    1.1339   -5.0515   26.3541 C   0  0  0  0  0  0  0  0  0  0  0  0
    4.8080   -8.0362   16.7101 C   0  0  0  0  0  0  0  0  0  0  0  0
   -1.2173   -3.9294   26.9717 O   0  0  0  0  0  0  0  0  0  0  0  0
   -1.0025   -5.0942   27.4586 C   0  0  0  0  0  0  0  0  0  0  0  0
    2.2474   -8.9123   16.6273 C   0  0  0  0  0  0  0  0  0  0  0  0
    4.4957   -9.2636   17.3041 C   0  0  0  0  0  0  0  0  0  0  0  0
   -1.8070   -5.6086   28.1920 O   0  0  0  0  0  0  0  0  0  0  0  0
   10.4296   -5.1799   28.3140 C   0  0  0  0  0  0  0  0  0  0  0  0
    6.6017   -5.9004   26.9187 C   0  0  0  0  0  0  0  0  0  0  0  0
    2.4761   -6.9940   26.4111 N   0  0  0  0  0  0  0  0  0  0  0  0
    9.1353   -5.4053   27.8239 C   0  0  0  0  0  0  0  0  0  0  0  0
    0.9922   -9.3232   16.5995 O   0  0  0  0  0  0  0  0  0  0  0  0
    1.5232   -7.6869   27.1182 C   0  0  0  0  0  0  0  0  0  0  0  0
    8.6878   -6.6715   27.7262 N   0  0  0  0  0  0  0  0  0  0  0  0
    6.9911   -8.2423   27.1808 C   0  0  0  0  0  0  0  0  0  0  0  0
    3.8436   -7.2758   16.0578 C   0  0  0  0  0  0  0  0  0  0  0  0
    3.1882   -9.7190   17.2566 C   0  0  0  0  0  0  0  0  0  0  0  0
    5.3488   -6.1737   26.5092 C   0  0  0  0  0  0  0  0  0  0  0  0
    7.4567   -6.9464   27.2858 C   0  0  0  0  0  0  0  0  0  0  0  0
    0.1921   -5.7592   27.1123 C   0  0  0  0  0  0  0  0  0  0  0  0
    3.5517   -7.7407   25.9711 C   0  0  0  0  0  0  0  0  0  0  0  0
  1  4  4  0
  1 22  4  0
  2 20  4  0
  2 27  4  0
  3 12  4  0
  3 23  4  0
  4 25  4  0
  4 28  1  0
  5  8  4  0
  5 17  4  0
  6  7  4  0
  6 16  4  0
  7 18  4  0
  8 27  4  0
  9 13  4  0
  9 23  4  0
 10 11  1  0
 11 14  2  0
 11 27  1  0
 12 19  1  0
 12 24  4  0
 13 24  4  0
 15 18  1  0
 16 25  4  0
 16 26  4  0
 17 20  4  0
 17 28  1  0
 18 21  4  0
 21 26  4  0
 22 26  4  0
M  END
$$$$

 Created by Python create_sdf_string function

 28 30  0  0  0  0  0  0  0  0999 V2000
    5.7174   -8.4529   26.7190 C   0  0  0  0  0  0  0  0  0  0  0  0
    0.3974   -7.0711   27.5149 C   0  0  0  0  0  0  0  0  0  0  0  0
    2.5338   -7.6891   16.0102 C   0  0  0  0  0  0  0  0  0  0  0  0
    4.8690   -7.4380   26.4151 C   0  0  0  0  0  0  0  0  0  0  0  0
    2.3021   -5.6726   26.0378 C   0  0  0  0  0  0  0  0  0  0  0  0
    7.0880   -4.6163   27.0010 C   0  0  0  0  0  0  0  0  0  0  0  0
    8.3117   -4.3698   27.4436 C   0  0  0  0  0  0  0  0  0  0  0  0
    1.1339   -5.0515   26.3541 C   0  0  0  0  0  0  0  0  0  0  0  0
    4.8080   -8.0362   16.7101 C   0  0  0  0  0  0  0  0  0  0  0  0
   -1.2173   -3.9294   26.9717 O   0  0  0  0  0  0  0  0  0  0  0  0
   -1.0025   -5.0942   27.4586 C   0  0  0  0  0  0  0  0  0  0  0  0
    2.2474   -8.9123   16.6273 C   0  0  0  0  0  0  0  0  0  0  0  0
    4.4957   -9.2636   17.3041 C   0  0  0  0  0  0  0  0  0  0  0  0
   -1.8070   -5.6086   28.1920 O   0  0  0  0  0  0  0  0  0  0  0  0
   10.4296   -5.1799   28.3140 C   0  0  0  0  0  0  0  0  0  0  0  0
    6.6017   -5.9004   26.9187 C   0  0  0  0  0  0  0  0  0  0  0  0
    2.4761   -6.9940   26.4111 N   0  0  0  0  0  0  0  0  0  0  0  0
    9.1353   -5.4053   27.8239 C   0  0  0  0  0  0  0  0  0  0  0  0
    0.9922   -9.3232   16.5995 O   0  0  0  0  0  0  0  0  0  0  0  0
    1.5232   -7.6869   27.1182 C   0  0  0  0  0  0  0  0  0  0  0  0
    8.6878   -6.6715   27.7262 N   0  0  0  0  0  0  0  0  0  0  0  0
    6.9911   -8.2423   27.1808 C   0  0  0  0  0  0  0  0  0  0  0  0
    3.8436   -7.2758   16.0578 C   0  0  0  0  0  0  0  0  0  0  0  0
    3.1882   -9.7190   17.2566 C   0  0  0  0  0  0  0  0  0  0  0  0
    5.3488   -6.1737   26.5092 C   0  0  0  0  0  0  0  0  0  0  0  0
    7.4567   -6.9464   27.2858 C   0  0  0  0  0  0  0  0  0  0  0  0
    0.1921   -5.7592   27.1123 C   0  0  0  0  0  0  0  0  0  0  0  0
    3.5517   -7.7407   25.9711 C   0  0  0  0  0  0  0  0  0  0  0  0
  1  4  4  0
  1 22  4  0
  2 20  4  0
  2 27  4  0
  3 12  4  0
  3 23  4  0
  4 25  4  0
  4 28  1  0
  5  8  4  0
  5 17  4  0
  6  7  4  0
  6 16  4  0
  7 18  4  0
  8 27  4  0
  9 13  4  0
  9 23  4  0
 10 11  1  0
 11 14  2  0
 11 27  1  0
 12 19  1  0
 12 24  4  0
 13 24  4  0
 15 18  1  0
 16 25  4  0
 16 26  4  0
 17 20  4  0
 17 28  1  0
 18 21  4  0
 21 26  4  0
 22 26  4  0
M  END
$$$$

 Created by Python create_sdf_string function

 28 30  0  0  0  0  0  0  0  0999 V2000
    5.7174   -8.4529   26.7190 C   0  0  0  0  0  0  0  0  0  0  0  0
    0.3974   -7.0711   27.5149 C   0  0  0  0  0  0  0  0  0  0  0  0
    2.5338   -7.6891   16.0102 C   0  0  0  0  0  0  0  0  0  0  0  0
    4.8690   -7.4380   26.4151 C   0  0  0  0  0  0  0  0  0  0  0  0
    2.3021   -5.6726   26.0378 C   0  0  0  0  0  0  0  0  0  0  0  0
    7.0880   -4.6163   27.0010 C   0  0  0  0  0  0  0  0  0  0  0  0
    8.3117   -4.3698   27.4436 C   0  0  0  0  0  0  0  0  0  0  0  0
    1.1339   -5.0515   26.3541 C   0  0  0  0  0  0  0  0  0  0  0  0
    4.8080   -8.0362   16.7101 C   0  0  0  0  0  0  0  0  0  0  0  0
   -1.2173   -3.9294   26.9717 O   0  0  0  0  0  0  0  0  0  0  0  0
   -1.0025   -5.0942   27.4586 C   0  0  0  0  0  0  0  0  0  0  0  0
    2.2474   -8.9123   16.6273 C   0  0  0  0  0  0  0  0  0  0  0  0
    4.4957   -9.2636   17.3041 C   0  0  0  0  0  0  0  0  0  0  0  0
   -1.8070   -5.6086   28.1920 O   0  0  0  0  0  0  0  0  0  0  0  0
   10.4296   -5.1799   28.3140 C   0  0  0  0  0  0  0  0  0  0  0  0
    6.6017   -5.9004   26.9187 C   0  0  0  0  0  0  0  0  0  0  0  0
    2.4761   -6.9940   26.4111 N   0  0  0  0  0  0  0  0  0  0  0  0
    9.1353   -5.4053   27.8239 C   0  0  0  0  0  0  0  0  0  0  0  0
    0.9922   -9.3232   16.5995 O   0  0  0  0  0  0  0  0  0  0  0  0
    1.5232   -7.6869   27.1182 C   0  0  0  0  0  0  0  0  0  0  0  0
    8.6878   -6.6715   27.7262 N   0  0  0  0  0  0  0  0  0  0  0  0
    6.9911   -8.2423   27.1808 C   0  0  0  0  0  0  0  0  0  0  0  0
    3.8436   -7.2758   16.0578 C   0  0  0  0  0  0  0  0  0  0  0  0
    3.1882   -9.7190   17.2566 C   0  0  0  0  0  0  0  0  0  0  0  0
    5.3488   -6.1737   26.5092 C   0  0  0  0  0  0  0  0  0  0  0  0
    7.4567   -6.9464   27.2858 C   0  0  0  0  0  0  0  0  0  0  0  0
    0.1921   -5.7592   27.1123 C   0  0  0  0  0  0  0  0  0  0  0  0
    3.5517   -7.7407   25.9711 C   0  0  0  0  0  0  0  0  0  0  0  0
  1  4  4  0
  1 22  4  0
  2 20  4  0
  2 27  4  0
  3 12  4  0
  3 23  4  0
  4 25  4  0
  4 28  1  0
  5  8  4  0
  5 17  4  0
  6  7  4  0
  6 16  4  0
  7 18  4  0
  8 27  4  0
  9 13  4  0
  9 23  4  0
 10 11  1  0
 11 14  2  0
 11 27  1  0
 12 19  1  0
 12 24  4  0
 13 24  4  0
 15 18  1  0
 16 25  4  0
 16 26  4  0
 17 20  4  0
 17 28  1  0
 18 21  4  0
 21 26  4  0
 22 26  4  0
M  END
$$$$

 Created by Python create_sdf_string function

 28 30  0  0  0  0  0  0  0  0999 V2000
    5.7174   -8.4529   26.7190 C   0  0  0  0  0  0  0  0  0  0  0  0
    0.3974   -7.0711   27.5149 C   0  0  0  0  0  0  0  0  0  0  0  0
    2.5338   -7.6891   16.0102 C   0  0  0  0  0  0  0  0  0  0  0  0
    4.8690   -7.4380   26.4151 C   0  0  0  0  0  0  0  0  0  0  0  0
    2.3021   -5.6726   26.0378 C   0  0  0  0  0  0  0  0  0  0  0  0
    7.0880   -4.6163   27.0010 C   0  0  0  0  0  0  0  0  0  0  0  0
    8.3117   -4.3698   27.4436 C   0  0  0  0  0  0  0  0  0  0  0  0
    1.1339   -5.0515   26.3541 C   0  0  0  0  0  0  0  0  0  0  0  0
    4.8080   -8.0362   16.7101 C   0  0  0  0  0  0  0  0  0  0  0  0
   -1.2173   -3.9294   26.9717 O   0  0  0  0  0  0  0  0  0  0  0  0
   -1.0025   -5.0942   27.4586 C   0  0  0  0  0  0  0  0  0  0  0  0
    2.2474   -8.9123   16.6273 C   0  0  0  0  0  0  0  0  0  0  0  0
    4.4957   -9.2636   17.3041 C   0  0  0  0  0  0  0  0  0  0  0  0
   -1.8070   -5.6086   28.1920 O   0  0  0  0  0  0  0  0  0  0  0  0
   10.4296   -5.1799   28.3140 C   0  0  0  0  0  0  0  0  0  0  0  0
    6.6017   -5.9004   26.9187 C   0  0  0  0  0  0  0  0  0  0  0  0
    2.4761   -6.9940   26.4111 N   0  0  0  0  0  0  0  0  0  0  0  0
    9.1353   -5.4053   27.8239 C   0  0  0  0  0  0  0  0  0  0  0  0
    0.9922   -9.3232   16.5995 O   0  0  0  0  0  0  0  0  0  0  0  0
    1.5232   -7.6869   27.1182 C   0  0  0  0  0  0  0  0  0  0  0  0
    8.6878   -6.6715   27.7262 N   0  0  0  0  0  0  0  0  0  0  0  0
    6.9911   -8.2423   27.1808 C   0  0  0  0  0  0  0  0  0  0  0  0
    3.8436   -7.2758   16.0578 C   0  0  0  0  0  0  0  0  0  0  0  0
    3.1882   -9.7190   17.2566 C   0  0  0  0  0  0  0  0  0  0  0  0
    5.3488   -6.1737   26.5092 C   0  0  0  0  0  0  0  0  0  0  0  0
    7.4567   -6.9464   27.2858 C   0  0  0  0  0  0  0  0  0  0  0  0
    0.1921   -5.7592   27.1123 C   0  0  0  0  0  0  0  0  0  0  0  0
    3.5517   -7.7407   25.9711 C   0  0  0  0  0  0  0  0  0  0  0  0
  1  4  4  0
  1 22  4  0
  2 20  4  0
  2 27  4  0
  3 12  4  0
  3 23  4  0
  4 25  4  0
  4 28  1  0
  5  8  4  0
  5 17  4  0
  6  7  4  0
  6 16  4  0
  7 18  4  0
  8 27  4  0
  9 13  4  0
  9 23  4  0
 10 11  1  0
 11 14  2  0
 11 27  1  0
 12 19  1  0
 12 24  4  0
 13 24  4  0
 15 18  1  0
 16 25  4  0
 16 26  4  0
 17 20  4  0
 17 28  1  0
 18 21  4  0
 21 26  4  0
 22 26  4  0
M  END
$$$$

 Created by Python create_sdf_string function

 28 30  0  0  0  0  0  0  0  0999 V2000
    5.7174   -8.4529   26.7190 C   0  0  0  0  0  0  0  0  0  0  0  0
    0.3974   -7.0711   27.5149 C   0  0  0  0  0  0  0  0  0  0  0  0
    2.5338   -7.6891   16.0102 C   0  0  0  0  0  0  0  0  0  0  0  0
    4.8690   -7.4380   26.4151 C   0  0  0  0  0  0  0  0  0  0  0  0
    2.3021   -5.6726   26.0378 C   0  0  0  0  0  0  0  0  0  0  0  0
    7.0880   -4.6163   27.0010 C   0  0  0  0  0  0  0  0  0  0  0  0
    8.3117   -4.3698   27.4436 C   0  0  0  0  0  0  0  0  0  0  0  0
    1.1339   -5.0515   26.3541 C   0  0  0  0  0  0  0  0  0  0  0  0
    4.8080   -8.0362   16.7101 C   0  0  0  0  0  0  0  0  0  0  0  0
   -1.2173   -3.9294   26.9717 O   0  0  0  0  0  0  0  0  0  0  0  0
   -1.0025   -5.0942   27.4586 C   0  0  0  0  0  0  0  0  0  0  0  0
    2.2474   -8.9123   16.6273 C   0  0  0  0  0  0  0  0  0  0  0  0
    4.4957   -9.2636   17.3041 C   0  0  0  0  0  0  0  0  0  0  0  0
   -1.8070   -5.6086   28.1920 O   0  0  0  0  0  0  0  0  0  0  0  0
   10.4296   -5.1799   28.3140 C   0  0  0  0  0  0  0  0  0  0  0  0
    6.6017   -5.9004   26.9187 C   0  0  0  0  0  0  0  0  0  0  0  0
    2.4761   -6.9940   26.4111 N   0  0  0  0  0  0  0  0  0  0  0  0
    9.1353   -5.4053   27.8239 C   0  0  0  0  0  0  0  0  0  0  0  0
    0.9922   -9.3232   16.5995 O   0  0  0  0  0  0  0  0  0  0  0  0
    1.5232   -7.6869   27.1182 C   0  0  0  0  0  0  0  0  0  0  0  0
    8.6878   -6.6715   27.7262 N   0  0  0  0  0  0  0  0  0  0  0  0
    6.9911   -8.2423   27.1808 C   0  0  0  0  0  0  0  0  0  0  0  0
    3.8436   -7.2758   16.0578 C   0  0  0  0  0  0  0  0  0  0  0  0
    3.1882   -9.7190   17.2566 C   0  0  0  0  0  0  0  0  0  0  0  0
    5.3488   -6.1737   26.5092 C   0  0  0  0  0  0  0  0  0  0  0  0
    7.4567   -6.9464   27.2858 C   0  0  0  0  0  0  0  0  0  0  0  0
    0.1921   -5.7592   27.1123 C   0  0  0  0  0  0  0  0  0  0  0  0
    3.5517   -7.7407   25.9711 C   0  0  0  0  0  0  0  0  0  0  0  0
  1  4  4  0
  1 22  4  0
  2 20  4  0
  2 27  4  0
  3 12  4  0
  3 23  4  0
  4 25  4  0
  4 28  1  0
  5  8  4  0
  5 17  4  0
  6  7  4  0
  6 16  4  0
  7 18  4  0
  8 27  4  0
  9 13  4  0
  9 23  4  0
 10 11  1  0
 11 14  2  0
 11 27  1  0
 12 19  1  0
 12 24  4  0
 13 24  4  0
 15 18  1  0
 16 25  4  0
 16 26  4  0
 17 20  4  0
 17 28  1  0
 18 21  4  0
 21 26  4  0
 22 26  4  0
M  END
$$$$

 Created by Python create_sdf_string function

 28 30  0  0  0  0  0  0  0  0999 V2000
    5.7174   -8.4529   26.7190 C   0  0  0  0  0  0  0  0  0  0  0  0
    0.3974   -7.0711   27.5149 C   0  0  0  0  0  0  0  0  0  0  0  0
    2.5338   -7.6891   16.0102 C   0  0  0  0  0  0  0  0  0  0  0  0
    4.8690   -7.4380   26.4151 C   0  0  0  0  0  0  0  0  0  0  0  0
    2.3021   -5.6726   26.0378 C   0  0  0  0  0  0  0  0  0  0  0  0
    7.0880   -4.6163   27.0010 C   0  0  0  0  0  0  0  0  0  0  0  0
    8.3117   -4.3698   27.4436 C   0  0  0  0  0  0  0  0  0  0  0  0
    1.1339   -5.0515   26.3541 C   0  0  0  0  0  0  0  0  0  0  0  0
    4.8080   -8.0362   16.7101 C   0  0  0  0  0  0  0  0  0  0  0  0
   -1.2173   -3.9294   26.9717 O   0  0  0  0  0  0  0  0  0  0  0  0
   -1.0025   -5.0942   27.4586 C   0  0  0  0  0  0  0  0  0  0  0  0
    2.2474   -8.9123   16.6273 C   0  0  0  0  0  0  0  0  0  0  0  0
    4.4957   -9.2636   17.3041 C   0  0  0  0  0  0  0  0  0  0  0  0
   -1.8070   -5.6086   28.1920 O   0  0  0  0  0  0  0  0  0  0  0  0
   10.4296   -5.1799   28.3140 C   0  0  0  0  0  0  0  0  0  0  0  0
    6.6017   -5.9004   26.9187 C   0  0  0  0  0  0  0  0  0  0  0  0
    2.4761   -6.9940   26.4111 N   0  0  0  0  0  0  0  0  0  0  0  0
    9.1353   -5.4053   27.8239 C   0  0  0  0  0  0  0  0  0  0  0  0
    0.9922   -9.3232   16.5995 O   0  0  0  0  0  0  0  0  0  0  0  0
    1.5232   -7.6869   27.1182 C   0  0  0  0  0  0  0  0  0  0  0  0
    8.6878   -6.6715   27.7262 N   0  0  0  0  0  0  0  0  0  0  0  0
    6.9911   -8.2423   27.1808 C   0  0  0  0  0  0  0  0  0  0  0  0
    3.8436   -7.2758   16.0578 C   0  0  0  0  0  0  0  0  0  0  0  0
    3.1882   -9.7190   17.2566 C   0  0  0  0  0  0  0  0  0  0  0  0
    5.3488   -6.1737   26.5092 C   0  0  0  0  0  0  0  0  0  0  0  0
    7.4567   -6.9464   27.2858 C   0  0  0  0  0  0  0  0  0  0  0  0
    0.1921   -5.7592   27.1123 C   0  0  0  0  0  0  0  0  0  0  0  0
    3.5517   -7.7407   25.9711 C   0  0  0  0  0  0  0  0  0  0  0  0
  1  4  4  0
  1 22  4  0
  2 20  4  0
  2 27  4  0
  3 12  4  0
  3 23  4  0
  4 25  4  0
  4 28  1  0
  5  8  4  0
  5 17  4  0
  6  7  4  0
  6 16  4  0
  7 18  4  0
  8 27  4  0
  9 13  4  0
  9 23  4  0
 10 11  1  0
 11 14  2  0
 11 27  1  0
 12 19  1  0
 12 24  4  0
 13 24  4  0
 15 18  1  0
 16 25  4  0
 16 26  4  0
 17 20  4  0
 17 28  1  0
 18 21  4  0
 21 26  4  0
 22 26  4  0
M  END
$$$$

 Created by Python create_sdf_string function

 28 30  0  0  0  0  0  0  0  0999 V2000
    5.7174   -8.4529   26.7190 C   0  0  0  0  0  0  0  0  0  0  0  0
    0.3974   -7.0711   27.5149 C   0  0  0  0  0  0  0  0  0  0  0  0
    2.5338   -7.6891   16.0102 C   0  0  0  0  0  0  0  0  0  0  0  0
    4.8690   -7.4380   26.4151 C   0  0  0  0  0  0  0  0  0  0  0  0
    2.3021   -5.6726   26.0378 C   0  0  0  0  0  0  0  0  0  0  0  0
    7.0880   -4.6163   27.0010 C   0  0  0  0  0  0  0  0  0  0  0  0
    8.3117   -4.3698   27.4436 C   0  0  0  0  0  0  0  0  0  0  0  0
    1.1339   -5.0515   26.3541 C   0  0  0  0  0  0  0  0  0  0  0  0
    4.8080   -8.0362   16.7101 C   0  0  0  0  0  0  0  0  0  0  0  0
   -1.2173   -3.9294   26.9717 O   0  0  0  0  0  0  0  0  0  0  0  0
   -1.0025   -5.0942   27.4586 C   0  0  0  0  0  0  0  0  0  0  0  0
    2.2474   -8.9123   16.6273 C   0  0  0  0  0  0  0  0  0  0  0  0
    4.4957   -9.2636   17.3041 C   0  0  0  0  0  0  0  0  0  0  0  0
   -1.8070   -5.6086   28.1920 O   0  0  0  0  0  0  0  0  0  0  0  0
   10.4296   -5.1799   28.3140 C   0  0  0  0  0  0  0  0  0  0  0  0
    6.6017   -5.9004   26.9187 C   0  0  0  0  0  0  0  0  0  0  0  0
    2.4761   -6.9940   26.4111 N   0  0  0  0  0  0  0  0  0  0  0  0
    9.1353   -5.4053   27.8239 C   0  0  0  0  0  0  0  0  0  0  0  0
    0.9922   -9.3232   16.5995 O   0  0  0  0  0  0  0  0  0  0  0  0
    1.5232   -7.6869   27.1182 C   0  0  0  0  0  0  0  0  0  0  0  0
    8.6878   -6.6715   27.7262 N   0  0  0  0  0  0  0  0  0  0  0  0
    6.9911   -8.2423   27.1808 C   0  0  0  0  0  0  0  0  0  0  0  0
    3.8436   -7.2758   16.0578 C   0  0  0  0  0  0  0  0  0  0  0  0
    3.1882   -9.7190   17.2566 C   0  0  0  0  0  0  0  0  0  0  0  0
    5.3488   -6.1737   26.5092 C   0  0  0  0  0  0  0  0  0  0  0  0
    7.4567   -6.9464   27.2858 C   0  0  0  0  0  0  0  0  0  0  0  0
    0.1921   -5.7592   27.1123 C   0  0  0  0  0  0  0  0  0  0  0  0
    3.5517   -7.7407   25.9711 C   0  0  0  0  0  0  0  0  0  0  0  0
  1  4  4  0
  1 22  4  0
  2 20  4  0
  2 27  4  0
  3 12  4  0
  3 23  4  0
  4 25  4  0
  4 28  1  0
  5  8  4  0
  5 17  4  0
  6  7  4  0
  6 16  4  0
  7 18  4  0
  8 27  4  0
  9 13  4  0
  9 23  4  0
 10 11  1  0
 11 14  2  0
 11 27  1  0
 12 19  1  0
 12 24  4  0
 13 24  4  0
 15 18  1  0
 16 25  4  0
 16 26  4  0
 17 20  4  0
 17 28  1  0
 18 21  4  0
 21 26  4  0
 22 26  4  0
M  END
$$$$

 Created by Python create_sdf_string function

 28 30  0  0  0  0  0  0  0  0999 V2000
    5.7174   -8.4529   26.7190 C   0  0  0  0  0  0  0  0  0  0  0  0
    0.3974   -7.0711   27.5149 C   0  0  0  0  0  0  0  0  0  0  0  0
    2.5338   -7.6891   16.0102 C   0  0  0  0  0  0  0  0  0  0  0  0
    4.8690   -7.4380   26.4151 C   0  0  0  0  0  0  0  0  0  0  0  0
    2.3021   -5.6726   26.0378 C   0  0  0  0  0  0  0  0  0  0  0  0
    7.0880   -4.6163   27.0010 C   0  0  0  0  0  0  0  0  0  0  0  0
    8.3117   -4.3698   27.4436 C   0  0  0  0  0  0  0  0  0  0  0  0
    1.1339   -5.0515   26.3541 C   0  0  0  0  0  0  0  0  0  0  0  0
    4.8080   -8.0362   16.7101 C   0  0  0  0  0  0  0  0  0  0  0  0
   -1.2173   -3.9294   26.9717 O   0  0  0  0  0  0  0  0  0  0  0  0
   -1.0025   -5.0942   27.4586 C   0  0  0  0  0  0  0  0  0  0  0  0
    2.2474   -8.9123   16.6273 C   0  0  0  0  0  0  0  0  0  0  0  0
    4.4957   -9.2636   17.3041 C   0  0  0  0  0  0  0  0  0  0  0  0
   -1.8070   -5.6086   28.1920 O   0  0  0  0  0  0  0  0  0  0  0  0
   10.4296   -5.1799   28.3140 C   0  0  0  0  0  0  0  0  0  0  0  0
    6.6017   -5.9004   26.9187 C   0  0  0  0  0  0  0  0  0  0  0  0
    2.4761   -6.9940   26.4111 N   0  0  0  0  0  0  0  0  0  0  0  0
    9.1353   -5.4053   27.8239 C   0  0  0  0  0  0  0  0  0  0  0  0
    0.9922   -9.3232   16.5995 O   0  0  0  0  0  0  0  0  0  0  0  0
    1.5232   -7.6869   27.1182 C   0  0  0  0  0  0  0  0  0  0  0  0
    8.6878   -6.6715   27.7262 N   0  0  0  0  0  0  0  0  0  0  0  0
    6.9911   -8.2423   27.1808 C   0  0  0  0  0  0  0  0  0  0  0  0
    3.8436   -7.2758   16.0578 C   0  0  0  0  0  0  0  0  0  0  0  0
    3.1882   -9.7190   17.2566 C   0  0  0  0  0  0  0  0  0  0  0  0
    5.3488   -6.1737   26.5092 C   0  0  0  0  0  0  0  0  0  0  0  0
    7.4567   -6.9464   27.2858 C   0  0  0  0  0  0  0  0  0  0  0  0
    0.1921   -5.7592   27.1123 C   0  0  0  0  0  0  0  0  0  0  0  0
    3.5517   -7.7407   25.9711 C   0  0  0  0  0  0  0  0  0  0  0  0
  1  4  4  0
  1 22  4  0
  2 20  4  0
  2 27  4  0
  3 12  4  0
  3 23  4  0
  4 25  4  0
  4 28  1  0
  5  8  4  0
  5 17  4  0
  6  7  4  0
  6 16  4  0
  7 18  4  0
  8 27  4  0
  9 13  4  0
  9 23  4  0
 10 11  1  0
 11 14  2  0
 11 27  1  0
 12 19  1  0
 12 24  4  0
 13 24  4  0
 15 18  1  0
 16 25  4  0
 16 26  4  0
 17 20  4  0
 17 28  1  0
 18 21  4  0
 21 26  4  0
 22 26  4  0
M  END
$$$$

 Created by Python create_sdf_string function

 28 30  0  0  0  0  0  0  0  0999 V2000
    5.7174   -8.4529   26.7190 C   0  0  0  0  0  0  0  0  0  0  0  0
    0.3974   -7.0711   27.5149 C   0  0  0  0  0  0  0  0  0  0  0  0
    2.5338   -7.6891   16.0102 C   0  0  0  0  0  0  0  0  0  0  0  0
    4.8690   -7.4380   26.4151 C   0  0  0  0  0  0  0  0  0  0  0  0
    2.3021   -5.6726   26.0378 C   0  0  0  0  0  0  0  0  0  0  0  0
    7.0880   -4.6163   27.0010 C   0  0  0  0  0  0  0  0  0  0  0  0
    8.3117   -4.3698   27.4436 C   0  0  0  0  0  0  0  0  0  0  0  0
    1.1339   -5.0515   26.3541 C   0  0  0  0  0  0  0  0  0  0  0  0
    4.8080   -8.0362   16.7101 C   0  0  0  0  0  0  0  0  0  0  0  0
   -1.2173   -3.9294   26.9717 O   0  0  0  0  0  0  0  0  0  0  0  0
   -1.0025   -5.0942   27.4586 C   0  0  0  0  0  0  0  0  0  0  0  0
    2.2474   -8.9123   16.6273 C   0  0  0  0  0  0  0  0  0  0  0  0
    4.4957   -9.2636   17.3041 C   0  0  0  0  0  0  0  0  0  0  0  0
   -1.8070   -5.6086   28.1920 O   0  0  0  0  0  0  0  0  0  0  0  0
   10.4296   -5.1799   28.3140 C   0  0  0  0  0  0  0  0  0  0  0  0
    6.6017   -5.9004   26.9187 C   0  0  0  0  0  0  0  0  0  0  0  0
    2.4761   -6.9940   26.4111 N   0  0  0  0  0  0  0  0  0  0  0  0
    9.1353   -5.4053   27.8239 C   0  0  0  0  0  0  0  0  0  0  0  0
    0.9922   -9.3232   16.5995 O   0  0  0  0  0  0  0  0  0  0  0  0
    1.5232   -7.6869   27.1182 C   0  0  0  0  0  0  0  0  0  0  0  0
    8.6878   -6.6715   27.7262 N   0  0  0  0  0  0  0  0  0  0  0  0
    6.9911   -8.2423   27.1808 C   0  0  0  0  0  0  0  0  0  0  0  0
    3.8436   -7.2758   16.0578 C   0  0  0  0  0  0  0  0  0  0  0  0
    3.1882   -9.7190   17.2566 C   0  0  0  0  0  0  0  0  0  0  0  0
    5.3488   -6.1737   26.5092 C   0  0  0  0  0  0  0  0  0  0  0  0
    7.4567   -6.9464   27.2858 C   0  0  0  0  0  0  0  0  0  0  0  0
    0.1921   -5.7592   27.1123 C   0  0  0  0  0  0  0  0  0  0  0  0
    3.5517   -7.7407   25.9711 C   0  0  0  0  0  0  0  0  0  0  0  0
  1  4  4  0
  1 22  4  0
  2 20  4  0
  2 27  4  0
  3 12  4  0
  3 23  4  0
  4 25  4  0
  4 28  1  0
  5  8  4  0
  5 17  4  0
  6  7  4  0
  6 16  4  0
  7 18  4  0
  8 27  4  0
  9 13  4  0
  9 23  4  0
 10 11  1  0
 11 14  2  0
 11 27  1  0
 12 19  1  0
 12 24  4  0
 13 24  4  0
 15 18  1  0
 16 25  4  0
 16 26  4  0
 17 20  4  0
 17 28  1  0
 18 21  4  0
 21 26  4  0
 22 26  4  0
M  END
$$$$

 Created by Python create_sdf_string function

 28 30  0  0  0  0  0  0  0  0999 V2000
    5.7174   -8.4529   26.7190 C   0  0  0  0  0  0  0  0  0  0  0  0
    0.3974   -7.0711   27.5149 C   0  0  0  0  0  0  0  0  0  0  0  0
    2.5338   -7.6891   16.0102 C   0  0  0  0  0  0  0  0  0  0  0  0
    4.8690   -7.4380   26.4151 C   0  0  0  0  0  0  0  0  0  0  0  0
    2.3021   -5.6726   26.0378 C   0  0  0  0  0  0  0  0  0  0  0  0
    7.0880   -4.6163   27.0010 C   0  0  0  0  0  0  0  0  0  0  0  0
    8.3117   -4.3698   27.4436 C   0  0  0  0  0  0  0  0  0  0  0  0
    1.1339   -5.0515   26.3541 C   0  0  0  0  0  0  0  0  0  0  0  0
    4.8080   -8.0362   16.7101 C   0  0  0  0  0  0  0  0  0  0  0  0
   -1.2173   -3.9294   26.9717 O   0  0  0  0  0  0  0  0  0  0  0  0
   -1.0025   -5.0942   27.4586 C   0  0  0  0  0  0  0  0  0  0  0  0
    2.2474   -8.9123   16.6273 C   0  0  0  0  0  0  0  0  0  0  0  0
    4.4957   -9.2636   17.3041 C   0  0  0  0  0  0  0  0  0  0  0  0
   -1.8070   -5.6086   28.1920 O   0  0  0  0  0  0  0  0  0  0  0  0
   10.4296   -5.1799   28.3140 C   0  0  0  0  0  0  0  0  0  0  0  0
    6.6017   -5.9004   26.9187 C   0  0  0  0  0  0  0  0  0  0  0  0
    2.4761   -6.9940   26.4111 N   0  0  0  0  0  0  0  0  0  0  0  0
    9.1353   -5.4053   27.8239 C   0  0  0  0  0  0  0  0  0  0  0  0
    0.9922   -9.3232   16.5995 O   0  0  0  0  0  0  0  0  0  0  0  0
    1.5232   -7.6869   27.1182 C   0  0  0  0  0  0  0  0  0  0  0  0
    8.6878   -6.6715   27.7262 N   0  0  0  0  0  0  0  0  0  0  0  0
    6.9911   -8.2423   27.1808 C   0  0  0  0  0  0  0  0  0  0  0  0
    3.8436   -7.2758   16.0578 C   0  0  0  0  0  0  0  0  0  0  0  0
    3.1882   -9.7190   17.2566 C   0  0  0  0  0  0  0  0  0  0  0  0
    5.3488   -6.1737   26.5092 C   0  0  0  0  0  0  0  0  0  0  0  0
    7.4567   -6.9464   27.2858 C   0  0  0  0  0  0  0  0  0  0  0  0
    0.1921   -5.7592   27.1123 C   0  0  0  0  0  0  0  0  0  0  0  0
    3.5517   -7.7407   25.9711 C   0  0  0  0  0  0  0  0  0  0  0  0
  1  4  4  0
  1 22  4  0
  2 20  4  0
  2 27  4  0
  3 12  4  0
  3 23  4  0
  4 25  4  0
  4 28  1  0
  5  8  4  0
  5 17  4  0
  6  7  4  0
  6 16  4  0
  7 18  4  0
  8 27  4  0
  9 13  4  0
  9 23  4  0
 10 11  1  0
 11 14  2  0
 11 27  1  0
 12 19  1  0
 12 24  4  0
 13 24  4  0
 15 18  1  0
 16 25  4  0
 16 26  4  0
 17 20  4  0
 17 28  1  0
 18 21  4  0
 21 26  4  0
 22 26  4  0
M  END
$$$$

 Created by Python create_sdf_string function

 28 30  0  0  0  0  0  0  0  0999 V2000
    5.7174   -8.4529   26.7190 C   0  0  0  0  0  0  0  0  0  0  0  0
    0.3974   -7.0711   27.5149 C   0  0  0  0  0  0  0  0  0  0  0  0
    2.5338   -7.6891   16.0102 C   0  0  0  0  0  0  0  0  0  0  0  0
    4.8690   -7.4380   26.4151 C   0  0  0  0  0  0  0  0  0  0  0  0
    2.3021   -5.6726   26.0378 C   0  0  0  0  0  0  0  0  0  0  0  0
    7.0880   -4.6163   27.0010 C   0  0  0  0  0  0  0  0  0  0  0  0
    8.3117   -4.3698   27.4436 C   0  0  0  0  0  0  0  0  0  0  0  0
    1.1339   -5.0515   26.3541 C   0  0  0  0  0  0  0  0  0  0  0  0
    4.8080   -8.0362   16.7101 C   0  0  0  0  0  0  0  0  0  0  0  0
   -1.2173   -3.9294   26.9717 O   0  0  0  0  0  0  0  0  0  0  0  0
   -1.0025   -5.0942   27.4586 C   0  0  0  0  0  0  0  0  0  0  0  0
    2.2474   -8.9123   16.6273 C   0  0  0  0  0  0  0  0  0  0  0  0
    4.4957   -9.2636   17.3041 C   0  0  0  0  0  0  0  0  0  0  0  0
   -1.8070   -5.6086   28.1920 O   0  0  0  0  0  0  0  0  0  0  0  0
   10.4296   -5.1799   28.3140 C   0  0  0  0  0  0  0  0  0  0  0  0
    6.6017   -5.9004   26.9187 C   0  0  0  0  0  0  0  0  0  0  0  0
    2.4761   -6.9940   26.4111 N   0  0  0  0  0  0  0  0  0  0  0  0
    9.1353   -5.4053   27.8239 C   0  0  0  0  0  0  0  0  0  0  0  0
    0.9922   -9.3232   16.5995 O   0  0  0  0  0  0  0  0  0  0  0  0
    1.5232   -7.6869   27.1182 C   0  0  0  0  0  0  0  0  0  0  0  0
    8.6878   -6.6715   27.7262 N   0  0  0  0  0  0  0  0  0  0  0  0
    6.9911   -8.2423   27.1808 C   0  0  0  0  0  0  0  0  0  0  0  0
    3.8436   -7.2758   16.0578 C   0  0  0  0  0  0  0  0  0  0  0  0
    3.1882   -9.7190   17.2566 C   0  0  0  0  0  0  0  0  0  0  0  0
    5.3488   -6.1737   26.5092 C   0  0  0  0  0  0  0  0  0  0  0  0
    7.4567   -6.9464   27.2858 C   0  0  0  0  0  0  0  0  0  0  0  0
    0.1921   -5.7592   27.1123 C   0  0  0  0  0  0  0  0  0  0  0  0
    3.5517   -7.7407   25.9711 C   0  0  0  0  0  0  0  0  0  0  0  0
  1  4  4  0
  1 22  4  0
  2 20  4  0
  2 27  4  0
  3 12  4  0
  3 23  4  0
  4 25  4  0
  4 28  1  0
  5  8  4  0
  5 17  4  0
  6  7  4  0
  6 16  4  0
  7 18  4  0
  8 27  4  0
  9 13  4  0
  9 23  4  0
 10 11  1  0
 11 14  2  0
 11 27  1  0
 12 19  1  0
 12 24  4  0
 13 24  4  0
 15 18  1  0
 16 25  4  0
 16 26  4  0
 17 20  4  0
 17 28  1  0
 18 21  4  0
 21 26  4  0
 22 26  4  0
M  END
$$$$

 Created by Python create_sdf_string function

 28 30  0  0  0  0  0  0  0  0999 V2000
    5.7174   -8.4529   26.7190 C   0  0  0  0  0  0  0  0  0  0  0  0
    0.3974   -7.0711   27.5149 C   0  0  0  0  0  0  0  0  0  0  0  0
    2.5338   -7.6891   16.0102 C   0  0  0  0  0  0  0  0  0  0  0  0
    4.8690   -7.4380   26.4151 C   0  0  0  0  0  0  0  0  0  0  0  0
    2.3021   -5.6726   26.0378 C   0  0  0  0  0  0  0  0  0  0  0  0
    7.0880   -4.6163   27.0010 C   0  0  0  0  0  0  0  0  0  0  0  0
    8.3117   -4.3698   27.4436 C   0  0  0  0  0  0  0  0  0  0  0  0
    1.1339   -5.0515   26.3541 C   0  0  0  0  0  0  0  0  0  0  0  0
    4.8080   -8.0362   16.7101 C   0  0  0  0  0  0  0  0  0  0  0  0
   -1.2173   -3.9294   26.9717 O   0  0  0  0  0  0  0  0  0  0  0  0
   -1.0025   -5.0942   27.4586 C   0  0  0  0  0  0  0  0  0  0  0  0
    2.2474   -8.9123   16.6273 C   0  0  0  0  0  0  0  0  0  0  0  0
    4.4957   -9.2636   17.3041 C   0  0  0  0  0  0  0  0  0  0  0  0
   -1.8070   -5.6086   28.1920 O   0  0  0  0  0  0  0  0  0  0  0  0
   10.4296   -5.1799   28.3140 C   0  0  0  0  0  0  0  0  0  0  0  0
    6.6017   -5.9004   26.9187 C   0  0  0  0  0  0  0  0  0  0  0  0
    2.4761   -6.9940   26.4111 N   0  0  0  0  0  0  0  0  0  0  0  0
    9.1353   -5.4053   27.8239 C   0  0  0  0  0  0  0  0  0  0  0  0
    0.9922   -9.3232   16.5995 O   0  0  0  0  0  0  0  0  0  0  0  0
    1.5232   -7.6869   27.1182 C   0  0  0  0  0  0  0  0  0  0  0  0
    8.6878   -6.6715   27.7262 N   0  0  0  0  0  0  0  0  0  0  0  0
    6.9911   -8.2423   27.1808 C   0  0  0  0  0  0  0  0  0  0  0  0
    3.8436   -7.2758   16.0578 C   0  0  0  0  0  0  0  0  0  0  0  0
    3.1882   -9.7190   17.2566 C   0  0  0  0  0  0  0  0  0  0  0  0
    5.3488   -6.1737   26.5092 C   0  0  0  0  0  0  0  0  0  0  0  0
    7.4567   -6.9464   27.2858 C   0  0  0  0  0  0  0  0  0  0  0  0
    0.1921   -5.7592   27.1123 C   0  0  0  0  0  0  0  0  0  0  0  0
    3.5517   -7.7407   25.9711 C   0  0  0  0  0  0  0  0  0  0  0  0
  1  4  4  0
  1 22  4  0
  2 20  4  0
  2 27  4  0
  3 12  4  0
  3 23  4  0
  4 25  4  0
  4 28  1  0
  5  8  4  0
  5 17  4  0
  6  7  4  0
  6 16  4  0
  7 18  4  0
  8 27  4  0
  9 13  4  0
  9 23  4  0
 10 11  1  0
 11 14  2  0
 11 27  1  0
 12 19  1  0
 12 24  4  0
 13 24  4  0
 15 18  1  0
 16 25  4  0
 16 26  4  0
 17 20  4  0
 17 28  1  0
 18 21  4  0
 21 26  4  0
 22 26  4  0
M  END
$$$$

 Created by Python create_sdf_string function

 28 30  0  0  0  0  0  0  0  0999 V2000
    5.7174   -8.4529   26.7190 C   0  0  0  0  0  0  0  0  0  0  0  0
    0.3974   -7.0711   27.5149 C   0  0  0  0  0  0  0  0  0  0  0  0
    2.5338   -7.6891   16.0102 C   0  0  0  0  0  0  0  0  0  0  0  0
    4.8690   -7.4380   26.4151 C   0  0  0  0  0  0  0  0  0  0  0  0
    2.3021   -5.6726   26.0378 C   0  0  0  0  0  0  0  0  0  0  0  0
    7.0880   -4.6163   27.0010 C   0  0  0  0  0  0  0  0  0  0  0  0
    8.3117   -4.3698   27.4436 C   0  0  0  0  0  0  0  0  0  0  0  0
    1.1339   -5.0515   26.3541 C   0  0  0  0  0  0  0  0  0  0  0  0
    4.8080   -8.0362   16.7101 C   0  0  0  0  0  0  0  0  0  0  0  0
   -1.2173   -3.9294   26.9717 O   0  0  0  0  0  0  0  0  0  0  0  0
   -1.0025   -5.0942   27.4586 C   0  0  0  0  0  0  0  0  0  0  0  0
    2.2474   -8.9123   16.6273 C   0  0  0  0  0  0  0  0  0  0  0  0
    4.4957   -9.2636   17.3041 C   0  0  0  0  0  0  0  0  0  0  0  0
   -1.8070   -5.6086   28.1920 O   0  0  0  0  0  0  0  0  0  0  0  0
   10.4296   -5.1799   28.3140 C   0  0  0  0  0  0  0  0  0  0  0  0
    6.6017   -5.9004   26.9187 C   0  0  0  0  0  0  0  0  0  0  0  0
    2.4761   -6.9940   26.4111 N   0  0  0  0  0  0  0  0  0  0  0  0
    9.1353   -5.4053   27.8239 C   0  0  0  0  0  0  0  0  0  0  0  0
    0.9922   -9.3232   16.5995 O   0  0  0  0  0  0  0  0  0  0  0  0
    1.5232   -7.6869   27.1182 C   0  0  0  0  0  0  0  0  0  0  0  0
    8.6878   -6.6715   27.7262 N   0  0  0  0  0  0  0  0  0  0  0  0
    6.9911   -8.2423   27.1808 C   0  0  0  0  0  0  0  0  0  0  0  0
    3.8436   -7.2758   16.0578 C   0  0  0  0  0  0  0  0  0  0  0  0
    3.1882   -9.7190   17.2566 C   0  0  0  0  0  0  0  0  0  0  0  0
    5.3488   -6.1737   26.5092 C   0  0  0  0  0  0  0  0  0  0  0  0
    7.4567   -6.9464   27.2858 C   0  0  0  0  0  0  0  0  0  0  0  0
    0.1921   -5.7592   27.1123 C   0  0  0  0  0  0  0  0  0  0  0  0
    3.5517   -7.7407   25.9711 C   0  0  0  0  0  0  0  0  0  0  0  0
  1  4  4  0
  1 22  4  0
  2 20  4  0
  2 27  4  0
  3 12  4  0
  3 23  4  0
  4 25  4  0
  4 28  1  0
  5  8  4  0
  5 17  4  0
  6  7  4  0
  6 16  4  0
  7 18  4  0
  8 27  4  0
  9 13  4  0
  9 23  4  0
 10 11  1  0
 11 14  2  0
 11 27  1  0
 12 19  1  0
 12 24  4  0
 13 24  4  0
 15 18  1  0
 16 25  4  0
 16 26  4  0
 17 20  4  0
 17 28  1  0
 18 21  4  0
 21 26  4  0
 22 26  4  0
M  END
$$$$

 Created by Python create_sdf_string function

 28 30  0  0  0  0  0  0  0  0999 V2000
    5.7174   -8.4529   26.7190 C   0  0  0  0  0  0  0  0  0  0  0  0
    0.3974   -7.0711   27.5149 C   0  0  0  0  0  0  0  0  0  0  0  0
    2.5338   -7.6891   16.0102 C   0  0  0  0  0  0  0  0  0  0  0  0
    4.8690   -7.4380   26.4151 C   0  0  0  0  0  0  0  0  0  0  0  0
    2.3021   -5.6726   26.0378 C   0  0  0  0  0  0  0  0  0  0  0  0
    7.0880   -4.6163   27.0010 C   0  0  0  0  0  0  0  0  0  0  0  0
    8.3117   -4.3698   27.4436 C   0  0  0  0  0  0  0  0  0  0  0  0
    1.1339   -5.0515   26.3541 C   0  0  0  0  0  0  0  0  0  0  0  0
    4.8080   -8.0362   16.7101 C   0  0  0  0  0  0  0  0  0  0  0  0
   -1.2173   -3.9294   26.9717 O   0  0  0  0  0  0  0  0  0  0  0  0
   -1.0025   -5.0942   27.4586 C   0  0  0  0  0  0  0  0  0  0  0  0
    2.2474   -8.9123   16.6273 C   0  0  0  0  0  0  0  0  0  0  0  0
    4.4957   -9.2636   17.3041 C   0  0  0  0  0  0  0  0  0  0  0  0
   -1.8070   -5.6086   28.1920 O   0  0  0  0  0  0  0  0  0  0  0  0
   10.4296   -5.1799   28.3140 C   0  0  0  0  0  0  0  0  0  0  0  0
    6.6017   -5.9004   26.9187 C   0  0  0  0  0  0  0  0  0  0  0  0
    2.4761   -6.9940   26.4111 N   0  0  0  0  0  0  0  0  0  0  0  0
    9.1353   -5.4053   27.8239 C   0  0  0  0  0  0  0  0  0  0  0  0
    0.9922   -9.3232   16.5995 O   0  0  0  0  0  0  0  0  0  0  0  0
    1.5232   -7.6869   27.1182 C   0  0  0  0  0  0  0  0  0  0  0  0
    8.6878   -6.6715   27.7262 N   0  0  0  0  0  0  0  0  0  0  0  0
    6.9911   -8.2423   27.1808 C   0  0  0  0  0  0  0  0  0  0  0  0
    3.8436   -7.2758   16.0578 C   0  0  0  0  0  0  0  0  0  0  0  0
    3.1882   -9.7190   17.2566 C   0  0  0  0  0  0  0  0  0  0  0  0
    5.3488   -6.1737   26.5092 C   0  0  0  0  0  0  0  0  0  0  0  0
    7.4567   -6.9464   27.2858 C   0  0  0  0  0  0  0  0  0  0  0  0
    0.1921   -5.7592   27.1123 C   0  0  0  0  0  0  0  0  0  0  0  0
    3.5517   -7.7407   25.9711 C   0  0  0  0  0  0  0  0  0  0  0  0
  1  4  4  0
  1 22  4  0
  2 20  4  0
  2 27  4  0
  3 12  4  0
  3 23  4  0
  4 25  4  0
  4 28  1  0
  5  8  4  0
  5 17  4  0
  6  7  4  0
  6 16  4  0
  7 18  4  0
  8 27  4  0
  9 13  4  0
  9 23  4  0
 10 11  1  0
 11 14  2  0
 11 27  1  0
 12 19  1  0
 12 24  4  0
 13 24  4  0
 15 18  1  0
 16 25  4  0
 16 26  4  0
 17 20  4  0
 17 28  1  0
 18 21  4  0
 21 26  4  0
 22 26  4  0
M  END
$$$$

 Created by Python create_sdf_string function

 28 30  0  0  0  0  0  0  0  0999 V2000
    5.7174   -8.4529   26.7190 C   0  0  0  0  0  0  0  0  0  0  0  0
    0.3974   -7.0711   27.5149 C   0  0  0  0  0  0  0  0  0  0  0  0
    2.5338   -7.6891   16.0102 C   0  0  0  0  0  0  0  0  0  0  0  0
    4.8690   -7.4380   26.4151 C   0  0  0  0  0  0  0  0  0  0  0  0
    2.3021   -5.6726   26.0378 C   0  0  0  0  0  0  0  0  0  0  0  0
    7.0880   -4.6163   27.0010 C   0  0  0  0  0  0  0  0  0  0  0  0
    8.3117   -4.3698   27.4436 C   0  0  0  0  0  0  0  0  0  0  0  0
    1.1339   -5.0515   26.3541 C   0  0  0  0  0  0  0  0  0  0  0  0
    4.8080   -8.0362   16.7101 C   0  0  0  0  0  0  0  0  0  0  0  0
   -1.2173   -3.9294   26.9717 O   0  0  0  0  0  0  0  0  0  0  0  0
   -1.0025   -5.0942   27.4586 C   0  0  0  0  0  0  0  0  0  0  0  0
    2.2474   -8.9123   16.6273 C   0  0  0  0  0  0  0  0  0  0  0  0
    4.4957   -9.2636   17.3041 C   0  0  0  0  0  0  0  0  0  0  0  0
   -1.8070   -5.6086   28.1920 O   0  0  0  0  0  0  0  0  0  0  0  0
   10.4296   -5.1799   28.3140 C   0  0  0  0  0  0  0  0  0  0  0  0
    6.6017   -5.9004   26.9187 C   0  0  0  0  0  0  0  0  0  0  0  0
    2.4761   -6.9940   26.4111 N   0  0  0  0  0  0  0  0  0  0  0  0
    9.1353   -5.4053   27.8239 C   0  0  0  0  0  0  0  0  0  0  0  0
    0.9922   -9.3232   16.5995 O   0  0  0  0  0  0  0  0  0  0  0  0
    1.5232   -7.6869   27.1182 C   0  0  0  0  0  0  0  0  0  0  0  0
    8.6878   -6.6715   27.7262 N   0  0  0  0  0  0  0  0  0  0  0  0
    6.9911   -8.2423   27.1808 C   0  0  0  0  0  0  0  0  0  0  0  0
    3.8436   -7.2758   16.0578 C   0  0  0  0  0  0  0  0  0  0  0  0
    3.1882   -9.7190   17.2566 C   0  0  0  0  0  0  0  0  0  0  0  0
    5.3488   -6.1737   26.5092 C   0  0  0  0  0  0  0  0  0  0  0  0
    7.4567   -6.9464   27.2858 C   0  0  0  0  0  0  0  0  0  0  0  0
    0.1921   -5.7592   27.1123 C   0  0  0  0  0  0  0  0  0  0  0  0
    3.5517   -7.7407   25.9711 C   0  0  0  0  0  0  0  0  0  0  0  0
  1  4  4  0
  1 22  4  0
  2 20  4  0
  2 27  4  0
  3 12  4  0
  3 23  4  0
  4 25  4  0
  4 28  1  0
  5  8  4  0
  5 17  4  0
  6  7  4  0
  6 16  4  0
  7 18  4  0
  8 27  4  0
  9 13  4  0
  9 23  4  0
 10 11  1  0
 11 14  2  0
 11 27  1  0
 12 19  1  0
 12 24  4  0
 13 24  4  0
 15 18  1  0
 16 25  4  0
 16 26  4  0
 17 20  4  0
 17 28  1  0
 18 21  4  0
 21 26  4  0
 22 26  4  0
M  END
$$$$

 Created by Python create_sdf_string function

 28 30  0  0  0  0  0  0  0  0999 V2000
    5.7174   -8.4529   26.7190 C   0  0  0  0  0  0  0  0  0  0  0  0
    0.3974   -7.0711   27.5149 C   0  0  0  0  0  0  0  0  0  0  0  0
    2.5338   -7.6891   16.0102 C   0  0  0  0  0  0  0  0  0  0  0  0
    4.8690   -7.4380   26.4151 C   0  0  0  0  0  0  0  0  0  0  0  0
    2.3021   -5.6726   26.0378 C   0  0  0  0  0  0  0  0  0  0  0  0
    7.0880   -4.6163   27.0010 C   0  0  0  0  0  0  0  0  0  0  0  0
    8.3117   -4.3698   27.4436 C   0  0  0  0  0  0  0  0  0  0  0  0
    1.1339   -5.0515   26.3541 C   0  0  0  0  0  0  0  0  0  0  0  0
    4.8080   -8.0362   16.7101 C   0  0  0  0  0  0  0  0  0  0  0  0
   -1.2173   -3.9294   26.9717 O   0  0  0  0  0  0  0  0  0  0  0  0
   -1.0025   -5.0942   27.4586 C   0  0  0  0  0  0  0  0  0  0  0  0
    2.2474   -8.9123   16.6273 C   0  0  0  0  0  0  0  0  0  0  0  0
    4.4957   -9.2636   17.3041 C   0  0  0  0  0  0  0  0  0  0  0  0
   -1.8070   -5.6086   28.1920 O   0  0  0  0  0  0  0  0  0  0  0  0
   10.4296   -5.1799   28.3140 C   0  0  0  0  0  0  0  0  0  0  0  0
    6.6017   -5.9004   26.9187 C   0  0  0  0  0  0  0  0  0  0  0  0
    2.4761   -6.9940   26.4111 N   0  0  0  0  0  0  0  0  0  0  0  0
    9.1353   -5.4053   27.8239 C   0  0  0  0  0  0  0  0  0  0  0  0
    0.9922   -9.3232   16.5995 O   0  0  0  0  0  0  0  0  0  0  0  0
    1.5232   -7.6869   27.1182 C   0  0  0  0  0  0  0  0  0  0  0  0
    8.6878   -6.6715   27.7262 N   0  0  0  0  0  0  0  0  0  0  0  0
    6.9911   -8.2423   27.1808 C   0  0  0  0  0  0  0  0  0  0  0  0
    3.8436   -7.2758   16.0578 C   0  0  0  0  0  0  0  0  0  0  0  0
    3.1882   -9.7190   17.2566 C   0  0  0  0  0  0  0  0  0  0  0  0
    5.3488   -6.1737   26.5092 C   0  0  0  0  0  0  0  0  0  0  0  0
    7.4567   -6.9464   27.2858 C   0  0  0  0  0  0  0  0  0  0  0  0
    0.1921   -5.7592   27.1123 C   0  0  0  0  0  0  0  0  0  0  0  0
    3.5517   -7.7407   25.9711 C   0  0  0  0  0  0  0  0  0  0  0  0
  1  4  4  0
  1 22  4  0
  2 20  4  0
  2 27  4  0
  3 12  4  0
  3 23  4  0
  4 25  4  0
  4 28  1  0
  5  8  4  0
  5 17  4  0
  6  7  4  0
  6 16  4  0
  7 18  4  0
  8 27  4  0
  9 13  4  0
  9 23  4  0
 10 11  1  0
 11 14  2  0
 11 27  1  0
 12 19  1  0
 12 24  4  0
 13 24  4  0
 15 18  1  0
 16 25  4  0
 16 26  4  0
 17 20  4  0
 17 28  1  0
 18 21  4  0
 21 26  4  0
 22 26  4  0
M  END
$$$$

 Created by Python create_sdf_string function

 28 30  0  0  0  0  0  0  0  0999 V2000
    5.7174   -8.4529   26.7190 C   0  0  0  0  0  0  0  0  0  0  0  0
    0.3974   -7.0711   27.5149 C   0  0  0  0  0  0  0  0  0  0  0  0
    2.5338   -7.6891   16.0102 C   0  0  0  0  0  0  0  0  0  0  0  0
    4.8690   -7.4380   26.4151 C   0  0  0  0  0  0  0  0  0  0  0  0
    2.3021   -5.6726   26.0378 C   0  0  0  0  0  0  0  0  0  0  0  0
    7.0880   -4.6163   27.0010 C   0  0  0  0  0  0  0  0  0  0  0  0
    8.3117   -4.3698   27.4436 C   0  0  0  0  0  0  0  0  0  0  0  0
    1.1339   -5.0515   26.3541 C   0  0  0  0  0  0  0  0  0  0  0  0
    4.8080   -8.0362   16.7101 C   0  0  0  0  0  0  0  0  0  0  0  0
   -1.2173   -3.9294   26.9717 O   0  0  0  0  0  0  0  0  0  0  0  0
   -1.0025   -5.0942   27.4586 C   0  0  0  0  0  0  0  0  0  0  0  0
    2.2474   -8.9123   16.6273 C   0  0  0  0  0  0  0  0  0  0  0  0
    4.4957   -9.2636   17.3041 C   0  0  0  0  0  0  0  0  0  0  0  0
   -1.8070   -5.6086   28.1920 O   0  0  0  0  0  0  0  0  0  0  0  0
   10.4296   -5.1799   28.3140 C   0  0  0  0  0  0  0  0  0  0  0  0
    6.6017   -5.9004   26.9187 C   0  0  0  0  0  0  0  0  0  0  0  0
    2.4761   -6.9940   26.4111 N   0  0  0  0  0  0  0  0  0  0  0  0
    9.1353   -5.4053   27.8239 C   0  0  0  0  0  0  0  0  0  0  0  0
    0.9922   -9.3232   16.5995 O   0  0  0  0  0  0  0  0  0  0  0  0
    1.5232   -7.6869   27.1182 C   0  0  0  0  0  0  0  0  0  0  0  0
    8.6878   -6.6715   27.7262 N   0  0  0  0  0  0  0  0  0  0  0  0
    6.9911   -8.2423   27.1808 C   0  0  0  0  0  0  0  0  0  0  0  0
    3.8436   -7.2758   16.0578 C   0  0  0  0  0  0  0  0  0  0  0  0
    3.1882   -9.7190   17.2566 C   0  0  0  0  0  0  0  0  0  0  0  0
    5.3488   -6.1737   26.5092 C   0  0  0  0  0  0  0  0  0  0  0  0
    7.4567   -6.9464   27.2858 C   0  0  0  0  0  0  0  0  0  0  0  0
    0.1921   -5.7592   27.1123 C   0  0  0  0  0  0  0  0  0  0  0  0
    3.5517   -7.7407   25.9711 C   0  0  0  0  0  0  0  0  0  0  0  0
  1  4  4  0
  1 22  4  0
  2 20  4  0
  2 27  4  0
  3 12  4  0
  3 23  4  0
  4 25  4  0
  4 28  1  0
  5  8  4  0
  5 17  4  0
  6  7  4  0
  6 16  4  0
  7 18  4  0
  8 27  4  0
  9 13  4  0
  9 23  4  0
 10 11  1  0
 11 14  2  0
 11 27  1  0
 12 19  1  0
 12 24  4  0
 13 24  4  0
 15 18  1  0
 16 25  4  0
 16 26  4  0
 17 20  4  0
 17 28  1  0
 18 21  4  0
 21 26  4  0
 22 26  4  0
M  END
$$$$

 Created by Python create_sdf_string function

 28 30  0  0  0  0  0  0  0  0999 V2000
    5.7174   -8.4529   26.7190 C   0  0  0  0  0  0  0  0  0  0  0  0
    0.3974   -7.0711   27.5149 C   0  0  0  0  0  0  0  0  0  0  0  0
    2.5338   -7.6891   16.0102 C   0  0  0  0  0  0  0  0  0  0  0  0
    4.8690   -7.4380   26.4151 C   0  0  0  0  0  0  0  0  0  0  0  0
    2.3021   -5.6726   26.0378 C   0  0  0  0  0  0  0  0  0  0  0  0
    7.0880   -4.6163   27.0010 C   0  0  0  0  0  0  0  0  0  0  0  0
    8.3117   -4.3698   27.4436 C   0  0  0  0  0  0  0  0  0  0  0  0
    1.1339   -5.0515   26.3541 C   0  0  0  0  0  0  0  0  0  0  0  0
    4.8080   -8.0362   16.7101 C   0  0  0  0  0  0  0  0  0  0  0  0
   -1.2173   -3.9294   26.9717 O   0  0  0  0  0  0  0  0  0  0  0  0
   -1.0025   -5.0942   27.4586 C   0  0  0  0  0  0  0  0  0  0  0  0
    2.2474   -8.9123   16.6273 C   0  0  0  0  0  0  0  0  0  0  0  0
    4.4957   -9.2636   17.3041 C   0  0  0  0  0  0  0  0  0  0  0  0
   -1.8070   -5.6086   28.1920 O   0  0  0  0  0  0  0  0  0  0  0  0
   10.4296   -5.1799   28.3140 C   0  0  0  0  0  0  0  0  0  0  0  0
    6.6017   -5.9004   26.9187 C   0  0  0  0  0  0  0  0  0  0  0  0
    2.4761   -6.9940   26.4111 N   0  0  0  0  0  0  0  0  0  0  0  0
    9.1353   -5.4053   27.8239 C   0  0  0  0  0  0  0  0  0  0  0  0
    0.9922   -9.3232   16.5995 O   0  0  0  0  0  0  0  0  0  0  0  0
    1.5232   -7.6869   27.1182 C   0  0  0  0  0  0  0  0  0  0  0  0
    8.6878   -6.6715   27.7262 N   0  0  0  0  0  0  0  0  0  0  0  0
    6.9911   -8.2423   27.1808 C   0  0  0  0  0  0  0  0  0  0  0  0
    3.8436   -7.2758   16.0578 C   0  0  0  0  0  0  0  0  0  0  0  0
    3.1882   -9.7190   17.2566 C   0  0  0  0  0  0  0  0  0  0  0  0
    5.3488   -6.1737   26.5092 C   0  0  0  0  0  0  0  0  0  0  0  0
    7.4567   -6.9464   27.2858 C   0  0  0  0  0  0  0  0  0  0  0  0
    0.1921   -5.7592   27.1123 C   0  0  0  0  0  0  0  0  0  0  0  0
    3.5517   -7.7407   25.9711 C   0  0  0  0  0  0  0  0  0  0  0  0
  1  4  4  0
  1 22  4  0
  2 20  4  0
  2 27  4  0
  3 12  4  0
  3 23  4  0
  4 25  4  0
  4 28  1  0
  5  8  4  0
  5 17  4  0
  6  7  4  0
  6 16  4  0
  7 18  4  0
  8 27  4  0
  9 13  4  0
  9 23  4  0
 10 11  1  0
 11 14  2  0
 11 27  1  0
 12 19  1  0
 12 24  4  0
 13 24  4  0
 15 18  1  0
 16 25  4  0
 16 26  4  0
 17 20  4  0
 17 28  1  0
 18 21  4  0
 21 26  4  0
 22 26  4  0
M  END
$$$$

 Created by Python create_sdf_string function

 28 30  0  0  0  0  0  0  0  0999 V2000
    5.7174   -8.4529   26.7190 C   0  0  0  0  0  0  0  0  0  0  0  0
    0.3974   -7.0711   27.5149 C   0  0  0  0  0  0  0  0  0  0  0  0
    2.5338   -7.6891   16.0102 C   0  0  0  0  0  0  0  0  0  0  0  0
    4.8690   -7.4380   26.4151 C   0  0  0  0  0  0  0  0  0  0  0  0
    2.3021   -5.6726   26.0378 C   0  0  0  0  0  0  0  0  0  0  0  0
    7.0880   -4.6163   27.0010 C   0  0  0  0  0  0  0  0  0  0  0  0
    8.3117   -4.3698   27.4436 C   0  0  0  0  0  0  0  0  0  0  0  0
    1.1339   -5.0515   26.3541 C   0  0  0  0  0  0  0  0  0  0  0  0
    4.8080   -8.0362   16.7101 C   0  0  0  0  0  0  0  0  0  0  0  0
   -1.2173   -3.9294   26.9717 O   0  0  0  0  0  0  0  0  0  0  0  0
   -1.0025   -5.0942   27.4586 C   0  0  0  0  0  0  0  0  0  0  0  0
    2.2474   -8.9123   16.6273 C   0  0  0  0  0  0  0  0  0  0  0  0
    4.4957   -9.2636   17.3041 C   0  0  0  0  0  0  0  0  0  0  0  0
   -1.8070   -5.6086   28.1920 O   0  0  0  0  0  0  0  0  0  0  0  0
   10.4296   -5.1799   28.3140 C   0  0  0  0  0  0  0  0  0  0  0  0
    6.6017   -5.9004   26.9187 C   0  0  0  0  0  0  0  0  0  0  0  0
    2.4761   -6.9940   26.4111 N   0  0  0  0  0  0  0  0  0  0  0  0
    9.1353   -5.4053   27.8239 C   0  0  0  0  0  0  0  0  0  0  0  0
    0.9922   -9.3232   16.5995 O   0  0  0  0  0  0  0  0  0  0  0  0
    1.5232   -7.6869   27.1182 C   0  0  0  0  0  0  0  0  0  0  0  0
    8.6878   -6.6715   27.7262 N   0  0  0  0  0  0  0  0  0  0  0  0
    6.9911   -8.2423   27.1808 C   0  0  0  0  0  0  0  0  0  0  0  0
    3.8436   -7.2758   16.0578 C   0  0  0  0  0  0  0  0  0  0  0  0
    3.1882   -9.7190   17.2566 C   0  0  0  0  0  0  0  0  0  0  0  0
    5.3488   -6.1737   26.5092 C   0  0  0  0  0  0  0  0  0  0  0  0
    7.4567   -6.9464   27.2858 C   0  0  0  0  0  0  0  0  0  0  0  0
    0.1921   -5.7592   27.1123 C   0  0  0  0  0  0  0  0  0  0  0  0
    3.5517   -7.7407   25.9711 C   0  0  0  0  0  0  0  0  0  0  0  0
  1  4  4  0
  1 22  4  0
  2 20  4  0
  2 27  4  0
  3 12  4  0
  3 23  4  0
  4 25  4  0
  4 28  1  0
  5  8  4  0
  5 17  4  0
  6  7  4  0
  6 16  4  0
  7 18  4  0
  8 27  4  0
  9 13  4  0
  9 23  4  0
 10 11  1  0
 11 14  2  0
 11 27  1  0
 12 19  1  0
 12 24  4  0
 13 24  4  0
 15 18  1  0
 16 25  4  0
 16 26  4  0
 17 20  4  0
 17 28  1  0
 18 21  4  0
 21 26  4  0
 22 26  4  0
M  END
$$$$

 Created by Python create_sdf_string function

 28 30  0  0  0  0  0  0  0  0999 V2000
    5.7174   -8.4529   26.7190 C   0  0  0  0  0  0  0  0  0  0  0  0
    0.3974   -7.0711   27.5149 C   0  0  0  0  0  0  0  0  0  0  0  0
    2.5338   -7.6891   16.0102 C   0  0  0  0  0  0  0  0  0  0  0  0
    4.8690   -7.4380   26.4151 C   0  0  0  0  0  0  0  0  0  0  0  0
    2.3021   -5.6726   26.0378 C   0  0  0  0  0  0  0  0  0  0  0  0
    7.0880   -4.6163   27.0010 C   0  0  0  0  0  0  0  0  0  0  0  0
    8.3117   -4.3698   27.4436 C   0  0  0  0  0  0  0  0  0  0  0  0
    1.1339   -5.0515   26.3541 C   0  0  0  0  0  0  0  0  0  0  0  0
    4.8080   -8.0362   16.7101 C   0  0  0  0  0  0  0  0  0  0  0  0
   -1.2173   -3.9294   26.9717 O   0  0  0  0  0  0  0  0  0  0  0  0
   -1.0025   -5.0942   27.4586 C   0  0  0  0  0  0  0  0  0  0  0  0
    2.2474   -8.9123   16.6273 C   0  0  0  0  0  0  0  0  0  0  0  0
    4.4957   -9.2636   17.3041 C   0  0  0  0  0  0  0  0  0  0  0  0
   -1.8070   -5.6086   28.1920 O   0  0  0  0  0  0  0  0  0  0  0  0
   10.4296   -5.1799   28.3140 C   0  0  0  0  0  0  0  0  0  0  0  0
    6.6017   -5.9004   26.9187 C   0  0  0  0  0  0  0  0  0  0  0  0
    2.4761   -6.9940   26.4111 N   0  0  0  0  0  0  0  0  0  0  0  0
    9.1353   -5.4053   27.8239 C   0  0  0  0  0  0  0  0  0  0  0  0
    0.9922   -9.3232   16.5995 O   0  0  0  0  0  0  0  0  0  0  0  0
    1.5232   -7.6869   27.1182 C   0  0  0  0  0  0  0  0  0  0  0  0
    8.6878   -6.6715   27.7262 N   0  0  0  0  0  0  0  0  0  0  0  0
    6.9911   -8.2423   27.1808 C   0  0  0  0  0  0  0  0  0  0  0  0
    3.8436   -7.2758   16.0578 C   0  0  0  0  0  0  0  0  0  0  0  0
    3.1882   -9.7190   17.2566 C   0  0  0  0  0  0  0  0  0  0  0  0
    5.3488   -6.1737   26.5092 C   0  0  0  0  0  0  0  0  0  0  0  0
    7.4567   -6.9464   27.2858 C   0  0  0  0  0  0  0  0  0  0  0  0
    0.1921   -5.7592   27.1123 C   0  0  0  0  0  0  0  0  0  0  0  0
    3.5517   -7.7407   25.9711 C   0  0  0  0  0  0  0  0  0  0  0  0
  1  4  4  0
  1 22  4  0
  2 20  4  0
  2 27  4  0
  3 12  4  0
  3 23  4  0
  4 25  4  0
  4 28  1  0
  5  8  4  0
  5 17  4  0
  6  7  4  0
  6 16  4  0
  7 18  4  0
  8 27  4  0
  9 13  4  0
  9 23  4  0
 10 11  1  0
 11 14  2  0
 11 27  1  0
 12 19  1  0
 12 24  4  0
 13 24  4  0
 15 18  1  0
 16 25  4  0
 16 26  4  0
 17 20  4  0
 17 28  1  0
 18 21  4  0
 21 26  4  0
 22 26  4  0
M  END
$$$$

 Created by Python create_sdf_string function

 28 30  0  0  0  0  0  0  0  0999 V2000
    5.7174   -8.4529   26.7190 C   0  0  0  0  0  0  0  0  0  0  0  0
    0.3974   -7.0711   27.5149 C   0  0  0  0  0  0  0  0  0  0  0  0
    2.5338   -7.6891   16.0102 C   0  0  0  0  0  0  0  0  0  0  0  0
    4.8690   -7.4380   26.4151 C   0  0  0  0  0  0  0  0  0  0  0  0
    2.3021   -5.6726   26.0378 C   0  0  0  0  0  0  0  0  0  0  0  0
    7.0880   -4.6163   27.0010 C   0  0  0  0  0  0  0  0  0  0  0  0
    8.3117   -4.3698   27.4436 C   0  0  0  0  0  0  0  0  0  0  0  0
    1.1339   -5.0515   26.3541 C   0  0  0  0  0  0  0  0  0  0  0  0
    4.8080   -8.0362   16.7101 C   0  0  0  0  0  0  0  0  0  0  0  0
   -1.2173   -3.9294   26.9717 O   0  0  0  0  0  0  0  0  0  0  0  0
   -1.0025   -5.0942   27.4586 C   0  0  0  0  0  0  0  0  0  0  0  0
    2.2474   -8.9123   16.6273 C   0  0  0  0  0  0  0  0  0  0  0  0
    4.4957   -9.2636   17.3041 C   0  0  0  0  0  0  0  0  0  0  0  0
   -1.8070   -5.6086   28.1920 O   0  0  0  0  0  0  0  0  0  0  0  0
   10.4296   -5.1799   28.3140 C   0  0  0  0  0  0  0  0  0  0  0  0
    6.6017   -5.9004   26.9187 C   0  0  0  0  0  0  0  0  0  0  0  0
    2.4761   -6.9940   26.4111 N   0  0  0  0  0  0  0  0  0  0  0  0
    9.1353   -5.4053   27.8239 C   0  0  0  0  0  0  0  0  0  0  0  0
    0.9922   -9.3232   16.5995 O   0  0  0  0  0  0  0  0  0  0  0  0
    1.5232   -7.6869   27.1182 C   0  0  0  0  0  0  0  0  0  0  0  0
    8.6878   -6.6715   27.7262 N   0  0  0  0  0  0  0  0  0  0  0  0
    6.9911   -8.2423   27.1808 C   0  0  0  0  0  0  0  0  0  0  0  0
    3.8436   -7.2758   16.0578 C   0  0  0  0  0  0  0  0  0  0  0  0
    3.1882   -9.7190   17.2566 C   0  0  0  0  0  0  0  0  0  0  0  0
    5.3488   -6.1737   26.5092 C   0  0  0  0  0  0  0  0  0  0  0  0
    7.4567   -6.9464   27.2858 C   0  0  0  0  0  0  0  0  0  0  0  0
    0.1921   -5.7592   27.1123 C   0  0  0  0  0  0  0  0  0  0  0  0
    3.5517   -7.7407   25.9711 C   0  0  0  0  0  0  0  0  0  0  0  0
  1  4  4  0
  1 22  4  0
  2 20  4  0
  2 27  4  0
  3 12  4  0
  3 23  4  0
  4 25  4  0
  4 28  1  0
  5  8  4  0
  5 17  4  0
  6  7  4  0
  6 16  4  0
  7 18  4  0
  8 27  4  0
  9 13  4  0
  9 23  4  0
 10 11  1  0
 11 14  2  0
 11 27  1  0
 12 19  1  0
 12 24  4  0
 13 24  4  0
 15 18  1  0
 16 25  4  0
 16 26  4  0
 17 20  4  0
 17 28  1  0
 18 21  4  0
 21 26  4  0
 22 26  4  0
M  END
$$$$

 Created by Python create_sdf_string function

 28 30  0  0  0  0  0  0  0  0999 V2000
    5.7174   -8.4529   26.7190 C   0  0  0  0  0  0  0  0  0  0  0  0
    0.3974   -7.0711   27.5149 C   0  0  0  0  0  0  0  0  0  0  0  0
    2.5338   -7.6891   16.0102 C   0  0  0  0  0  0  0  0  0  0  0  0
    4.8690   -7.4380   26.4151 C   0  0  0  0  0  0  0  0  0  0  0  0
    2.3021   -5.6726   26.0378 C   0  0  0  0  0  0  0  0  0  0  0  0
    7.0880   -4.6163   27.0010 C   0  0  0  0  0  0  0  0  0  0  0  0
    8.3117   -4.3698   27.4436 C   0  0  0  0  0  0  0  0  0  0  0  0
    1.1339   -5.0515   26.3541 C   0  0  0  0  0  0  0  0  0  0  0  0
    4.8080   -8.0362   16.7101 C   0  0  0  0  0  0  0  0  0  0  0  0
   -1.2173   -3.9294   26.9717 O   0  0  0  0  0  0  0  0  0  0  0  0
   -1.0025   -5.0942   27.4586 C   0  0  0  0  0  0  0  0  0  0  0  0
    2.2474   -8.9123   16.6273 C   0  0  0  0  0  0  0  0  0  0  0  0
    4.4957   -9.2636   17.3041 C   0  0  0  0  0  0  0  0  0  0  0  0
   -1.8070   -5.6086   28.1920 O   0  0  0  0  0  0  0  0  0  0  0  0
   10.4296   -5.1799   28.3140 C   0  0  0  0  0  0  0  0  0  0  0  0
    6.6017   -5.9004   26.9187 C   0  0  0  0  0  0  0  0  0  0  0  0
    2.4761   -6.9940   26.4111 N   0  0  0  0  0  0  0  0  0  0  0  0
    9.1353   -5.4053   27.8239 C   0  0  0  0  0  0  0  0  0  0  0  0
    0.9922   -9.3232   16.5995 O   0  0  0  0  0  0  0  0  0  0  0  0
    1.5232   -7.6869   27.1182 C   0  0  0  0  0  0  0  0  0  0  0  0
    8.6878   -6.6715   27.7262 N   0  0  0  0  0  0  0  0  0  0  0  0
    6.9911   -8.2423   27.1808 C   0  0  0  0  0  0  0  0  0  0  0  0
    3.8436   -7.2758   16.0578 C   0  0  0  0  0  0  0  0  0  0  0  0
    3.1882   -9.7190   17.2566 C   0  0  0  0  0  0  0  0  0  0  0  0
    5.3488   -6.1737   26.5092 C   0  0  0  0  0  0  0  0  0  0  0  0
    7.4567   -6.9464   27.2858 C   0  0  0  0  0  0  0  0  0  0  0  0
    0.1921   -5.7592   27.1123 C   0  0  0  0  0  0  0  0  0  0  0  0
    3.5517   -7.7407   25.9711 C   0  0  0  0  0  0  0  0  0  0  0  0
  1  4  4  0
  1 22  4  0
  2 20  4  0
  2 27  4  0
  3 12  4  0
  3 23  4  0
  4 25  4  0
  4 28  1  0
  5  8  4  0
  5 17  4  0
  6  7  4  0
  6 16  4  0
  7 18  4  0
  8 27  4  0
  9 13  4  0
  9 23  4  0
 10 11  1  0
 11 14  2  0
 11 27  1  0
 12 19  1  0
 12 24  4  0
 13 24  4  0
 15 18  1  0
 16 25  4  0
 16 26  4  0
 17 20  4  0
 17 28  1  0
 18 21  4  0
 21 26  4  0
 22 26  4  0
M  END
$$$$

 Created by Python create_sdf_string function

 28 30  0  0  0  0  0  0  0  0999 V2000
    5.7174   -8.4529   26.7190 C   0  0  0  0  0  0  0  0  0  0  0  0
    0.3974   -7.0711   27.5149 C   0  0  0  0  0  0  0  0  0  0  0  0
    2.5338   -7.6891   16.0102 C   0  0  0  0  0  0  0  0  0  0  0  0
    4.8690   -7.4380   26.4151 C   0  0  0  0  0  0  0  0  0  0  0  0
    2.3021   -5.6726   26.0378 C   0  0  0  0  0  0  0  0  0  0  0  0
    7.0880   -4.6163   27.0010 C   0  0  0  0  0  0  0  0  0  0  0  0
    8.3117   -4.3698   27.4436 C   0  0  0  0  0  0  0  0  0  0  0  0
    1.1339   -5.0515   26.3541 C   0  0  0  0  0  0  0  0  0  0  0  0
    4.8080   -8.0362   16.7101 C   0  0  0  0  0  0  0  0  0  0  0  0
   -1.2173   -3.9294   26.9717 O   0  0  0  0  0  0  0  0  0  0  0  0
   -1.0025   -5.0942   27.4586 C   0  0  0  0  0  0  0  0  0  0  0  0
    2.2474   -8.9123   16.6273 C   0  0  0  0  0  0  0  0  0  0  0  0
    4.4957   -9.2636   17.3041 C   0  0  0  0  0  0  0  0  0  0  0  0
   -1.8070   -5.6086   28.1920 O   0  0  0  0  0  0  0  0  0  0  0  0
   10.4296   -5.1799   28.3140 C   0  0  0  0  0  0  0  0  0  0  0  0
    6.6017   -5.9004   26.9187 C   0  0  0  0  0  0  0  0  0  0  0  0
    2.4761   -6.9940   26.4111 N   0  0  0  0  0  0  0  0  0  0  0  0
    9.1353   -5.4053   27.8239 C   0  0  0  0  0  0  0  0  0  0  0  0
    0.9922   -9.3232   16.5995 O   0  0  0  0  0  0  0  0  0  0  0  0
    1.5232   -7.6869   27.1182 C   0  0  0  0  0  0  0  0  0  0  0  0
    8.6878   -6.6715   27.7262 N   0  0  0  0  0  0  0  0  0  0  0  0
    6.9911   -8.2423   27.1808 C   0  0  0  0  0  0  0  0  0  0  0  0
    3.8436   -7.2758   16.0578 C   0  0  0  0  0  0  0  0  0  0  0  0
    3.1882   -9.7190   17.2566 C   0  0  0  0  0  0  0  0  0  0  0  0
    5.3488   -6.1737   26.5092 C   0  0  0  0  0  0  0  0  0  0  0  0
    7.4567   -6.9464   27.2858 C   0  0  0  0  0  0  0  0  0  0  0  0
    0.1921   -5.7592   27.1123 C   0  0  0  0  0  0  0  0  0  0  0  0
    3.5517   -7.7407   25.9711 C   0  0  0  0  0  0  0  0  0  0  0  0
  1  4  4  0
  1 22  4  0
  2 20  4  0
  2 27  4  0
  3 12  4  0
  3 23  4  0
  4 25  4  0
  4 28  1  0
  5  8  4  0
  5 17  4  0
  6  7  4  0
  6 16  4  0
  7 18  4  0
  8 27  4  0
  9 13  4  0
  9 23  4  0
 10 11  1  0
 11 14  2  0
 11 27  1  0
 12 19  1  0
 12 24  4  0
 13 24  4  0
 15 18  1  0
 16 25  4  0
 16 26  4  0
 17 20  4  0
 17 28  1  0
 18 21  4  0
 21 26  4  0
 22 26  4  0
M  END
$$$$

 Created by Python create_sdf_string function

 28 30  0  0  0  0  0  0  0  0999 V2000
    5.7174   -8.4529   26.7190 C   0  0  0  0  0  0  0  0  0  0  0  0
    0.3974   -7.0711   27.5149 C   0  0  0  0  0  0  0  0  0  0  0  0
    2.5338   -7.6891   16.0102 C   0  0  0  0  0  0  0  0  0  0  0  0
    4.8690   -7.4380   26.4151 C   0  0  0  0  0  0  0  0  0  0  0  0
    2.3021   -5.6726   26.0378 C   0  0  0  0  0  0  0  0  0  0  0  0
    7.0880   -4.6163   27.0010 C   0  0  0  0  0  0  0  0  0  0  0  0
    8.3117   -4.3698   27.4436 C   0  0  0  0  0  0  0  0  0  0  0  0
    1.1339   -5.0515   26.3541 C   0  0  0  0  0  0  0  0  0  0  0  0
    4.8080   -8.0362   16.7101 C   0  0  0  0  0  0  0  0  0  0  0  0
   -1.2173   -3.9294   26.9717 O   0  0  0  0  0  0  0  0  0  0  0  0
   -1.0025   -5.0942   27.4586 C   0  0  0  0  0  0  0  0  0  0  0  0
    2.2474   -8.9123   16.6273 C   0  0  0  0  0  0  0  0  0  0  0  0
    4.4957   -9.2636   17.3041 C   0  0  0  0  0  0  0  0  0  0  0  0
   -1.8070   -5.6086   28.1920 O   0  0  0  0  0  0  0  0  0  0  0  0
   10.4296   -5.1799   28.3140 C   0  0  0  0  0  0  0  0  0  0  0  0
    6.6017   -5.9004   26.9187 C   0  0  0  0  0  0  0  0  0  0  0  0
    2.4761   -6.9940   26.4111 N   0  0  0  0  0  0  0  0  0  0  0  0
    9.1353   -5.4053   27.8239 C   0  0  0  0  0  0  0  0  0  0  0  0
    0.9922   -9.3232   16.5995 O   0  0  0  0  0  0  0  0  0  0  0  0
    1.5232   -7.6869   27.1182 C   0  0  0  0  0  0  0  0  0  0  0  0
    8.6878   -6.6715   27.7262 N   0  0  0  0  0  0  0  0  0  0  0  0
    6.9911   -8.2423   27.1808 C   0  0  0  0  0  0  0  0  0  0  0  0
    3.8436   -7.2758   16.0578 C   0  0  0  0  0  0  0  0  0  0  0  0
    3.1882   -9.7190   17.2566 C   0  0  0  0  0  0  0  0  0  0  0  0
    5.3488   -6.1737   26.5092 C   0  0  0  0  0  0  0  0  0  0  0  0
    7.4567   -6.9464   27.2858 C   0  0  0  0  0  0  0  0  0  0  0  0
    0.1921   -5.7592   27.1123 C   0  0  0  0  0  0  0  0  0  0  0  0
    3.5517   -7.7407   25.9711 C   0  0  0  0  0  0  0  0  0  0  0  0
  1  4  4  0
  1 22  4  0
  2 20  4  0
  2 27  4  0
  3 12  4  0
  3 23  4  0
  4 25  4  0
  4 28  1  0
  5  8  4  0
  5 17  4  0
  6  7  4  0
  6 16  4  0
  7 18  4  0
  8 27  4  0
  9 13  4  0
  9 23  4  0
 10 11  1  0
 11 14  2  0
 11 27  1  0
 12 19  1  0
 12 24  4  0
 13 24  4  0
 15 18  1  0
 16 25  4  0
 16 26  4  0
 17 20  4  0
 17 28  1  0
 18 21  4  0
 21 26  4  0
 22 26  4  0
M  END
$$$$

 Created by Python create_sdf_string function

 28 30  0  0  0  0  0  0  0  0999 V2000
    5.7174   -8.4529   26.7190 C   0  0  0  0  0  0  0  0  0  0  0  0
    0.3974   -7.0711   27.5149 C   0  0  0  0  0  0  0  0  0  0  0  0
    2.5338   -7.6891   16.0102 C   0  0  0  0  0  0  0  0  0  0  0  0
    4.8690   -7.4380   26.4151 C   0  0  0  0  0  0  0  0  0  0  0  0
    2.3021   -5.6726   26.0378 C   0  0  0  0  0  0  0  0  0  0  0  0
    7.0880   -4.6163   27.0010 C   0  0  0  0  0  0  0  0  0  0  0  0
    8.3117   -4.3698   27.4436 C   0  0  0  0  0  0  0  0  0  0  0  0
    1.1339   -5.0515   26.3541 C   0  0  0  0  0  0  0  0  0  0  0  0
    4.8080   -8.0362   16.7101 C   0  0  0  0  0  0  0  0  0  0  0  0
   -1.2173   -3.9294   26.9717 O   0  0  0  0  0  0  0  0  0  0  0  0
   -1.0025   -5.0942   27.4586 C   0  0  0  0  0  0  0  0  0  0  0  0
    2.2474   -8.9123   16.6273 C   0  0  0  0  0  0  0  0  0  0  0  0
    4.4957   -9.2636   17.3041 C   0  0  0  0  0  0  0  0  0  0  0  0
   -1.8070   -5.6086   28.1920 O   0  0  0  0  0  0  0  0  0  0  0  0
   10.4296   -5.1799   28.3140 C   0  0  0  0  0  0  0  0  0  0  0  0
    6.6017   -5.9004   26.9187 C   0  0  0  0  0  0  0  0  0  0  0  0
    2.4761   -6.9940   26.4111 N   0  0  0  0  0  0  0  0  0  0  0  0
    9.1353   -5.4053   27.8239 C   0  0  0  0  0  0  0  0  0  0  0  0
    0.9922   -9.3232   16.5995 O   0  0  0  0  0  0  0  0  0  0  0  0
    1.5232   -7.6869   27.1182 C   0  0  0  0  0  0  0  0  0  0  0  0
    8.6878   -6.6715   27.7262 N   0  0  0  0  0  0  0  0  0  0  0  0
    6.9911   -8.2423   27.1808 C   0  0  0  0  0  0  0  0  0  0  0  0
    3.8436   -7.2758   16.0578 C   0  0  0  0  0  0  0  0  0  0  0  0
    3.1882   -9.7190   17.2566 C   0  0  0  0  0  0  0  0  0  0  0  0
    5.3488   -6.1737   26.5092 C   0  0  0  0  0  0  0  0  0  0  0  0
    7.4567   -6.9464   27.2858 C   0  0  0  0  0  0  0  0  0  0  0  0
    0.1921   -5.7592   27.1123 C   0  0  0  0  0  0  0  0  0  0  0  0
    3.5517   -7.7407   25.9711 C   0  0  0  0  0  0  0  0  0  0  0  0
  1  4  4  0
  1 22  4  0
  2 20  4  0
  2 27  4  0
  3 12  4  0
  3 23  4  0
  4 25  4  0
  4 28  1  0
  5  8  4  0
  5 17  4  0
  6  7  4  0
  6 16  4  0
  7 18  4  0
  8 27  4  0
  9 13  4  0
  9 23  4  0
 10 11  1  0
 11 14  2  0
 11 27  1  0
 12 19  1  0
 12 24  4  0
 13 24  4  0
 15 18  1  0
 16 25  4  0
 16 26  4  0
 17 20  4  0
 17 28  1  0
 18 21  4  0
 21 26  4  0
 22 26  4  0
M  END
$$$$

 Created by Python create_sdf_string function

 28 30  0  0  0  0  0  0  0  0999 V2000
    5.7174   -8.4529   26.7190 C   0  0  0  0  0  0  0  0  0  0  0  0
    0.3974   -7.0711   27.5149 C   0  0  0  0  0  0  0  0  0  0  0  0
    2.5338   -7.6891   16.0102 C   0  0  0  0  0  0  0  0  0  0  0  0
    4.8690   -7.4380   26.4151 C   0  0  0  0  0  0  0  0  0  0  0  0
    2.3021   -5.6726   26.0378 C   0  0  0  0  0  0  0  0  0  0  0  0
    7.0880   -4.6163   27.0010 C   0  0  0  0  0  0  0  0  0  0  0  0
    8.3117   -4.3698   27.4436 C   0  0  0  0  0  0  0  0  0  0  0  0
    1.1339   -5.0515   26.3541 C   0  0  0  0  0  0  0  0  0  0  0  0
    4.8080   -8.0362   16.7101 C   0  0  0  0  0  0  0  0  0  0  0  0
   -1.2173   -3.9294   26.9717 O   0  0  0  0  0  0  0  0  0  0  0  0
   -1.0025   -5.0942   27.4586 C   0  0  0  0  0  0  0  0  0  0  0  0
    2.2474   -8.9123   16.6273 C   0  0  0  0  0  0  0  0  0  0  0  0
    4.4957   -9.2636   17.3041 C   0  0  0  0  0  0  0  0  0  0  0  0
   -1.8070   -5.6086   28.1920 O   0  0  0  0  0  0  0  0  0  0  0  0
   10.4296   -5.1799   28.3140 C   0  0  0  0  0  0  0  0  0  0  0  0
    6.6017   -5.9004   26.9187 C   0  0  0  0  0  0  0  0  0  0  0  0
    2.4761   -6.9940   26.4111 N   0  0  0  0  0  0  0  0  0  0  0  0
    9.1353   -5.4053   27.8239 C   0  0  0  0  0  0  0  0  0  0  0  0
    0.9922   -9.3232   16.5995 O   0  0  0  0  0  0  0  0  0  0  0  0
    1.5232   -7.6869   27.1182 C   0  0  0  0  0  0  0  0  0  0  0  0
    8.6878   -6.6715   27.7262 N   0  0  0  0  0  0  0  0  0  0  0  0
    6.9911   -8.2423   27.1808 C   0  0  0  0  0  0  0  0  0  0  0  0
    3.8436   -7.2758   16.0578 C   0  0  0  0  0  0  0  0  0  0  0  0
    3.1882   -9.7190   17.2566 C   0  0  0  0  0  0  0  0  0  0  0  0
    5.3488   -6.1737   26.5092 C   0  0  0  0  0  0  0  0  0  0  0  0
    7.4567   -6.9464   27.2858 C   0  0  0  0  0  0  0  0  0  0  0  0
    0.1921   -5.7592   27.1123 C   0  0  0  0  0  0  0  0  0  0  0  0
    3.5517   -7.7407   25.9711 C   0  0  0  0  0  0  0  0  0  0  0  0
  1  4  4  0
  1 22  4  0
  2 20  4  0
  2 27  4  0
  3 12  4  0
  3 23  4  0
  4 25  4  0
  4 28  1  0
  5  8  4  0
  5 17  4  0
  6  7  4  0
  6 16  4  0
  7 18  4  0
  8 27  4  0
  9 13  4  0
  9 23  4  0
 10 11  1  0
 11 14  2  0
 11 27  1  0
 12 19  1  0
 12 24  4  0
 13 24  4  0
 15 18  1  0
 16 25  4  0
 16 26  4  0
 17 20  4  0
 17 28  1  0
 18 21  4  0
 21 26  4  0
 22 26  4  0
M  END
$$$$

 Created by Python create_sdf_string function

 28 30  0  0  0  0  0  0  0  0999 V2000
    5.7174   -8.4529   26.7190 C   0  0  0  0  0  0  0  0  0  0  0  0
    0.3974   -7.0711   27.5149 C   0  0  0  0  0  0  0  0  0  0  0  0
    2.5338   -7.6891   16.0102 C   0  0  0  0  0  0  0  0  0  0  0  0
    4.8690   -7.4380   26.4151 C   0  0  0  0  0  0  0  0  0  0  0  0
    2.3021   -5.6726   26.0378 C   0  0  0  0  0  0  0  0  0  0  0  0
    7.0880   -4.6163   27.0010 C   0  0  0  0  0  0  0  0  0  0  0  0
    8.3117   -4.3698   27.4436 C   0  0  0  0  0  0  0  0  0  0  0  0
    1.1339   -5.0515   26.3541 C   0  0  0  0  0  0  0  0  0  0  0  0
    4.8080   -8.0362   16.7101 C   0  0  0  0  0  0  0  0  0  0  0  0
   -1.2173   -3.9294   26.9717 O   0  0  0  0  0  0  0  0  0  0  0  0
   -1.0025   -5.0942   27.4586 C   0  0  0  0  0  0  0  0  0  0  0  0
    2.2474   -8.9123   16.6273 C   0  0  0  0  0  0  0  0  0  0  0  0
    4.4957   -9.2636   17.3041 C   0  0  0  0  0  0  0  0  0  0  0  0
   -1.8070   -5.6086   28.1920 O   0  0  0  0  0  0  0  0  0  0  0  0
   10.4296   -5.1799   28.3140 C   0  0  0  0  0  0  0  0  0  0  0  0
    6.6017   -5.9004   26.9187 C   0  0  0  0  0  0  0  0  0  0  0  0
    2.4761   -6.9940   26.4111 N   0  0  0  0  0  0  0  0  0  0  0  0
    9.1353   -5.4053   27.8239 C   0  0  0  0  0  0  0  0  0  0  0  0
    0.9922   -9.3232   16.5995 O   0  0  0  0  0  0  0  0  0  0  0  0
    1.5232   -7.6869   27.1182 C   0  0  0  0  0  0  0  0  0  0  0  0
    8.6878   -6.6715   27.7262 N   0  0  0  0  0  0  0  0  0  0  0  0
    6.9911   -8.2423   27.1808 C   0  0  0  0  0  0  0  0  0  0  0  0
    3.8436   -7.2758   16.0578 C   0  0  0  0  0  0  0  0  0  0  0  0
    3.1882   -9.7190   17.2566 C   0  0  0  0  0  0  0  0  0  0  0  0
    5.3488   -6.1737   26.5092 C   0  0  0  0  0  0  0  0  0  0  0  0
    7.4567   -6.9464   27.2858 C   0  0  0  0  0  0  0  0  0  0  0  0
    0.1921   -5.7592   27.1123 C   0  0  0  0  0  0  0  0  0  0  0  0
    3.5517   -7.7407   25.9711 C   0  0  0  0  0  0  0  0  0  0  0  0
  1  4  4  0
  1 22  4  0
  2 20  4  0
  2 27  4  0
  3 12  4  0
  3 23  4  0
  4 25  4  0
  4 28  1  0
  5  8  4  0
  5 17  4  0
  6  7  4  0
  6 16  4  0
  7 18  4  0
  8 27  4  0
  9 13  4  0
  9 23  4  0
 10 11  1  0
 11 14  2  0
 11 27  1  0
 12 19  1  0
 12 24  4  0
 13 24  4  0
 15 18  1  0
 16 25  4  0
 16 26  4  0
 17 20  4  0
 17 28  1  0
 18 21  4  0
 21 26  4  0
 22 26  4  0
M  END
$$$$

 Created by Python create_sdf_string function

 28 30  0  0  0  0  0  0  0  0999 V2000
    5.7174   -8.4529   26.7190 C   0  0  0  0  0  0  0  0  0  0  0  0
    0.3974   -7.0711   27.5149 C   0  0  0  0  0  0  0  0  0  0  0  0
    2.5338   -7.6891   16.0102 C   0  0  0  0  0  0  0  0  0  0  0  0
    4.8690   -7.4380   26.4151 C   0  0  0  0  0  0  0  0  0  0  0  0
    2.3021   -5.6726   26.0378 C   0  0  0  0  0  0  0  0  0  0  0  0
    7.0880   -4.6163   27.0010 C   0  0  0  0  0  0  0  0  0  0  0  0
    8.3117   -4.3698   27.4436 C   0  0  0  0  0  0  0  0  0  0  0  0
    1.1339   -5.0515   26.3541 C   0  0  0  0  0  0  0  0  0  0  0  0
    4.8080   -8.0362   16.7101 C   0  0  0  0  0  0  0  0  0  0  0  0
   -1.2173   -3.9294   26.9717 O   0  0  0  0  0  0  0  0  0  0  0  0
   -1.0025   -5.0942   27.4586 C   0  0  0  0  0  0  0  0  0  0  0  0
    2.2474   -8.9123   16.6273 C   0  0  0  0  0  0  0  0  0  0  0  0
    4.4957   -9.2636   17.3041 C   0  0  0  0  0  0  0  0  0  0  0  0
   -1.8070   -5.6086   28.1920 O   0  0  0  0  0  0  0  0  0  0  0  0
   10.4296   -5.1799   28.3140 C   0  0  0  0  0  0  0  0  0  0  0  0
    6.6017   -5.9004   26.9187 C   0  0  0  0  0  0  0  0  0  0  0  0
    2.4761   -6.9940   26.4111 N   0  0  0  0  0  0  0  0  0  0  0  0
    9.1353   -5.4053   27.8239 C   0  0  0  0  0  0  0  0  0  0  0  0
    0.9922   -9.3232   16.5995 O   0  0  0  0  0  0  0  0  0  0  0  0
    1.5232   -7.6869   27.1182 C   0  0  0  0  0  0  0  0  0  0  0  0
    8.6878   -6.6715   27.7262 N   0  0  0  0  0  0  0  0  0  0  0  0
    6.9911   -8.2423   27.1808 C   0  0  0  0  0  0  0  0  0  0  0  0
    3.8436   -7.2758   16.0578 C   0  0  0  0  0  0  0  0  0  0  0  0
    3.1882   -9.7190   17.2566 C   0  0  0  0  0  0  0  0  0  0  0  0
    5.3488   -6.1737   26.5092 C   0  0  0  0  0  0  0  0  0  0  0  0
    7.4567   -6.9464   27.2858 C   0  0  0  0  0  0  0  0  0  0  0  0
    0.1921   -5.7592   27.1123 C   0  0  0  0  0  0  0  0  0  0  0  0
    3.5517   -7.7407   25.9711 C   0  0  0  0  0  0  0  0  0  0  0  0
  1  4  4  0
  1 22  4  0
  2 20  4  0
  2 27  4  0
  3 12  4  0
  3 23  4  0
  4 25  4  0
  4 28  1  0
  5  8  4  0
  5 17  4  0
  6  7  4  0
  6 16  4  0
  7 18  4  0
  8 27  4  0
  9 13  4  0
  9 23  4  0
 10 11  1  0
 11 14  2  0
 11 27  1  0
 12 19  1  0
 12 24  4  0
 13 24  4  0
 15 18  1  0
 16 25  4  0
 16 26  4  0
 17 20  4  0
 17 28  1  0
 18 21  4  0
 21 26  4  0
 22 26  4  0
M  END
$$$$

 Created by Python create_sdf_string function

 28 30  0  0  0  0  0  0  0  0999 V2000
    5.7174   -8.4529   26.7190 C   0  0  0  0  0  0  0  0  0  0  0  0
    0.3974   -7.0711   27.5149 C   0  0  0  0  0  0  0  0  0  0  0  0
    2.5338   -7.6891   16.0102 C   0  0  0  0  0  0  0  0  0  0  0  0
    4.8690   -7.4380   26.4151 C   0  0  0  0  0  0  0  0  0  0  0  0
    2.3021   -5.6726   26.0378 C   0  0  0  0  0  0  0  0  0  0  0  0
    7.0880   -4.6163   27.0010 C   0  0  0  0  0  0  0  0  0  0  0  0
    8.3117   -4.3698   27.4436 C   0  0  0  0  0  0  0  0  0  0  0  0
    1.1339   -5.0515   26.3541 C   0  0  0  0  0  0  0  0  0  0  0  0
    4.8080   -8.0362   16.7101 C   0  0  0  0  0  0  0  0  0  0  0  0
   -1.2173   -3.9294   26.9717 O   0  0  0  0  0  0  0  0  0  0  0  0
   -1.0025   -5.0942   27.4586 C   0  0  0  0  0  0  0  0  0  0  0  0
    2.2474   -8.9123   16.6273 C   0  0  0  0  0  0  0  0  0  0  0  0
    4.4957   -9.2636   17.3041 C   0  0  0  0  0  0  0  0  0  0  0  0
   -1.8070   -5.6086   28.1920 O   0  0  0  0  0  0  0  0  0  0  0  0
   10.4296   -5.1799   28.3140 C   0  0  0  0  0  0  0  0  0  0  0  0
    6.6017   -5.9004   26.9187 C   0  0  0  0  0  0  0  0  0  0  0  0
    2.4761   -6.9940   26.4111 N   0  0  0  0  0  0  0  0  0  0  0  0
    9.1353   -5.4053   27.8239 C   0  0  0  0  0  0  0  0  0  0  0  0
    0.9922   -9.3232   16.5995 O   0  0  0  0  0  0  0  0  0  0  0  0
    1.5232   -7.6869   27.1182 C   0  0  0  0  0  0  0  0  0  0  0  0
    8.6878   -6.6715   27.7262 N   0  0  0  0  0  0  0  0  0  0  0  0
    6.9911   -8.2423   27.1808 C   0  0  0  0  0  0  0  0  0  0  0  0
    3.8436   -7.2758   16.0578 C   0  0  0  0  0  0  0  0  0  0  0  0
    3.1882   -9.7190   17.2566 C   0  0  0  0  0  0  0  0  0  0  0  0
    5.3488   -6.1737   26.5092 C   0  0  0  0  0  0  0  0  0  0  0  0
    7.4567   -6.9464   27.2858 C   0  0  0  0  0  0  0  0  0  0  0  0
    0.1921   -5.7592   27.1123 C   0  0  0  0  0  0  0  0  0  0  0  0
    3.5517   -7.7407   25.9711 C   0  0  0  0  0  0  0  0  0  0  0  0
  1  4  4  0
  1 22  4  0
  2 20  4  0
  2 27  4  0
  3 12  4  0
  3 23  4  0
  4 25  4  0
  4 28  1  0
  5  8  4  0
  5 17  4  0
  6  7  4  0
  6 16  4  0
  7 18  4  0
  8 27  4  0
  9 13  4  0
  9 23  4  0
 10 11  1  0
 11 14  2  0
 11 27  1  0
 12 19  1  0
 12 24  4  0
 13 24  4  0
 15 18  1  0
 16 25  4  0
 16 26  4  0
 17 20  4  0
 17 28  1  0
 18 21  4  0
 21 26  4  0
 22 26  4  0
M  END
$$$$

 Created by Python create_sdf_string function

 28 30  0  0  0  0  0  0  0  0999 V2000
    5.7174   -8.4529   26.7190 C   0  0  0  0  0  0  0  0  0  0  0  0
    0.3974   -7.0711   27.5149 C   0  0  0  0  0  0  0  0  0  0  0  0
    2.5338   -7.6891   16.0102 C   0  0  0  0  0  0  0  0  0  0  0  0
    4.8690   -7.4380   26.4151 C   0  0  0  0  0  0  0  0  0  0  0  0
    2.3021   -5.6726   26.0378 C   0  0  0  0  0  0  0  0  0  0  0  0
    7.0880   -4.6163   27.0010 C   0  0  0  0  0  0  0  0  0  0  0  0
    8.3117   -4.3698   27.4436 C   0  0  0  0  0  0  0  0  0  0  0  0
    1.1339   -5.0515   26.3541 C   0  0  0  0  0  0  0  0  0  0  0  0
    4.8080   -8.0362   16.7101 C   0  0  0  0  0  0  0  0  0  0  0  0
   -1.2173   -3.9294   26.9717 O   0  0  0  0  0  0  0  0  0  0  0  0
   -1.0025   -5.0942   27.4586 C   0  0  0  0  0  0  0  0  0  0  0  0
    2.2474   -8.9123   16.6273 C   0  0  0  0  0  0  0  0  0  0  0  0
    4.4957   -9.2636   17.3041 C   0  0  0  0  0  0  0  0  0  0  0  0
   -1.8070   -5.6086   28.1920 O   0  0  0  0  0  0  0  0  0  0  0  0
   10.4296   -5.1799   28.3140 C   0  0  0  0  0  0  0  0  0  0  0  0
    6.6017   -5.9004   26.9187 C   0  0  0  0  0  0  0  0  0  0  0  0
    2.4761   -6.9940   26.4111 N   0  0  0  0  0  0  0  0  0  0  0  0
    9.1353   -5.4053   27.8239 C   0  0  0  0  0  0  0  0  0  0  0  0
    0.9922   -9.3232   16.5995 O   0  0  0  0  0  0  0  0  0  0  0  0
    1.5232   -7.6869   27.1182 C   0  0  0  0  0  0  0  0  0  0  0  0
    8.6878   -6.6715   27.7262 N   0  0  0  0  0  0  0  0  0  0  0  0
    6.9911   -8.2423   27.1808 C   0  0  0  0  0  0  0  0  0  0  0  0
    3.8436   -7.2758   16.0578 C   0  0  0  0  0  0  0  0  0  0  0  0
    3.1882   -9.7190   17.2566 C   0  0  0  0  0  0  0  0  0  0  0  0
    5.3488   -6.1737   26.5092 C   0  0  0  0  0  0  0  0  0  0  0  0
    7.4567   -6.9464   27.2858 C   0  0  0  0  0  0  0  0  0  0  0  0
    0.1921   -5.7592   27.1123 C   0  0  0  0  0  0  0  0  0  0  0  0
    3.5517   -7.7407   25.9711 C   0  0  0  0  0  0  0  0  0  0  0  0
  1  4  4  0
  1 22  4  0
  2 20  4  0
  2 27  4  0
  3 12  4  0
  3 23  4  0
  4 25  4  0
  4 28  1  0
  5  8  4  0
  5 17  4  0
  6  7  4  0
  6 16  4  0
  7 18  4  0
  8 27  4  0
  9 13  4  0
  9 23  4  0
 10 11  1  0
 11 14  2  0
 11 27  1  0
 12 19  1  0
 12 24  4  0
 13 24  4  0
 15 18  1  0
 16 25  4  0
 16 26  4  0
 17 20  4  0
 17 28  1  0
 18 21  4  0
 21 26  4  0
 22 26  4  0
M  END
$$$$

 Created by Python create_sdf_string function

 28 30  0  0  0  0  0  0  0  0999 V2000
    5.7174   -8.4529   26.7190 C   0  0  0  0  0  0  0  0  0  0  0  0
    0.3974   -7.0711   27.5149 C   0  0  0  0  0  0  0  0  0  0  0  0
    2.5338   -7.6891   16.0102 C   0  0  0  0  0  0  0  0  0  0  0  0
    4.8690   -7.4380   26.4151 C   0  0  0  0  0  0  0  0  0  0  0  0
    2.3021   -5.6726   26.0378 C   0  0  0  0  0  0  0  0  0  0  0  0
    7.0880   -4.6163   27.0010 C   0  0  0  0  0  0  0  0  0  0  0  0
    8.3117   -4.3698   27.4436 C   0  0  0  0  0  0  0  0  0  0  0  0
    1.1339   -5.0515   26.3541 C   0  0  0  0  0  0  0  0  0  0  0  0
    4.8080   -8.0362   16.7101 C   0  0  0  0  0  0  0  0  0  0  0  0
   -1.2173   -3.9294   26.9717 O   0  0  0  0  0  0  0  0  0  0  0  0
   -1.0025   -5.0942   27.4586 C   0  0  0  0  0  0  0  0  0  0  0  0
    2.2474   -8.9123   16.6273 C   0  0  0  0  0  0  0  0  0  0  0  0
    4.4957   -9.2636   17.3041 C   0  0  0  0  0  0  0  0  0  0  0  0
   -1.8070   -5.6086   28.1920 O   0  0  0  0  0  0  0  0  0  0  0  0
   10.4296   -5.1799   28.3140 C   0  0  0  0  0  0  0  0  0  0  0  0
    6.6017   -5.9004   26.9187 C   0  0  0  0  0  0  0  0  0  0  0  0
    2.4761   -6.9940   26.4111 N   0  0  0  0  0  0  0  0  0  0  0  0
    9.1353   -5.4053   27.8239 C   0  0  0  0  0  0  0  0  0  0  0  0
    0.9922   -9.3232   16.5995 O   0  0  0  0  0  0  0  0  0  0  0  0
    1.5232   -7.6869   27.1182 C   0  0  0  0  0  0  0  0  0  0  0  0
    8.6878   -6.6715   27.7262 N   0  0  0  0  0  0  0  0  0  0  0  0
    6.9911   -8.2423   27.1808 C   0  0  0  0  0  0  0  0  0  0  0  0
    3.8436   -7.2758   16.0578 C   0  0  0  0  0  0  0  0  0  0  0  0
    3.1882   -9.7190   17.2566 C   0  0  0  0  0  0  0  0  0  0  0  0
    5.3488   -6.1737   26.5092 C   0  0  0  0  0  0  0  0  0  0  0  0
    7.4567   -6.9464   27.2858 C   0  0  0  0  0  0  0  0  0  0  0  0
    0.1921   -5.7592   27.1123 C   0  0  0  0  0  0  0  0  0  0  0  0
    3.5517   -7.7407   25.9711 C   0  0  0  0  0  0  0  0  0  0  0  0
  1  4  4  0
  1 22  4  0
  2 20  4  0
  2 27  4  0
  3 12  4  0
  3 23  4  0
  4 25  4  0
  4 28  1  0
  5  8  4  0
  5 17  4  0
  6  7  4  0
  6 16  4  0
  7 18  4  0
  8 27  4  0
  9 13  4  0
  9 23  4  0
 10 11  1  0
 11 14  2  0
 11 27  1  0
 12 19  1  0
 12 24  4  0
 13 24  4  0
 15 18  1  0
 16 25  4  0
 16 26  4  0
 17 20  4  0
 17 28  1  0
 18 21  4  0
 21 26  4  0
 22 26  4  0
M  END
$$$$

 Created by Python create_sdf_string function

 28 30  0  0  0  0  0  0  0  0999 V2000
    5.7174   -8.4529   26.7190 C   0  0  0  0  0  0  0  0  0  0  0  0
    0.3974   -7.0711   27.5149 C   0  0  0  0  0  0  0  0  0  0  0  0
    2.5338   -7.6891   16.0102 C   0  0  0  0  0  0  0  0  0  0  0  0
    4.8690   -7.4380   26.4151 C   0  0  0  0  0  0  0  0  0  0  0  0
    2.3021   -5.6726   26.0378 C   0  0  0  0  0  0  0  0  0  0  0  0
    7.0880   -4.6163   27.0010 C   0  0  0  0  0  0  0  0  0  0  0  0
    8.3117   -4.3698   27.4436 C   0  0  0  0  0  0  0  0  0  0  0  0
    1.1339   -5.0515   26.3541 C   0  0  0  0  0  0  0  0  0  0  0  0
    4.8080   -8.0362   16.7101 C   0  0  0  0  0  0  0  0  0  0  0  0
   -1.2173   -3.9294   26.9717 O   0  0  0  0  0  0  0  0  0  0  0  0
   -1.0025   -5.0942   27.4586 C   0  0  0  0  0  0  0  0  0  0  0  0
    2.2474   -8.9123   16.6273 C   0  0  0  0  0  0  0  0  0  0  0  0
    4.4957   -9.2636   17.3041 C   0  0  0  0  0  0  0  0  0  0  0  0
   -1.8070   -5.6086   28.1920 O   0  0  0  0  0  0  0  0  0  0  0  0
   10.4296   -5.1799   28.3140 C   0  0  0  0  0  0  0  0  0  0  0  0
    6.6017   -5.9004   26.9187 C   0  0  0  0  0  0  0  0  0  0  0  0
    2.4761   -6.9940   26.4111 N   0  0  0  0  0  0  0  0  0  0  0  0
    9.1353   -5.4053   27.8239 C   0  0  0  0  0  0  0  0  0  0  0  0
    0.9922   -9.3232   16.5995 O   0  0  0  0  0  0  0  0  0  0  0  0
    1.5232   -7.6869   27.1182 C   0  0  0  0  0  0  0  0  0  0  0  0
    8.6878   -6.6715   27.7262 N   0  0  0  0  0  0  0  0  0  0  0  0
    6.9911   -8.2423   27.1808 C   0  0  0  0  0  0  0  0  0  0  0  0
    3.8436   -7.2758   16.0578 C   0  0  0  0  0  0  0  0  0  0  0  0
    3.1882   -9.7190   17.2566 C   0  0  0  0  0  0  0  0  0  0  0  0
    5.3488   -6.1737   26.5092 C   0  0  0  0  0  0  0  0  0  0  0  0
    7.4567   -6.9464   27.2858 C   0  0  0  0  0  0  0  0  0  0  0  0
    0.1921   -5.7592   27.1123 C   0  0  0  0  0  0  0  0  0  0  0  0
    3.5517   -7.7407   25.9711 C   0  0  0  0  0  0  0  0  0  0  0  0
  1  4  4  0
  1 22  4  0
  2 20  4  0
  2 27  4  0
  3 12  4  0
  3 23  4  0
  4 25  4  0
  4 28  1  0
  5  8  4  0
  5 17  4  0
  6  7  4  0
  6 16  4  0
  7 18  4  0
  8 27  4  0
  9 13  4  0
  9 23  4  0
 10 11  1  0
 11 14  2  0
 11 27  1  0
 12 19  1  0
 12 24  4  0
 13 24  4  0
 15 18  1  0
 16 25  4  0
 16 26  4  0
 17 20  4  0
 17 28  1  0
 18 21  4  0
 21 26  4  0
 22 26  4  0
M  END
$$$$

 Created by Python create_sdf_string function

 28 30  0  0  0  0  0  0  0  0999 V2000
    5.7174   -8.4529   26.7190 C   0  0  0  0  0  0  0  0  0  0  0  0
    0.3974   -7.0711   27.5149 C   0  0  0  0  0  0  0  0  0  0  0  0
    2.5338   -7.6891   16.0102 C   0  0  0  0  0  0  0  0  0  0  0  0
    4.8690   -7.4380   26.4151 C   0  0  0  0  0  0  0  0  0  0  0  0
    2.3021   -5.6726   26.0378 C   0  0  0  0  0  0  0  0  0  0  0  0
    7.0880   -4.6163   27.0010 C   0  0  0  0  0  0  0  0  0  0  0  0
    8.3117   -4.3698   27.4436 C   0  0  0  0  0  0  0  0  0  0  0  0
    1.1339   -5.0515   26.3541 C   0  0  0  0  0  0  0  0  0  0  0  0
    4.8080   -8.0362   16.7101 C   0  0  0  0  0  0  0  0  0  0  0  0
   -1.2173   -3.9294   26.9717 O   0  0  0  0  0  0  0  0  0  0  0  0
   -1.0025   -5.0942   27.4586 C   0  0  0  0  0  0  0  0  0  0  0  0
    2.2474   -8.9123   16.6273 C   0  0  0  0  0  0  0  0  0  0  0  0
    4.4957   -9.2636   17.3041 C   0  0  0  0  0  0  0  0  0  0  0  0
   -1.8070   -5.6086   28.1920 O   0  0  0  0  0  0  0  0  0  0  0  0
   10.4296   -5.1799   28.3140 C   0  0  0  0  0  0  0  0  0  0  0  0
    6.6017   -5.9004   26.9187 C   0  0  0  0  0  0  0  0  0  0  0  0
    2.4761   -6.9940   26.4111 N   0  0  0  0  0  0  0  0  0  0  0  0
    9.1353   -5.4053   27.8239 C   0  0  0  0  0  0  0  0  0  0  0  0
    0.9922   -9.3232   16.5995 O   0  0  0  0  0  0  0  0  0  0  0  0
    1.5232   -7.6869   27.1182 C   0  0  0  0  0  0  0  0  0  0  0  0
    8.6878   -6.6715   27.7262 N   0  0  0  0  0  0  0  0  0  0  0  0
    6.9911   -8.2423   27.1808 C   0  0  0  0  0  0  0  0  0  0  0  0
    3.8436   -7.2758   16.0578 C   0  0  0  0  0  0  0  0  0  0  0  0
    3.1882   -9.7190   17.2566 C   0  0  0  0  0  0  0  0  0  0  0  0
    5.3488   -6.1737   26.5092 C   0  0  0  0  0  0  0  0  0  0  0  0
    7.4567   -6.9464   27.2858 C   0  0  0  0  0  0  0  0  0  0  0  0
    0.1921   -5.7592   27.1123 C   0  0  0  0  0  0  0  0  0  0  0  0
    3.5517   -7.7407   25.9711 C   0  0  0  0  0  0  0  0  0  0  0  0
  1  4  4  0
  1 22  4  0
  2 20  4  0
  2 27  4  0
  3 12  4  0
  3 23  4  0
  4 25  4  0
  4 28  1  0
  5  8  4  0
  5 17  4  0
  6  7  4  0
  6 16  4  0
  7 18  4  0
  8 27  4  0
  9 13  4  0
  9 23  4  0
 10 11  1  0
 11 14  2  0
 11 27  1  0
 12 19  1  0
 12 24  4  0
 13 24  4  0
 15 18  1  0
 16 25  4  0
 16 26  4  0
 17 20  4  0
 17 28  1  0
 18 21  4  0
 21 26  4  0
 22 26  4  0
M  END
$$$$

 Created by Python create_sdf_string function

 28 30  0  0  0  0  0  0  0  0999 V2000
    5.7174   -8.4529   26.7190 C   0  0  0  0  0  0  0  0  0  0  0  0
    0.3974   -7.0711   27.5149 C   0  0  0  0  0  0  0  0  0  0  0  0
    2.5338   -7.6891   16.0102 C   0  0  0  0  0  0  0  0  0  0  0  0
    4.8690   -7.4380   26.4151 C   0  0  0  0  0  0  0  0  0  0  0  0
    2.3021   -5.6726   26.0378 C   0  0  0  0  0  0  0  0  0  0  0  0
    7.0880   -4.6163   27.0010 C   0  0  0  0  0  0  0  0  0  0  0  0
    8.3117   -4.3698   27.4436 C   0  0  0  0  0  0  0  0  0  0  0  0
    1.1339   -5.0515   26.3541 C   0  0  0  0  0  0  0  0  0  0  0  0
    4.8080   -8.0362   16.7101 C   0  0  0  0  0  0  0  0  0  0  0  0
   -1.2173   -3.9294   26.9717 O   0  0  0  0  0  0  0  0  0  0  0  0
   -1.0025   -5.0942   27.4586 C   0  0  0  0  0  0  0  0  0  0  0  0
    2.2474   -8.9123   16.6273 C   0  0  0  0  0  0  0  0  0  0  0  0
    4.4957   -9.2636   17.3041 C   0  0  0  0  0  0  0  0  0  0  0  0
   -1.8070   -5.6086   28.1920 O   0  0  0  0  0  0  0  0  0  0  0  0
   10.4296   -5.1799   28.3140 C   0  0  0  0  0  0  0  0  0  0  0  0
    6.6017   -5.9004   26.9187 C   0  0  0  0  0  0  0  0  0  0  0  0
    2.4761   -6.9940   26.4111 N   0  0  0  0  0  0  0  0  0  0  0  0
    9.1353   -5.4053   27.8239 C   0  0  0  0  0  0  0  0  0  0  0  0
    0.9922   -9.3232   16.5995 O   0  0  0  0  0  0  0  0  0  0  0  0
    1.5232   -7.6869   27.1182 C   0  0  0  0  0  0  0  0  0  0  0  0
    8.6878   -6.6715   27.7262 N   0  0  0  0  0  0  0  0  0  0  0  0
    6.9911   -8.2423   27.1808 C   0  0  0  0  0  0  0  0  0  0  0  0
    3.8436   -7.2758   16.0578 C   0  0  0  0  0  0  0  0  0  0  0  0
    3.1882   -9.7190   17.2566 C   0  0  0  0  0  0  0  0  0  0  0  0
    5.3488   -6.1737   26.5092 C   0  0  0  0  0  0  0  0  0  0  0  0
    7.4567   -6.9464   27.2858 C   0  0  0  0  0  0  0  0  0  0  0  0
    0.1921   -5.7592   27.1123 C   0  0  0  0  0  0  0  0  0  0  0  0
    3.5517   -7.7407   25.9711 C   0  0  0  0  0  0  0  0  0  0  0  0
  1  4  4  0
  1 22  4  0
  2 20  4  0
  2 27  4  0
  3 12  4  0
  3 23  4  0
  4 25  4  0
  4 28  1  0
  5  8  4  0
  5 17  4  0
  6  7  4  0
  6 16  4  0
  7 18  4  0
  8 27  4  0
  9 13  4  0
  9 23  4  0
 10 11  1  0
 11 14  2  0
 11 27  1  0
 12 19  1  0
 12 24  4  0
 13 24  4  0
 15 18  1  0
 16 25  4  0
 16 26  4  0
 17 20  4  0
 17 28  1  0
 18 21  4  0
 21 26  4  0
 22 26  4  0
M  END
$$$$

 Created by Python create_sdf_string function

 28 30  0  0  0  0  0  0  0  0999 V2000
    5.7174   -8.4529   26.7190 C   0  0  0  0  0  0  0  0  0  0  0  0
    0.3974   -7.0711   27.5149 C   0  0  0  0  0  0  0  0  0  0  0  0
    2.5338   -7.6891   16.0102 C   0  0  0  0  0  0  0  0  0  0  0  0
    4.8690   -7.4380   26.4151 C   0  0  0  0  0  0  0  0  0  0  0  0
    2.3021   -5.6726   26.0378 C   0  0  0  0  0  0  0  0  0  0  0  0
    7.0880   -4.6163   27.0010 C   0  0  0  0  0  0  0  0  0  0  0  0
    8.3117   -4.3698   27.4436 C   0  0  0  0  0  0  0  0  0  0  0  0
    1.1339   -5.0515   26.3541 C   0  0  0  0  0  0  0  0  0  0  0  0
    4.8080   -8.0362   16.7101 C   0  0  0  0  0  0  0  0  0  0  0  0
   -1.2173   -3.9294   26.9717 O   0  0  0  0  0  0  0  0  0  0  0  0
   -1.0025   -5.0942   27.4586 C   0  0  0  0  0  0  0  0  0  0  0  0
    2.2474   -8.9123   16.6273 C   0  0  0  0  0  0  0  0  0  0  0  0
    4.4957   -9.2636   17.3041 C   0  0  0  0  0  0  0  0  0  0  0  0
   -1.8070   -5.6086   28.1920 O   0  0  0  0  0  0  0  0  0  0  0  0
   10.4296   -5.1799   28.3140 C   0  0  0  0  0  0  0  0  0  0  0  0
    6.6017   -5.9004   26.9187 C   0  0  0  0  0  0  0  0  0  0  0  0
    2.4761   -6.9940   26.4111 N   0  0  0  0  0  0  0  0  0  0  0  0
    9.1353   -5.4053   27.8239 C   0  0  0  0  0  0  0  0  0  0  0  0
    0.9922   -9.3232   16.5995 O   0  0  0  0  0  0  0  0  0  0  0  0
    1.5232   -7.6869   27.1182 C   0  0  0  0  0  0  0  0  0  0  0  0
    8.6878   -6.6715   27.7262 N   0  0  0  0  0  0  0  0  0  0  0  0
    6.9911   -8.2423   27.1808 C   0  0  0  0  0  0  0  0  0  0  0  0
    3.8436   -7.2758   16.0578 C   0  0  0  0  0  0  0  0  0  0  0  0
    3.1882   -9.7190   17.2566 C   0  0  0  0  0  0  0  0  0  0  0  0
    5.3488   -6.1737   26.5092 C   0  0  0  0  0  0  0  0  0  0  0  0
    7.4567   -6.9464   27.2858 C   0  0  0  0  0  0  0  0  0  0  0  0
    0.1921   -5.7592   27.1123 C   0  0  0  0  0  0  0  0  0  0  0  0
    3.5517   -7.7407   25.9711 C   0  0  0  0  0  0  0  0  0  0  0  0
  1  4  4  0
  1 22  4  0
  2 20  4  0
  2 27  4  0
  3 12  4  0
  3 23  4  0
  4 25  4  0
  4 28  1  0
  5  8  4  0
  5 17  4  0
  6  7  4  0
  6 16  4  0
  7 18  4  0
  8 27  4  0
  9 13  4  0
  9 23  4  0
 10 11  1  0
 11 14  2  0
 11 27  1  0
 12 19  1  0
 12 24  4  0
 13 24  4  0
 15 18  1  0
 16 25  4  0
 16 26  4  0
 17 20  4  0
 17 28  1  0
 18 21  4  0
 21 26  4  0
 22 26  4  0
M  END
$$$$

 Created by Python create_sdf_string function

 28 30  0  0  0  0  0  0  0  0999 V2000
    5.7174   -8.4529   26.7190 C   0  0  0  0  0  0  0  0  0  0  0  0
    0.3974   -7.0711   27.5149 C   0  0  0  0  0  0  0  0  0  0  0  0
    2.5338   -7.6891   16.0102 C   0  0  0  0  0  0  0  0  0  0  0  0
    4.8690   -7.4380   26.4151 C   0  0  0  0  0  0  0  0  0  0  0  0
    2.3021   -5.6726   26.0378 C   0  0  0  0  0  0  0  0  0  0  0  0
    7.0880   -4.6163   27.0010 C   0  0  0  0  0  0  0  0  0  0  0  0
    8.3117   -4.3698   27.4436 C   0  0  0  0  0  0  0  0  0  0  0  0
    1.1339   -5.0515   26.3541 C   0  0  0  0  0  0  0  0  0  0  0  0
    4.8080   -8.0362   16.7101 C   0  0  0  0  0  0  0  0  0  0  0  0
   -1.2173   -3.9294   26.9717 O   0  0  0  0  0  0  0  0  0  0  0  0
   -1.0025   -5.0942   27.4586 C   0  0  0  0  0  0  0  0  0  0  0  0
    2.2474   -8.9123   16.6273 C   0  0  0  0  0  0  0  0  0  0  0  0
    4.4957   -9.2636   17.3041 C   0  0  0  0  0  0  0  0  0  0  0  0
   -1.8070   -5.6086   28.1920 O   0  0  0  0  0  0  0  0  0  0  0  0
   10.4296   -5.1799   28.3140 C   0  0  0  0  0  0  0  0  0  0  0  0
    6.6017   -5.9004   26.9187 C   0  0  0  0  0  0  0  0  0  0  0  0
    2.4761   -6.9940   26.4111 N   0  0  0  0  0  0  0  0  0  0  0  0
    9.1353   -5.4053   27.8239 C   0  0  0  0  0  0  0  0  0  0  0  0
    0.9922   -9.3232   16.5995 O   0  0  0  0  0  0  0  0  0  0  0  0
    1.5232   -7.6869   27.1182 C   0  0  0  0  0  0  0  0  0  0  0  0
    8.6878   -6.6715   27.7262 N   0  0  0  0  0  0  0  0  0  0  0  0
    6.9911   -8.2423   27.1808 C   0  0  0  0  0  0  0  0  0  0  0  0
    3.8436   -7.2758   16.0578 C   0  0  0  0  0  0  0  0  0  0  0  0
    3.1882   -9.7190   17.2566 C   0  0  0  0  0  0  0  0  0  0  0  0
    5.3488   -6.1737   26.5092 C   0  0  0  0  0  0  0  0  0  0  0  0
    7.4567   -6.9464   27.2858 C   0  0  0  0  0  0  0  0  0  0  0  0
    0.1921   -5.7592   27.1123 C   0  0  0  0  0  0  0  0  0  0  0  0
    3.5517   -7.7407   25.9711 C   0  0  0  0  0  0  0  0  0  0  0  0
  1  4  4  0
  1 22  4  0
  2 20  4  0
  2 27  4  0
  3 12  4  0
  3 23  4  0
  4 25  4  0
  4 28  1  0
  5  8  4  0
  5 17  4  0
  6  7  4  0
  6 16  4  0
  7 18  4  0
  8 27  4  0
  9 13  4  0
  9 23  4  0
 10 11  1  0
 11 14  2  0
 11 27  1  0
 12 19  1  0
 12 24  4  0
 13 24  4  0
 15 18  1  0
 16 25  4  0
 16 26  4  0
 17 20  4  0
 17 28  1  0
 18 21  4  0
 21 26  4  0
 22 26  4  0
M  END
$$$$

 Created by Python create_sdf_string function

 28 30  0  0  0  0  0  0  0  0999 V2000
    5.7174   -8.4529   26.7190 C   0  0  0  0  0  0  0  0  0  0  0  0
    0.3974   -7.0711   27.5149 C   0  0  0  0  0  0  0  0  0  0  0  0
    2.5338   -7.6891   16.0102 C   0  0  0  0  0  0  0  0  0  0  0  0
    4.8690   -7.4380   26.4151 C   0  0  0  0  0  0  0  0  0  0  0  0
    2.3021   -5.6726   26.0378 C   0  0  0  0  0  0  0  0  0  0  0  0
    7.0880   -4.6163   27.0010 C   0  0  0  0  0  0  0  0  0  0  0  0
    8.3117   -4.3698   27.4436 C   0  0  0  0  0  0  0  0  0  0  0  0
    1.1339   -5.0515   26.3541 C   0  0  0  0  0  0  0  0  0  0  0  0
    4.8080   -8.0362   16.7101 C   0  0  0  0  0  0  0  0  0  0  0  0
   -1.2173   -3.9294   26.9717 O   0  0  0  0  0  0  0  0  0  0  0  0
   -1.0025   -5.0942   27.4586 C   0  0  0  0  0  0  0  0  0  0  0  0
    2.2474   -8.9123   16.6273 C   0  0  0  0  0  0  0  0  0  0  0  0
    4.4957   -9.2636   17.3041 C   0  0  0  0  0  0  0  0  0  0  0  0
   -1.8070   -5.6086   28.1920 O   0  0  0  0  0  0  0  0  0  0  0  0
   10.4296   -5.1799   28.3140 C   0  0  0  0  0  0  0  0  0  0  0  0
    6.6017   -5.9004   26.9187 C   0  0  0  0  0  0  0  0  0  0  0  0
    2.4761   -6.9940   26.4111 N   0  0  0  0  0  0  0  0  0  0  0  0
    9.1353   -5.4053   27.8239 C   0  0  0  0  0  0  0  0  0  0  0  0
    0.9922   -9.3232   16.5995 O   0  0  0  0  0  0  0  0  0  0  0  0
    1.5232   -7.6869   27.1182 C   0  0  0  0  0  0  0  0  0  0  0  0
    8.6878   -6.6715   27.7262 N   0  0  0  0  0  0  0  0  0  0  0  0
    6.9911   -8.2423   27.1808 C   0  0  0  0  0  0  0  0  0  0  0  0
    3.8436   -7.2758   16.0578 C   0  0  0  0  0  0  0  0  0  0  0  0
    3.1882   -9.7190   17.2566 C   0  0  0  0  0  0  0  0  0  0  0  0
    5.3488   -6.1737   26.5092 C   0  0  0  0  0  0  0  0  0  0  0  0
    7.4567   -6.9464   27.2858 C   0  0  0  0  0  0  0  0  0  0  0  0
    0.1921   -5.7592   27.1123 C   0  0  0  0  0  0  0  0  0  0  0  0
    3.5517   -7.7407   25.9711 C   0  0  0  0  0  0  0  0  0  0  0  0
  1  4  4  0
  1 22  4  0
  2 20  4  0
  2 27  4  0
  3 12  4  0
  3 23  4  0
  4 25  4  0
  4 28  1  0
  5  8  4  0
  5 17  4  0
  6  7  4  0
  6 16  4  0
  7 18  4  0
  8 27  4  0
  9 13  4  0
  9 23  4  0
 10 11  1  0
 11 14  2  0
 11 27  1  0
 12 19  1  0
 12 24  4  0
 13 24  4  0
 15 18  1  0
 16 25  4  0
 16 26  4  0
 17 20  4  0
 17 28  1  0
 18 21  4  0
 21 26  4  0
 22 26  4  0
M  END
$$$$

 Created by Python create_sdf_string function

 28 30  0  0  0  0  0  0  0  0999 V2000
    5.7174   -8.4529   26.7190 C   0  0  0  0  0  0  0  0  0  0  0  0
    0.3974   -7.0711   27.5149 C   0  0  0  0  0  0  0  0  0  0  0  0
    2.5338   -7.6891   16.0102 C   0  0  0  0  0  0  0  0  0  0  0  0
    4.8690   -7.4380   26.4151 C   0  0  0  0  0  0  0  0  0  0  0  0
    2.3021   -5.6726   26.0378 C   0  0  0  0  0  0  0  0  0  0  0  0
    7.0880   -4.6163   27.0010 C   0  0  0  0  0  0  0  0  0  0  0  0
    8.3117   -4.3698   27.4436 C   0  0  0  0  0  0  0  0  0  0  0  0
    1.1339   -5.0515   26.3541 C   0  0  0  0  0  0  0  0  0  0  0  0
    4.8080   -8.0362   16.7101 C   0  0  0  0  0  0  0  0  0  0  0  0
   -1.2173   -3.9294   26.9717 O   0  0  0  0  0  0  0  0  0  0  0  0
   -1.0025   -5.0942   27.4586 C   0  0  0  0  0  0  0  0  0  0  0  0
    2.2474   -8.9123   16.6273 C   0  0  0  0  0  0  0  0  0  0  0  0
    4.4957   -9.2636   17.3041 C   0  0  0  0  0  0  0  0  0  0  0  0
   -1.8070   -5.6086   28.1920 O   0  0  0  0  0  0  0  0  0  0  0  0
   10.4296   -5.1799   28.3140 C   0  0  0  0  0  0  0  0  0  0  0  0
    6.6017   -5.9004   26.9187 C   0  0  0  0  0  0  0  0  0  0  0  0
    2.4761   -6.9940   26.4111 N   0  0  0  0  0  0  0  0  0  0  0  0
    9.1353   -5.4053   27.8239 C   0  0  0  0  0  0  0  0  0  0  0  0
    0.9922   -9.3232   16.5995 O   0  0  0  0  0  0  0  0  0  0  0  0
    1.5232   -7.6869   27.1182 C   0  0  0  0  0  0  0  0  0  0  0  0
    8.6878   -6.6715   27.7262 N   0  0  0  0  0  0  0  0  0  0  0  0
    6.9911   -8.2423   27.1808 C   0  0  0  0  0  0  0  0  0  0  0  0
    3.8436   -7.2758   16.0578 C   0  0  0  0  0  0  0  0  0  0  0  0
    3.1882   -9.7190   17.2566 C   0  0  0  0  0  0  0  0  0  0  0  0
    5.3488   -6.1737   26.5092 C   0  0  0  0  0  0  0  0  0  0  0  0
    7.4567   -6.9464   27.2858 C   0  0  0  0  0  0  0  0  0  0  0  0
    0.1921   -5.7592   27.1123 C   0  0  0  0  0  0  0  0  0  0  0  0
    3.5517   -7.7407   25.9711 C   0  0  0  0  0  0  0  0  0  0  0  0
  1  4  4  0
  1 22  4  0
  2 20  4  0
  2 27  4  0
  3 12  4  0
  3 23  4  0
  4 25  4  0
  4 28  1  0
  5  8  4  0
  5 17  4  0
  6  7  4  0
  6 16  4  0
  7 18  4  0
  8 27  4  0
  9 13  4  0
  9 23  4  0
 10 11  1  0
 11 14  2  0
 11 27  1  0
 12 19  1  0
 12 24  4  0
 13 24  4  0
 15 18  1  0
 16 25  4  0
 16 26  4  0
 17 20  4  0
 17 28  1  0
 18 21  4  0
 21 26  4  0
 22 26  4  0
M  END
$$$$

 Created by Python create_sdf_string function

 28 30  0  0  0  0  0  0  0  0999 V2000
    5.7174   -8.4529   26.7190 C   0  0  0  0  0  0  0  0  0  0  0  0
    0.3974   -7.0711   27.5149 C   0  0  0  0  0  0  0  0  0  0  0  0
    2.5338   -7.6891   16.0102 C   0  0  0  0  0  0  0  0  0  0  0  0
    4.8690   -7.4380   26.4151 C   0  0  0  0  0  0  0  0  0  0  0  0
    2.3021   -5.6726   26.0378 C   0  0  0  0  0  0  0  0  0  0  0  0
    7.0880   -4.6163   27.0010 C   0  0  0  0  0  0  0  0  0  0  0  0
    8.3117   -4.3698   27.4436 C   0  0  0  0  0  0  0  0  0  0  0  0
    1.1339   -5.0515   26.3541 C   0  0  0  0  0  0  0  0  0  0  0  0
    4.8080   -8.0362   16.7101 C   0  0  0  0  0  0  0  0  0  0  0  0
   -1.2173   -3.9294   26.9717 O   0  0  0  0  0  0  0  0  0  0  0  0
   -1.0025   -5.0942   27.4586 C   0  0  0  0  0  0  0  0  0  0  0  0
    2.2474   -8.9123   16.6273 C   0  0  0  0  0  0  0  0  0  0  0  0
    4.4957   -9.2636   17.3041 C   0  0  0  0  0  0  0  0  0  0  0  0
   -1.8070   -5.6086   28.1920 O   0  0  0  0  0  0  0  0  0  0  0  0
   10.4296   -5.1799   28.3140 C   0  0  0  0  0  0  0  0  0  0  0  0
    6.6017   -5.9004   26.9187 C   0  0  0  0  0  0  0  0  0  0  0  0
    2.4761   -6.9940   26.4111 N   0  0  0  0  0  0  0  0  0  0  0  0
    9.1353   -5.4053   27.8239 C   0  0  0  0  0  0  0  0  0  0  0  0
    0.9922   -9.3232   16.5995 O   0  0  0  0  0  0  0  0  0  0  0  0
    1.5232   -7.6869   27.1182 C   0  0  0  0  0  0  0  0  0  0  0  0
    8.6878   -6.6715   27.7262 N   0  0  0  0  0  0  0  0  0  0  0  0
    6.9911   -8.2423   27.1808 C   0  0  0  0  0  0  0  0  0  0  0  0
    3.8436   -7.2758   16.0578 C   0  0  0  0  0  0  0  0  0  0  0  0
    3.1882   -9.7190   17.2566 C   0  0  0  0  0  0  0  0  0  0  0  0
    5.3488   -6.1737   26.5092 C   0  0  0  0  0  0  0  0  0  0  0  0
    7.4567   -6.9464   27.2858 C   0  0  0  0  0  0  0  0  0  0  0  0
    0.1921   -5.7592   27.1123 C   0  0  0  0  0  0  0  0  0  0  0  0
    3.5517   -7.7407   25.9711 C   0  0  0  0  0  0  0  0  0  0  0  0
  1  4  4  0
  1 22  4  0
  2 20  4  0
  2 27  4  0
  3 12  4  0
  3 23  4  0
  4 25  4  0
  4 28  1  0
  5  8  4  0
  5 17  4  0
  6  7  4  0
  6 16  4  0
  7 18  4  0
  8 27  4  0
  9 13  4  0
  9 23  4  0
 10 11  1  0
 11 14  2  0
 11 27  1  0
 12 19  1  0
 12 24  4  0
 13 24  4  0
 15 18  1  0
 16 25  4  0
 16 26  4  0
 17 20  4  0
 17 28  1  0
 18 21  4  0
 21 26  4  0
 22 26  4  0
M  END
$$$$

 Created by Python create_sdf_string function

 28 30  0  0  0  0  0  0  0  0999 V2000
    5.7174   -8.4529   26.7190 C   0  0  0  0  0  0  0  0  0  0  0  0
    0.3974   -7.0711   27.5149 C   0  0  0  0  0  0  0  0  0  0  0  0
    2.5338   -7.6891   16.0102 C   0  0  0  0  0  0  0  0  0  0  0  0
    4.8690   -7.4380   26.4151 C   0  0  0  0  0  0  0  0  0  0  0  0
    2.3021   -5.6726   26.0378 C   0  0  0  0  0  0  0  0  0  0  0  0
    7.0880   -4.6163   27.0010 C   0  0  0  0  0  0  0  0  0  0  0  0
    8.3117   -4.3698   27.4436 C   0  0  0  0  0  0  0  0  0  0  0  0
    1.1339   -5.0515   26.3541 C   0  0  0  0  0  0  0  0  0  0  0  0
    4.8080   -8.0362   16.7101 C   0  0  0  0  0  0  0  0  0  0  0  0
   -1.2173   -3.9294   26.9717 O   0  0  0  0  0  0  0  0  0  0  0  0
   -1.0025   -5.0942   27.4586 C   0  0  0  0  0  0  0  0  0  0  0  0
    2.2474   -8.9123   16.6273 C   0  0  0  0  0  0  0  0  0  0  0  0
    4.4957   -9.2636   17.3041 C   0  0  0  0  0  0  0  0  0  0  0  0
   -1.8070   -5.6086   28.1920 O   0  0  0  0  0  0  0  0  0  0  0  0
   10.4296   -5.1799   28.3140 C   0  0  0  0  0  0  0  0  0  0  0  0
    6.6017   -5.9004   26.9187 C   0  0  0  0  0  0  0  0  0  0  0  0
    2.4761   -6.9940   26.4111 N   0  0  0  0  0  0  0  0  0  0  0  0
    9.1353   -5.4053   27.8239 C   0  0  0  0  0  0  0  0  0  0  0  0
    0.9922   -9.3232   16.5995 O   0  0  0  0  0  0  0  0  0  0  0  0
    1.5232   -7.6869   27.1182 C   0  0  0  0  0  0  0  0  0  0  0  0
    8.6878   -6.6715   27.7262 N   0  0  0  0  0  0  0  0  0  0  0  0
    6.9911   -8.2423   27.1808 C   0  0  0  0  0  0  0  0  0  0  0  0
    3.8436   -7.2758   16.0578 C   0  0  0  0  0  0  0  0  0  0  0  0
    3.1882   -9.7190   17.2566 C   0  0  0  0  0  0  0  0  0  0  0  0
    5.3488   -6.1737   26.5092 C   0  0  0  0  0  0  0  0  0  0  0  0
    7.4567   -6.9464   27.2858 C   0  0  0  0  0  0  0  0  0  0  0  0
    0.1921   -5.7592   27.1123 C   0  0  0  0  0  0  0  0  0  0  0  0
    3.5517   -7.7407   25.9711 C   0  0  0  0  0  0  0  0  0  0  0  0
  1  4  4  0
  1 22  4  0
  2 20  4  0
  2 27  4  0
  3 12  4  0
  3 23  4  0
  4 25  4  0
  4 28  1  0
  5  8  4  0
  5 17  4  0
  6  7  4  0
  6 16  4  0
  7 18  4  0
  8 27  4  0
  9 13  4  0
  9 23  4  0
 10 11  1  0
 11 14  2  0
 11 27  1  0
 12 19  1  0
 12 24  4  0
 13 24  4  0
 15 18  1  0
 16 25  4  0
 16 26  4  0
 17 20  4  0
 17 28  1  0
 18 21  4  0
 21 26  4  0
 22 26  4  0
M  END
$$$$

 Created by Python create_sdf_string function

 28 30  0  0  0  0  0  0  0  0999 V2000
    5.7174   -8.4529   26.7190 C   0  0  0  0  0  0  0  0  0  0  0  0
    0.3974   -7.0711   27.5149 C   0  0  0  0  0  0  0  0  0  0  0  0
    2.5338   -7.6891   16.0102 C   0  0  0  0  0  0  0  0  0  0  0  0
    4.8690   -7.4380   26.4151 C   0  0  0  0  0  0  0  0  0  0  0  0
    2.3021   -5.6726   26.0378 C   0  0  0  0  0  0  0  0  0  0  0  0
    7.0880   -4.6163   27.0010 C   0  0  0  0  0  0  0  0  0  0  0  0
    8.3117   -4.3698   27.4436 C   0  0  0  0  0  0  0  0  0  0  0  0
    1.1339   -5.0515   26.3541 C   0  0  0  0  0  0  0  0  0  0  0  0
    4.8080   -8.0362   16.7101 C   0  0  0  0  0  0  0  0  0  0  0  0
   -1.2173   -3.9294   26.9717 O   0  0  0  0  0  0  0  0  0  0  0  0
   -1.0025   -5.0942   27.4586 C   0  0  0  0  0  0  0  0  0  0  0  0
    2.2474   -8.9123   16.6273 C   0  0  0  0  0  0  0  0  0  0  0  0
    4.4957   -9.2636   17.3041 C   0  0  0  0  0  0  0  0  0  0  0  0
   -1.8070   -5.6086   28.1920 O   0  0  0  0  0  0  0  0  0  0  0  0
   10.4296   -5.1799   28.3140 C   0  0  0  0  0  0  0  0  0  0  0  0
    6.6017   -5.9004   26.9187 C   0  0  0  0  0  0  0  0  0  0  0  0
    2.4761   -6.9940   26.4111 N   0  0  0  0  0  0  0  0  0  0  0  0
    9.1353   -5.4053   27.8239 C   0  0  0  0  0  0  0  0  0  0  0  0
    0.9922   -9.3232   16.5995 O   0  0  0  0  0  0  0  0  0  0  0  0
    1.5232   -7.6869   27.1182 C   0  0  0  0  0  0  0  0  0  0  0  0
    8.6878   -6.6715   27.7262 N   0  0  0  0  0  0  0  0  0  0  0  0
    6.9911   -8.2423   27.1808 C   0  0  0  0  0  0  0  0  0  0  0  0
    3.8436   -7.2758   16.0578 C   0  0  0  0  0  0  0  0  0  0  0  0
    3.1882   -9.7190   17.2566 C   0  0  0  0  0  0  0  0  0  0  0  0
    5.3488   -6.1737   26.5092 C   0  0  0  0  0  0  0  0  0  0  0  0
    7.4567   -6.9464   27.2858 C   0  0  0  0  0  0  0  0  0  0  0  0
    0.1921   -5.7592   27.1123 C   0  0  0  0  0  0  0  0  0  0  0  0
    3.5517   -7.7407   25.9711 C   0  0  0  0  0  0  0  0  0  0  0  0
  1  4  4  0
  1 22  4  0
  2 20  4  0
  2 27  4  0
  3 12  4  0
  3 23  4  0
  4 25  4  0
  4 28  1  0
  5  8  4  0
  5 17  4  0
  6  7  4  0
  6 16  4  0
  7 18  4  0
  8 27  4  0
  9 13  4  0
  9 23  4  0
 10 11  1  0
 11 14  2  0
 11 27  1  0
 12 19  1  0
 12 24  4  0
 13 24  4  0
 15 18  1  0
 16 25  4  0
 16 26  4  0
 17 20  4  0
 17 28  1  0
 18 21  4  0
 21 26  4  0
 22 26  4  0
M  END
$$$$

 Created by Python create_sdf_string function

 28 30  0  0  0  0  0  0  0  0999 V2000
    5.7174   -8.4529   26.7190 C   0  0  0  0  0  0  0  0  0  0  0  0
    0.3974   -7.0711   27.5149 C   0  0  0  0  0  0  0  0  0  0  0  0
    2.5338   -7.6891   16.0102 C   0  0  0  0  0  0  0  0  0  0  0  0
    4.8690   -7.4380   26.4151 C   0  0  0  0  0  0  0  0  0  0  0  0
    2.3021   -5.6726   26.0378 C   0  0  0  0  0  0  0  0  0  0  0  0
    7.0880   -4.6163   27.0010 C   0  0  0  0  0  0  0  0  0  0  0  0
    8.3117   -4.3698   27.4436 C   0  0  0  0  0  0  0  0  0  0  0  0
    1.1339   -5.0515   26.3541 C   0  0  0  0  0  0  0  0  0  0  0  0
    4.8080   -8.0362   16.7101 C   0  0  0  0  0  0  0  0  0  0  0  0
   -1.2173   -3.9294   26.9717 O   0  0  0  0  0  0  0  0  0  0  0  0
   -1.0025   -5.0942   27.4586 C   0  0  0  0  0  0  0  0  0  0  0  0
    2.2474   -8.9123   16.6273 C   0  0  0  0  0  0  0  0  0  0  0  0
    4.4957   -9.2636   17.3041 C   0  0  0  0  0  0  0  0  0  0  0  0
   -1.8070   -5.6086   28.1920 O   0  0  0  0  0  0  0  0  0  0  0  0
   10.4296   -5.1799   28.3140 C   0  0  0  0  0  0  0  0  0  0  0  0
    6.6017   -5.9004   26.9187 C   0  0  0  0  0  0  0  0  0  0  0  0
    2.4761   -6.9940   26.4111 N   0  0  0  0  0  0  0  0  0  0  0  0
    9.1353   -5.4053   27.8239 C   0  0  0  0  0  0  0  0  0  0  0  0
    0.9922   -9.3232   16.5995 O   0  0  0  0  0  0  0  0  0  0  0  0
    1.5232   -7.6869   27.1182 C   0  0  0  0  0  0  0  0  0  0  0  0
    8.6878   -6.6715   27.7262 N   0  0  0  0  0  0  0  0  0  0  0  0
    6.9911   -8.2423   27.1808 C   0  0  0  0  0  0  0  0  0  0  0  0
    3.8436   -7.2758   16.0578 C   0  0  0  0  0  0  0  0  0  0  0  0
    3.1882   -9.7190   17.2566 C   0  0  0  0  0  0  0  0  0  0  0  0
    5.3488   -6.1737   26.5092 C   0  0  0  0  0  0  0  0  0  0  0  0
    7.4567   -6.9464   27.2858 C   0  0  0  0  0  0  0  0  0  0  0  0
    0.1921   -5.7592   27.1123 C   0  0  0  0  0  0  0  0  0  0  0  0
    3.5517   -7.7407   25.9711 C   0  0  0  0  0  0  0  0  0  0  0  0
  1  4  4  0
  1 22  4  0
  2 20  4  0
  2 27  4  0
  3 12  4  0
  3 23  4  0
  4 25  4  0
  4 28  1  0
  5  8  4  0
  5 17  4  0
  6  7  4  0
  6 16  4  0
  7 18  4  0
  8 27  4  0
  9 13  4  0
  9 23  4  0
 10 11  1  0
 11 14  2  0
 11 27  1  0
 12 19  1  0
 12 24  4  0
 13 24  4  0
 15 18  1  0
 16 25  4  0
 16 26  4  0
 17 20  4  0
 17 28  1  0
 18 21  4  0
 21 26  4  0
 22 26  4  0
M  END
$$$$

 Created by Python create_sdf_string function

 28 30  0  0  0  0  0  0  0  0999 V2000
    5.7174   -8.4529   26.7190 C   0  0  0  0  0  0  0  0  0  0  0  0
    0.3974   -7.0711   27.5149 C   0  0  0  0  0  0  0  0  0  0  0  0
    2.5338   -7.6891   16.0102 C   0  0  0  0  0  0  0  0  0  0  0  0
    4.8690   -7.4380   26.4151 C   0  0  0  0  0  0  0  0  0  0  0  0
    2.3021   -5.6726   26.0378 C   0  0  0  0  0  0  0  0  0  0  0  0
    7.0880   -4.6163   27.0010 C   0  0  0  0  0  0  0  0  0  0  0  0
    8.3117   -4.3698   27.4436 C   0  0  0  0  0  0  0  0  0  0  0  0
    1.1339   -5.0515   26.3541 C   0  0  0  0  0  0  0  0  0  0  0  0
    4.8080   -8.0362   16.7101 C   0  0  0  0  0  0  0  0  0  0  0  0
   -1.2173   -3.9294   26.9717 O   0  0  0  0  0  0  0  0  0  0  0  0
   -1.0025   -5.0942   27.4586 C   0  0  0  0  0  0  0  0  0  0  0  0
    2.2474   -8.9123   16.6273 C   0  0  0  0  0  0  0  0  0  0  0  0
    4.4957   -9.2636   17.3041 C   0  0  0  0  0  0  0  0  0  0  0  0
   -1.8070   -5.6086   28.1920 O   0  0  0  0  0  0  0  0  0  0  0  0
   10.4296   -5.1799   28.3140 C   0  0  0  0  0  0  0  0  0  0  0  0
    6.6017   -5.9004   26.9187 C   0  0  0  0  0  0  0  0  0  0  0  0
    2.4761   -6.9940   26.4111 N   0  0  0  0  0  0  0  0  0  0  0  0
    9.1353   -5.4053   27.8239 C   0  0  0  0  0  0  0  0  0  0  0  0
    0.9922   -9.3232   16.5995 O   0  0  0  0  0  0  0  0  0  0  0  0
    1.5232   -7.6869   27.1182 C   0  0  0  0  0  0  0  0  0  0  0  0
    8.6878   -6.6715   27.7262 N   0  0  0  0  0  0  0  0  0  0  0  0
    6.9911   -8.2423   27.1808 C   0  0  0  0  0  0  0  0  0  0  0  0
    3.8436   -7.2758   16.0578 C   0  0  0  0  0  0  0  0  0  0  0  0
    3.1882   -9.7190   17.2566 C   0  0  0  0  0  0  0  0  0  0  0  0
    5.3488   -6.1737   26.5092 C   0  0  0  0  0  0  0  0  0  0  0  0
    7.4567   -6.9464   27.2858 C   0  0  0  0  0  0  0  0  0  0  0  0
    0.1921   -5.7592   27.1123 C   0  0  0  0  0  0  0  0  0  0  0  0
    3.5517   -7.7407   25.9711 C   0  0  0  0  0  0  0  0  0  0  0  0
  1  4  4  0
  1 22  4  0
  2 20  4  0
  2 27  4  0
  3 12  4  0
  3 23  4  0
  4 25  4  0
  4 28  1  0
  5  8  4  0
  5 17  4  0
  6  7  4  0
  6 16  4  0
  7 18  4  0
  8 27  4  0
  9 13  4  0
  9 23  4  0
 10 11  1  0
 11 14  2  0
 11 27  1  0
 12 19  1  0
 12 24  4  0
 13 24  4  0
 15 18  1  0
 16 25  4  0
 16 26  4  0
 17 20  4  0
 17 28  1  0
 18 21  4  0
 21 26  4  0
 22 26  4  0
M  END
$$$$

 Created by Python create_sdf_string function

 28 30  0  0  0  0  0  0  0  0999 V2000
    5.7174   -8.4529   26.7190 C   0  0  0  0  0  0  0  0  0  0  0  0
    0.3974   -7.0711   27.5149 C   0  0  0  0  0  0  0  0  0  0  0  0
    2.5338   -7.6891   16.0102 C   0  0  0  0  0  0  0  0  0  0  0  0
    4.8690   -7.4380   26.4151 C   0  0  0  0  0  0  0  0  0  0  0  0
    2.3021   -5.6726   26.0378 C   0  0  0  0  0  0  0  0  0  0  0  0
    7.0880   -4.6163   27.0010 C   0  0  0  0  0  0  0  0  0  0  0  0
    8.3117   -4.3698   27.4436 C   0  0  0  0  0  0  0  0  0  0  0  0
    1.1339   -5.0515   26.3541 C   0  0  0  0  0  0  0  0  0  0  0  0
    4.8080   -8.0362   16.7101 C   0  0  0  0  0  0  0  0  0  0  0  0
   -1.2173   -3.9294   26.9717 O   0  0  0  0  0  0  0  0  0  0  0  0
   -1.0025   -5.0942   27.4586 C   0  0  0  0  0  0  0  0  0  0  0  0
    2.2474   -8.9123   16.6273 C   0  0  0  0  0  0  0  0  0  0  0  0
    4.4957   -9.2636   17.3041 C   0  0  0  0  0  0  0  0  0  0  0  0
   -1.8070   -5.6086   28.1920 O   0  0  0  0  0  0  0  0  0  0  0  0
   10.4296   -5.1799   28.3140 C   0  0  0  0  0  0  0  0  0  0  0  0
    6.6017   -5.9004   26.9187 C   0  0  0  0  0  0  0  0  0  0  0  0
    2.4761   -6.9940   26.4111 N   0  0  0  0  0  0  0  0  0  0  0  0
    9.1353   -5.4053   27.8239 C   0  0  0  0  0  0  0  0  0  0  0  0
    0.9922   -9.3232   16.5995 O   0  0  0  0  0  0  0  0  0  0  0  0
    1.5232   -7.6869   27.1182 C   0  0  0  0  0  0  0  0  0  0  0  0
    8.6878   -6.6715   27.7262 N   0  0  0  0  0  0  0  0  0  0  0  0
    6.9911   -8.2423   27.1808 C   0  0  0  0  0  0  0  0  0  0  0  0
    3.8436   -7.2758   16.0578 C   0  0  0  0  0  0  0  0  0  0  0  0
    3.1882   -9.7190   17.2566 C   0  0  0  0  0  0  0  0  0  0  0  0
    5.3488   -6.1737   26.5092 C   0  0  0  0  0  0  0  0  0  0  0  0
    7.4567   -6.9464   27.2858 C   0  0  0  0  0  0  0  0  0  0  0  0
    0.1921   -5.7592   27.1123 C   0  0  0  0  0  0  0  0  0  0  0  0
    3.5517   -7.7407   25.9711 C   0  0  0  0  0  0  0  0  0  0  0  0
  1  4  4  0
  1 22  4  0
  2 20  4  0
  2 27  4  0
  3 12  4  0
  3 23  4  0
  4 25  4  0
  4 28  1  0
  5  8  4  0
  5 17  4  0
  6  7  4  0
  6 16  4  0
  7 18  4  0
  8 27  4  0
  9 13  4  0
  9 23  4  0
 10 11  1  0
 11 14  2  0
 11 27  1  0
 12 19  1  0
 12 24  4  0
 13 24  4  0
 15 18  1  0
 16 25  4  0
 16 26  4  0
 17 20  4  0
 17 28  1  0
 18 21  4  0
 21 26  4  0
 22 26  4  0
M  END
$$$$

 Created by Python create_sdf_string function

 28 30  0  0  0  0  0  0  0  0999 V2000
    5.7174   -8.4529   26.7190 C   0  0  0  0  0  0  0  0  0  0  0  0
    0.3974   -7.0711   27.5149 C   0  0  0  0  0  0  0  0  0  0  0  0
    2.5338   -7.6891   16.0102 C   0  0  0  0  0  0  0  0  0  0  0  0
    4.8690   -7.4380   26.4151 C   0  0  0  0  0  0  0  0  0  0  0  0
    2.3021   -5.6726   26.0378 C   0  0  0  0  0  0  0  0  0  0  0  0
    7.0880   -4.6163   27.0010 C   0  0  0  0  0  0  0  0  0  0  0  0
    8.3117   -4.3698   27.4436 C   0  0  0  0  0  0  0  0  0  0  0  0
    1.1339   -5.0515   26.3541 C   0  0  0  0  0  0  0  0  0  0  0  0
    4.8080   -8.0362   16.7101 C   0  0  0  0  0  0  0  0  0  0  0  0
   -1.2173   -3.9294   26.9717 O   0  0  0  0  0  0  0  0  0  0  0  0
   -1.0025   -5.0942   27.4586 C   0  0  0  0  0  0  0  0  0  0  0  0
    2.2474   -8.9123   16.6273 C   0  0  0  0  0  0  0  0  0  0  0  0
    4.4957   -9.2636   17.3041 C   0  0  0  0  0  0  0  0  0  0  0  0
   -1.8070   -5.6086   28.1920 O   0  0  0  0  0  0  0  0  0  0  0  0
   10.4296   -5.1799   28.3140 C   0  0  0  0  0  0  0  0  0  0  0  0
    6.6017   -5.9004   26.9187 C   0  0  0  0  0  0  0  0  0  0  0  0
    2.4761   -6.9940   26.4111 N   0  0  0  0  0  0  0  0  0  0  0  0
    9.1353   -5.4053   27.8239 C   0  0  0  0  0  0  0  0  0  0  0  0
    0.9922   -9.3232   16.5995 O   0  0  0  0  0  0  0  0  0  0  0  0
    1.5232   -7.6869   27.1182 C   0  0  0  0  0  0  0  0  0  0  0  0
    8.6878   -6.6715   27.7262 N   0  0  0  0  0  0  0  0  0  0  0  0
    6.9911   -8.2423   27.1808 C   0  0  0  0  0  0  0  0  0  0  0  0
    3.8436   -7.2758   16.0578 C   0  0  0  0  0  0  0  0  0  0  0  0
    3.1882   -9.7190   17.2566 C   0  0  0  0  0  0  0  0  0  0  0  0
    5.3488   -6.1737   26.5092 C   0  0  0  0  0  0  0  0  0  0  0  0
    7.4567   -6.9464   27.2858 C   0  0  0  0  0  0  0  0  0  0  0  0
    0.1921   -5.7592   27.1123 C   0  0  0  0  0  0  0  0  0  0  0  0
    3.5517   -7.7407   25.9711 C   0  0  0  0  0  0  0  0  0  0  0  0
  1  4  4  0
  1 22  4  0
  2 20  4  0
  2 27  4  0
  3 12  4  0
  3 23  4  0
  4 25  4  0
  4 28  1  0
  5  8  4  0
  5 17  4  0
  6  7  4  0
  6 16  4  0
  7 18  4  0
  8 27  4  0
  9 13  4  0
  9 23  4  0
 10 11  1  0
 11 14  2  0
 11 27  1  0
 12 19  1  0
 12 24  4  0
 13 24  4  0
 15 18  1  0
 16 25  4  0
 16 26  4  0
 17 20  4  0
 17 28  1  0
 18 21  4  0
 21 26  4  0
 22 26  4  0
M  END
$$$$

 Created by Python create_sdf_string function

 28 30  0  0  0  0  0  0  0  0999 V2000
    5.7174   -8.4529   26.7190 C   0  0  0  0  0  0  0  0  0  0  0  0
    0.3974   -7.0711   27.5149 C   0  0  0  0  0  0  0  0  0  0  0  0
    2.5338   -7.6891   16.0102 C   0  0  0  0  0  0  0  0  0  0  0  0
    4.8690   -7.4380   26.4151 C   0  0  0  0  0  0  0  0  0  0  0  0
    2.3021   -5.6726   26.0378 C   0  0  0  0  0  0  0  0  0  0  0  0
    7.0880   -4.6163   27.0010 C   0  0  0  0  0  0  0  0  0  0  0  0
    8.3117   -4.3698   27.4436 C   0  0  0  0  0  0  0  0  0  0  0  0
    1.1339   -5.0515   26.3541 C   0  0  0  0  0  0  0  0  0  0  0  0
    4.8080   -8.0362   16.7101 C   0  0  0  0  0  0  0  0  0  0  0  0
   -1.2173   -3.9294   26.9717 O   0  0  0  0  0  0  0  0  0  0  0  0
   -1.0025   -5.0942   27.4586 C   0  0  0  0  0  0  0  0  0  0  0  0
    2.2474   -8.9123   16.6273 C   0  0  0  0  0  0  0  0  0  0  0  0
    4.4957   -9.2636   17.3041 C   0  0  0  0  0  0  0  0  0  0  0  0
   -1.8070   -5.6086   28.1920 O   0  0  0  0  0  0  0  0  0  0  0  0
   10.4296   -5.1799   28.3140 C   0  0  0  0  0  0  0  0  0  0  0  0
    6.6017   -5.9004   26.9187 C   0  0  0  0  0  0  0  0  0  0  0  0
    2.4761   -6.9940   26.4111 N   0  0  0  0  0  0  0  0  0  0  0  0
    9.1353   -5.4053   27.8239 C   0  0  0  0  0  0  0  0  0  0  0  0
    0.9922   -9.3232   16.5995 O   0  0  0  0  0  0  0  0  0  0  0  0
    1.5232   -7.6869   27.1182 C   0  0  0  0  0  0  0  0  0  0  0  0
    8.6878   -6.6715   27.7262 N   0  0  0  0  0  0  0  0  0  0  0  0
    6.9911   -8.2423   27.1808 C   0  0  0  0  0  0  0  0  0  0  0  0
    3.8436   -7.2758   16.0578 C   0  0  0  0  0  0  0  0  0  0  0  0
    3.1882   -9.7190   17.2566 C   0  0  0  0  0  0  0  0  0  0  0  0
    5.3488   -6.1737   26.5092 C   0  0  0  0  0  0  0  0  0  0  0  0
    7.4567   -6.9464   27.2858 C   0  0  0  0  0  0  0  0  0  0  0  0
    0.1921   -5.7592   27.1123 C   0  0  0  0  0  0  0  0  0  0  0  0
    3.5517   -7.7407   25.9711 C   0  0  0  0  0  0  0  0  0  0  0  0
  1  4  4  0
  1 22  4  0
  2 20  4  0
  2 27  4  0
  3 12  4  0
  3 23  4  0
  4 25  4  0
  4 28  1  0
  5  8  4  0
  5 17  4  0
  6  7  4  0
  6 16  4  0
  7 18  4  0
  8 27  4  0
  9 13  4  0
  9 23  4  0
 10 11  1  0
 11 14  2  0
 11 27  1  0
 12 19  1  0
 12 24  4  0
 13 24  4  0
 15 18  1  0
 16 25  4  0
 16 26  4  0
 17 20  4  0
 17 28  1  0
 18 21  4  0
 21 26  4  0
 22 26  4  0
M  END
$$$$

 Created by Python create_sdf_string function

 28 30  0  0  0  0  0  0  0  0999 V2000
    5.7174   -8.4529   26.7190 C   0  0  0  0  0  0  0  0  0  0  0  0
    0.3974   -7.0711   27.5149 C   0  0  0  0  0  0  0  0  0  0  0  0
    2.5338   -7.6891   16.0102 C   0  0  0  0  0  0  0  0  0  0  0  0
    4.8690   -7.4380   26.4151 C   0  0  0  0  0  0  0  0  0  0  0  0
    2.3021   -5.6726   26.0378 C   0  0  0  0  0  0  0  0  0  0  0  0
    7.0880   -4.6163   27.0010 C   0  0  0  0  0  0  0  0  0  0  0  0
    8.3117   -4.3698   27.4436 C   0  0  0  0  0  0  0  0  0  0  0  0
    1.1339   -5.0515   26.3541 C   0  0  0  0  0  0  0  0  0  0  0  0
    4.8080   -8.0362   16.7101 C   0  0  0  0  0  0  0  0  0  0  0  0
   -1.2173   -3.9294   26.9717 O   0  0  0  0  0  0  0  0  0  0  0  0
   -1.0025   -5.0942   27.4586 C   0  0  0  0  0  0  0  0  0  0  0  0
    2.2474   -8.9123   16.6273 C   0  0  0  0  0  0  0  0  0  0  0  0
    4.4957   -9.2636   17.3041 C   0  0  0  0  0  0  0  0  0  0  0  0
   -1.8070   -5.6086   28.1920 O   0  0  0  0  0  0  0  0  0  0  0  0
   10.4296   -5.1799   28.3140 C   0  0  0  0  0  0  0  0  0  0  0  0
    6.6017   -5.9004   26.9187 C   0  0  0  0  0  0  0  0  0  0  0  0
    2.4761   -6.9940   26.4111 N   0  0  0  0  0  0  0  0  0  0  0  0
    9.1353   -5.4053   27.8239 C   0  0  0  0  0  0  0  0  0  0  0  0
    0.9922   -9.3232   16.5995 O   0  0  0  0  0  0  0  0  0  0  0  0
    1.5232   -7.6869   27.1182 C   0  0  0  0  0  0  0  0  0  0  0  0
    8.6878   -6.6715   27.7262 N   0  0  0  0  0  0  0  0  0  0  0  0
    6.9911   -8.2423   27.1808 C   0  0  0  0  0  0  0  0  0  0  0  0
    3.8436   -7.2758   16.0578 C   0  0  0  0  0  0  0  0  0  0  0  0
    3.1882   -9.7190   17.2566 C   0  0  0  0  0  0  0  0  0  0  0  0
    5.3488   -6.1737   26.5092 C   0  0  0  0  0  0  0  0  0  0  0  0
    7.4567   -6.9464   27.2858 C   0  0  0  0  0  0  0  0  0  0  0  0
    0.1921   -5.7592   27.1123 C   0  0  0  0  0  0  0  0  0  0  0  0
    3.5517   -7.7407   25.9711 C   0  0  0  0  0  0  0  0  0  0  0  0
  1  4  4  0
  1 22  4  0
  2 20  4  0
  2 27  4  0
  3 12  4  0
  3 23  4  0
  4 25  4  0
  4 28  1  0
  5  8  4  0
  5 17  4  0
  6  7  4  0
  6 16  4  0
  7 18  4  0
  8 27  4  0
  9 13  4  0
  9 23  4  0
 10 11  1  0
 11 14  2  0
 11 27  1  0
 12 19  1  0
 12 24  4  0
 13 24  4  0
 15 18  1  0
 16 25  4  0
 16 26  4  0
 17 20  4  0
 17 28  1  0
 18 21  4  0
 21 26  4  0
 22 26  4  0
M  END
$$$$

 Created by Python create_sdf_string function

 28 30  0  0  0  0  0  0  0  0999 V2000
    5.7174   -8.4529   26.7190 C   0  0  0  0  0  0  0  0  0  0  0  0
    0.3974   -7.0711   27.5149 C   0  0  0  0  0  0  0  0  0  0  0  0
    2.5338   -7.6891   16.0102 C   0  0  0  0  0  0  0  0  0  0  0  0
    4.8690   -7.4380   26.4151 C   0  0  0  0  0  0  0  0  0  0  0  0
    2.3021   -5.6726   26.0378 C   0  0  0  0  0  0  0  0  0  0  0  0
    7.0880   -4.6163   27.0010 C   0  0  0  0  0  0  0  0  0  0  0  0
    8.3117   -4.3698   27.4436 C   0  0  0  0  0  0  0  0  0  0  0  0
    1.1339   -5.0515   26.3541 C   0  0  0  0  0  0  0  0  0  0  0  0
    4.8080   -8.0362   16.7101 C   0  0  0  0  0  0  0  0  0  0  0  0
   -1.2173   -3.9294   26.9717 O   0  0  0  0  0  0  0  0  0  0  0  0
   -1.0025   -5.0942   27.4586 C   0  0  0  0  0  0  0  0  0  0  0  0
    2.2474   -8.9123   16.6273 C   0  0  0  0  0  0  0  0  0  0  0  0
    4.4957   -9.2636   17.3041 C   0  0  0  0  0  0  0  0  0  0  0  0
   -1.8070   -5.6086   28.1920 O   0  0  0  0  0  0  0  0  0  0  0  0
   10.4296   -5.1799   28.3140 C   0  0  0  0  0  0  0  0  0  0  0  0
    6.6017   -5.9004   26.9187 C   0  0  0  0  0  0  0  0  0  0  0  0
    2.4761   -6.9940   26.4111 N   0  0  0  0  0  0  0  0  0  0  0  0
    9.1353   -5.4053   27.8239 C   0  0  0  0  0  0  0  0  0  0  0  0
    0.9922   -9.3232   16.5995 O   0  0  0  0  0  0  0  0  0  0  0  0
    1.5232   -7.6869   27.1182 C   0  0  0  0  0  0  0  0  0  0  0  0
    8.6878   -6.6715   27.7262 N   0  0  0  0  0  0  0  0  0  0  0  0
    6.9911   -8.2423   27.1808 C   0  0  0  0  0  0  0  0  0  0  0  0
    3.8436   -7.2758   16.0578 C   0  0  0  0  0  0  0  0  0  0  0  0
    3.1882   -9.7190   17.2566 C   0  0  0  0  0  0  0  0  0  0  0  0
    5.3488   -6.1737   26.5092 C   0  0  0  0  0  0  0  0  0  0  0  0
    7.4567   -6.9464   27.2858 C   0  0  0  0  0  0  0  0  0  0  0  0
    0.1921   -5.7592   27.1123 C   0  0  0  0  0  0  0  0  0  0  0  0
    3.5517   -7.7407   25.9711 C   0  0  0  0  0  0  0  0  0  0  0  0
  1  4  4  0
  1 22  4  0
  2 20  4  0
  2 27  4  0
  3 12  4  0
  3 23  4  0
  4 25  4  0
  4 28  1  0
  5  8  4  0
  5 17  4  0
  6  7  4  0
  6 16  4  0
  7 18  4  0
  8 27  4  0
  9 13  4  0
  9 23  4  0
 10 11  1  0
 11 14  2  0
 11 27  1  0
 12 19  1  0
 12 24  4  0
 13 24  4  0
 15 18  1  0
 16 25  4  0
 16 26  4  0
 17 20  4  0
 17 28  1  0
 18 21  4  0
 21 26  4  0
 22 26  4  0
M  END
$$$$

 Created by Python create_sdf_string function

 28 30  0  0  0  0  0  0  0  0999 V2000
    5.7174   -8.4529   26.7190 C   0  0  0  0  0  0  0  0  0  0  0  0
    0.3974   -7.0711   27.5149 C   0  0  0  0  0  0  0  0  0  0  0  0
    2.5338   -7.6891   16.0102 C   0  0  0  0  0  0  0  0  0  0  0  0
    4.8690   -7.4380   26.4151 C   0  0  0  0  0  0  0  0  0  0  0  0
    2.3021   -5.6726   26.0378 C   0  0  0  0  0  0  0  0  0  0  0  0
    7.0880   -4.6163   27.0010 C   0  0  0  0  0  0  0  0  0  0  0  0
    8.3117   -4.3698   27.4436 C   0  0  0  0  0  0  0  0  0  0  0  0
    1.1339   -5.0515   26.3541 C   0  0  0  0  0  0  0  0  0  0  0  0
    4.8080   -8.0362   16.7101 C   0  0  0  0  0  0  0  0  0  0  0  0
   -1.2173   -3.9294   26.9717 O   0  0  0  0  0  0  0  0  0  0  0  0
   -1.0025   -5.0942   27.4586 C   0  0  0  0  0  0  0  0  0  0  0  0
    2.2474   -8.9123   16.6273 C   0  0  0  0  0  0  0  0  0  0  0  0
    4.4957   -9.2636   17.3041 C   0  0  0  0  0  0  0  0  0  0  0  0
   -1.8070   -5.6086   28.1920 O   0  0  0  0  0  0  0  0  0  0  0  0
   10.4296   -5.1799   28.3140 C   0  0  0  0  0  0  0  0  0  0  0  0
    6.6017   -5.9004   26.9187 C   0  0  0  0  0  0  0  0  0  0  0  0
    2.4761   -6.9940   26.4111 N   0  0  0  0  0  0  0  0  0  0  0  0
    9.1353   -5.4053   27.8239 C   0  0  0  0  0  0  0  0  0  0  0  0
    0.9922   -9.3232   16.5995 O   0  0  0  0  0  0  0  0  0  0  0  0
    1.5232   -7.6869   27.1182 C   0  0  0  0  0  0  0  0  0  0  0  0
    8.6878   -6.6715   27.7262 N   0  0  0  0  0  0  0  0  0  0  0  0
    6.9911   -8.2423   27.1808 C   0  0  0  0  0  0  0  0  0  0  0  0
    3.8436   -7.2758   16.0578 C   0  0  0  0  0  0  0  0  0  0  0  0
    3.1882   -9.7190   17.2566 C   0  0  0  0  0  0  0  0  0  0  0  0
    5.3488   -6.1737   26.5092 C   0  0  0  0  0  0  0  0  0  0  0  0
    7.4567   -6.9464   27.2858 C   0  0  0  0  0  0  0  0  0  0  0  0
    0.1921   -5.7592   27.1123 C   0  0  0  0  0  0  0  0  0  0  0  0
    3.5517   -7.7407   25.9711 C   0  0  0  0  0  0  0  0  0  0  0  0
  1  4  4  0
  1 22  4  0
  2 20  4  0
  2 27  4  0
  3 12  4  0
  3 23  4  0
  4 25  4  0
  4 28  1  0
  5  8  4  0
  5 17  4  0
  6  7  4  0
  6 16  4  0
  7 18  4  0
  8 27  4  0
  9 13  4  0
  9 23  4  0
 10 11  1  0
 11 14  2  0
 11 27  1  0
 12 19  1  0
 12 24  4  0
 13 24  4  0
 15 18  1  0
 16 25  4  0
 16 26  4  0
 17 20  4  0
 17 28  1  0
 18 21  4  0
 21 26  4  0
 22 26  4  0
M  END
$$$$

 Created by Python create_sdf_string function

 28 30  0  0  0  0  0  0  0  0999 V2000
    5.7174   -8.4529   26.7190 C   0  0  0  0  0  0  0  0  0  0  0  0
    0.3974   -7.0711   27.5149 C   0  0  0  0  0  0  0  0  0  0  0  0
    2.5338   -7.6891   16.0102 C   0  0  0  0  0  0  0  0  0  0  0  0
    4.8690   -7.4380   26.4151 C   0  0  0  0  0  0  0  0  0  0  0  0
    2.3021   -5.6726   26.0378 C   0  0  0  0  0  0  0  0  0  0  0  0
    7.0880   -4.6163   27.0010 C   0  0  0  0  0  0  0  0  0  0  0  0
    8.3117   -4.3698   27.4436 C   0  0  0  0  0  0  0  0  0  0  0  0
    1.1339   -5.0515   26.3541 C   0  0  0  0  0  0  0  0  0  0  0  0
    4.8080   -8.0362   16.7101 C   0  0  0  0  0  0  0  0  0  0  0  0
   -1.2173   -3.9294   26.9717 O   0  0  0  0  0  0  0  0  0  0  0  0
   -1.0025   -5.0942   27.4586 C   0  0  0  0  0  0  0  0  0  0  0  0
    2.2474   -8.9123   16.6273 C   0  0  0  0  0  0  0  0  0  0  0  0
    4.4957   -9.2636   17.3041 C   0  0  0  0  0  0  0  0  0  0  0  0
   -1.8070   -5.6086   28.1920 O   0  0  0  0  0  0  0  0  0  0  0  0
   10.4296   -5.1799   28.3140 C   0  0  0  0  0  0  0  0  0  0  0  0
    6.6017   -5.9004   26.9187 C   0  0  0  0  0  0  0  0  0  0  0  0
    2.4761   -6.9940   26.4111 N   0  0  0  0  0  0  0  0  0  0  0  0
    9.1353   -5.4053   27.8239 C   0  0  0  0  0  0  0  0  0  0  0  0
    0.9922   -9.3232   16.5995 O   0  0  0  0  0  0  0  0  0  0  0  0
    1.5232   -7.6869   27.1182 C   0  0  0  0  0  0  0  0  0  0  0  0
    8.6878   -6.6715   27.7262 N   0  0  0  0  0  0  0  0  0  0  0  0
    6.9911   -8.2423   27.1808 C   0  0  0  0  0  0  0  0  0  0  0  0
    3.8436   -7.2758   16.0578 C   0  0  0  0  0  0  0  0  0  0  0  0
    3.1882   -9.7190   17.2566 C   0  0  0  0  0  0  0  0  0  0  0  0
    5.3488   -6.1737   26.5092 C   0  0  0  0  0  0  0  0  0  0  0  0
    7.4567   -6.9464   27.2858 C   0  0  0  0  0  0  0  0  0  0  0  0
    0.1921   -5.7592   27.1123 C   0  0  0  0  0  0  0  0  0  0  0  0
    3.5517   -7.7407   25.9711 C   0  0  0  0  0  0  0  0  0  0  0  0
  1  4  4  0
  1 22  4  0
  2 20  4  0
  2 27  4  0
  3 12  4  0
  3 23  4  0
  4 25  4  0
  4 28  1  0
  5  8  4  0
  5 17  4  0
  6  7  4  0
  6 16  4  0
  7 18  4  0
  8 27  4  0
  9 13  4  0
  9 23  4  0
 10 11  1  0
 11 14  2  0
 11 27  1  0
 12 19  1  0
 12 24  4  0
 13 24  4  0
 15 18  1  0
 16 25  4  0
 16 26  4  0
 17 20  4  0
 17 28  1  0
 18 21  4  0
 21 26  4  0
 22 26  4  0
M  END
$$$$

 Created by Python create_sdf_string function

 28 30  0  0  0  0  0  0  0  0999 V2000
    5.7174   -8.4529   26.7190 C   0  0  0  0  0  0  0  0  0  0  0  0
    0.3974   -7.0711   27.5149 C   0  0  0  0  0  0  0  0  0  0  0  0
    2.5338   -7.6891   16.0102 C   0  0  0  0  0  0  0  0  0  0  0  0
    4.8690   -7.4380   26.4151 C   0  0  0  0  0  0  0  0  0  0  0  0
    2.3021   -5.6726   26.0378 C   0  0  0  0  0  0  0  0  0  0  0  0
    7.0880   -4.6163   27.0010 C   0  0  0  0  0  0  0  0  0  0  0  0
    8.3117   -4.3698   27.4436 C   0  0  0  0  0  0  0  0  0  0  0  0
    1.1339   -5.0515   26.3541 C   0  0  0  0  0  0  0  0  0  0  0  0
    4.8080   -8.0362   16.7101 C   0  0  0  0  0  0  0  0  0  0  0  0
   -1.2173   -3.9294   26.9717 O   0  0  0  0  0  0  0  0  0  0  0  0
   -1.0025   -5.0942   27.4586 C   0  0  0  0  0  0  0  0  0  0  0  0
    2.2474   -8.9123   16.6273 C   0  0  0  0  0  0  0  0  0  0  0  0
    4.4957   -9.2636   17.3041 C   0  0  0  0  0  0  0  0  0  0  0  0
   -1.8070   -5.6086   28.1920 O   0  0  0  0  0  0  0  0  0  0  0  0
   10.4296   -5.1799   28.3140 C   0  0  0  0  0  0  0  0  0  0  0  0
    6.6017   -5.9004   26.9187 C   0  0  0  0  0  0  0  0  0  0  0  0
    2.4761   -6.9940   26.4111 N   0  0  0  0  0  0  0  0  0  0  0  0
    9.1353   -5.4053   27.8239 C   0  0  0  0  0  0  0  0  0  0  0  0
    0.9922   -9.3232   16.5995 O   0  0  0  0  0  0  0  0  0  0  0  0
    1.5232   -7.6869   27.1182 C   0  0  0  0  0  0  0  0  0  0  0  0
    8.6878   -6.6715   27.7262 N   0  0  0  0  0  0  0  0  0  0  0  0
    6.9911   -8.2423   27.1808 C   0  0  0  0  0  0  0  0  0  0  0  0
    3.8436   -7.2758   16.0578 C   0  0  0  0  0  0  0  0  0  0  0  0
    3.1882   -9.7190   17.2566 C   0  0  0  0  0  0  0  0  0  0  0  0
    5.3488   -6.1737   26.5092 C   0  0  0  0  0  0  0  0  0  0  0  0
    7.4567   -6.9464   27.2858 C   0  0  0  0  0  0  0  0  0  0  0  0
    0.1921   -5.7592   27.1123 C   0  0  0  0  0  0  0  0  0  0  0  0
    3.5517   -7.7407   25.9711 C   0  0  0  0  0  0  0  0  0  0  0  0
  1  4  4  0
  1 22  4  0
  2 20  4  0
  2 27  4  0
  3 12  4  0
  3 23  4  0
  4 25  4  0
  4 28  1  0
  5  8  4  0
  5 17  4  0
  6  7  4  0
  6 16  4  0
  7 18  4  0
  8 27  4  0
  9 13  4  0
  9 23  4  0
 10 11  1  0
 11 14  2  0
 11 27  1  0
 12 19  1  0
 12 24  4  0
 13 24  4  0
 15 18  1  0
 16 25  4  0
 16 26  4  0
 17 20  4  0
 17 28  1  0
 18 21  4  0
 21 26  4  0
 22 26  4  0
M  END
$$$$

 Created by Python create_sdf_string function

 28 30  0  0  0  0  0  0  0  0999 V2000
    5.7174   -8.4529   26.7190 C   0  0  0  0  0  0  0  0  0  0  0  0
    0.3974   -7.0711   27.5149 C   0  0  0  0  0  0  0  0  0  0  0  0
    2.5338   -7.6891   16.0102 C   0  0  0  0  0  0  0  0  0  0  0  0
    4.8690   -7.4380   26.4151 C   0  0  0  0  0  0  0  0  0  0  0  0
    2.3021   -5.6726   26.0378 C   0  0  0  0  0  0  0  0  0  0  0  0
    7.0880   -4.6163   27.0010 C   0  0  0  0  0  0  0  0  0  0  0  0
    8.3117   -4.3698   27.4436 C   0  0  0  0  0  0  0  0  0  0  0  0
    1.1339   -5.0515   26.3541 C   0  0  0  0  0  0  0  0  0  0  0  0
    4.8080   -8.0362   16.7101 C   0  0  0  0  0  0  0  0  0  0  0  0
   -1.2173   -3.9294   26.9717 O   0  0  0  0  0  0  0  0  0  0  0  0
   -1.0025   -5.0942   27.4586 C   0  0  0  0  0  0  0  0  0  0  0  0
    2.2474   -8.9123   16.6273 C   0  0  0  0  0  0  0  0  0  0  0  0
    4.4957   -9.2636   17.3041 C   0  0  0  0  0  0  0  0  0  0  0  0
   -1.8070   -5.6086   28.1920 O   0  0  0  0  0  0  0  0  0  0  0  0
   10.4296   -5.1799   28.3140 C   0  0  0  0  0  0  0  0  0  0  0  0
    6.6017   -5.9004   26.9187 C   0  0  0  0  0  0  0  0  0  0  0  0
    2.4761   -6.9940   26.4111 N   0  0  0  0  0  0  0  0  0  0  0  0
    9.1353   -5.4053   27.8239 C   0  0  0  0  0  0  0  0  0  0  0  0
    0.9922   -9.3232   16.5995 O   0  0  0  0  0  0  0  0  0  0  0  0
    1.5232   -7.6869   27.1182 C   0  0  0  0  0  0  0  0  0  0  0  0
    8.6878   -6.6715   27.7262 N   0  0  0  0  0  0  0  0  0  0  0  0
    6.9911   -8.2423   27.1808 C   0  0  0  0  0  0  0  0  0  0  0  0
    3.8436   -7.2758   16.0578 C   0  0  0  0  0  0  0  0  0  0  0  0
    3.1882   -9.7190   17.2566 C   0  0  0  0  0  0  0  0  0  0  0  0
    5.3488   -6.1737   26.5092 C   0  0  0  0  0  0  0  0  0  0  0  0
    7.4567   -6.9464   27.2858 C   0  0  0  0  0  0  0  0  0  0  0  0
    0.1921   -5.7592   27.1123 C   0  0  0  0  0  0  0  0  0  0  0  0
    3.5517   -7.7407   25.9711 C   0  0  0  0  0  0  0  0  0  0  0  0
  1  4  4  0
  1 22  4  0
  2 20  4  0
  2 27  4  0
  3 12  4  0
  3 23  4  0
  4 25  4  0
  4 28  1  0
  5  8  4  0
  5 17  4  0
  6  7  4  0
  6 16  4  0
  7 18  4  0
  8 27  4  0
  9 13  4  0
  9 23  4  0
 10 11  1  0
 11 14  2  0
 11 27  1  0
 12 19  1  0
 12 24  4  0
 13 24  4  0
 15 18  1  0
 16 25  4  0
 16 26  4  0
 17 20  4  0
 17 28  1  0
 18 21  4  0
 21 26  4  0
 22 26  4  0
M  END
$$$$

 Created by Python create_sdf_string function

 28 30  0  0  0  0  0  0  0  0999 V2000
    5.7174   -8.4529   26.7190 C   0  0  0  0  0  0  0  0  0  0  0  0
    0.3974   -7.0711   27.5149 C   0  0  0  0  0  0  0  0  0  0  0  0
    2.5338   -7.6891   16.0102 C   0  0  0  0  0  0  0  0  0  0  0  0
    4.8690   -7.4380   26.4151 C   0  0  0  0  0  0  0  0  0  0  0  0
    2.3021   -5.6726   26.0378 C   0  0  0  0  0  0  0  0  0  0  0  0
    7.0880   -4.6163   27.0010 C   0  0  0  0  0  0  0  0  0  0  0  0
    8.3117   -4.3698   27.4436 C   0  0  0  0  0  0  0  0  0  0  0  0
    1.1339   -5.0515   26.3541 C   0  0  0  0  0  0  0  0  0  0  0  0
    4.8080   -8.0362   16.7101 C   0  0  0  0  0  0  0  0  0  0  0  0
   -1.2173   -3.9294   26.9717 O   0  0  0  0  0  0  0  0  0  0  0  0
   -1.0025   -5.0942   27.4586 C   0  0  0  0  0  0  0  0  0  0  0  0
    2.2474   -8.9123   16.6273 C   0  0  0  0  0  0  0  0  0  0  0  0
    4.4957   -9.2636   17.3041 C   0  0  0  0  0  0  0  0  0  0  0  0
   -1.8070   -5.6086   28.1920 O   0  0  0  0  0  0  0  0  0  0  0  0
   10.4296   -5.1799   28.3140 C   0  0  0  0  0  0  0  0  0  0  0  0
    6.6017   -5.9004   26.9187 C   0  0  0  0  0  0  0  0  0  0  0  0
    2.4761   -6.9940   26.4111 N   0  0  0  0  0  0  0  0  0  0  0  0
    9.1353   -5.4053   27.8239 C   0  0  0  0  0  0  0  0  0  0  0  0
    0.9922   -9.3232   16.5995 O   0  0  0  0  0  0  0  0  0  0  0  0
    1.5232   -7.6869   27.1182 C   0  0  0  0  0  0  0  0  0  0  0  0
    8.6878   -6.6715   27.7262 N   0  0  0  0  0  0  0  0  0  0  0  0
    6.9911   -8.2423   27.1808 C   0  0  0  0  0  0  0  0  0  0  0  0
    3.8436   -7.2758   16.0578 C   0  0  0  0  0  0  0  0  0  0  0  0
    3.1882   -9.7190   17.2566 C   0  0  0  0  0  0  0  0  0  0  0  0
    5.3488   -6.1737   26.5092 C   0  0  0  0  0  0  0  0  0  0  0  0
    7.4567   -6.9464   27.2858 C   0  0  0  0  0  0  0  0  0  0  0  0
    0.1921   -5.7592   27.1123 C   0  0  0  0  0  0  0  0  0  0  0  0
    3.5517   -7.7407   25.9711 C   0  0  0  0  0  0  0  0  0  0  0  0
  1  4  4  0
  1 22  4  0
  2 20  4  0
  2 27  4  0
  3 12  4  0
  3 23  4  0
  4 25  4  0
  4 28  1  0
  5  8  4  0
  5 17  4  0
  6  7  4  0
  6 16  4  0
  7 18  4  0
  8 27  4  0
  9 13  4  0
  9 23  4  0
 10 11  1  0
 11 14  2  0
 11 27  1  0
 12 19  1  0
 12 24  4  0
 13 24  4  0
 15 18  1  0
 16 25  4  0
 16 26  4  0
 17 20  4  0
 17 28  1  0
 18 21  4  0
 21 26  4  0
 22 26  4  0
M  END
$$$$

 Created by Python create_sdf_string function

 28 30  0  0  0  0  0  0  0  0999 V2000
    5.7174   -8.4529   26.7190 C   0  0  0  0  0  0  0  0  0  0  0  0
    0.3974   -7.0711   27.5149 C   0  0  0  0  0  0  0  0  0  0  0  0
    2.5338   -7.6891   16.0102 C   0  0  0  0  0  0  0  0  0  0  0  0
    4.8690   -7.4380   26.4151 C   0  0  0  0  0  0  0  0  0  0  0  0
    2.3021   -5.6726   26.0378 C   0  0  0  0  0  0  0  0  0  0  0  0
    7.0880   -4.6163   27.0010 C   0  0  0  0  0  0  0  0  0  0  0  0
    8.3117   -4.3698   27.4436 C   0  0  0  0  0  0  0  0  0  0  0  0
    1.1339   -5.0515   26.3541 C   0  0  0  0  0  0  0  0  0  0  0  0
    4.8080   -8.0362   16.7101 C   0  0  0  0  0  0  0  0  0  0  0  0
   -1.2173   -3.9294   26.9717 O   0  0  0  0  0  0  0  0  0  0  0  0
   -1.0025   -5.0942   27.4586 C   0  0  0  0  0  0  0  0  0  0  0  0
    2.2474   -8.9123   16.6273 C   0  0  0  0  0  0  0  0  0  0  0  0
    4.4957   -9.2636   17.3041 C   0  0  0  0  0  0  0  0  0  0  0  0
   -1.8070   -5.6086   28.1920 O   0  0  0  0  0  0  0  0  0  0  0  0
   10.4296   -5.1799   28.3140 C   0  0  0  0  0  0  0  0  0  0  0  0
    6.6017   -5.9004   26.9187 C   0  0  0  0  0  0  0  0  0  0  0  0
    2.4761   -6.9940   26.4111 N   0  0  0  0  0  0  0  0  0  0  0  0
    9.1353   -5.4053   27.8239 C   0  0  0  0  0  0  0  0  0  0  0  0
    0.9922   -9.3232   16.5995 O   0  0  0  0  0  0  0  0  0  0  0  0
    1.5232   -7.6869   27.1182 C   0  0  0  0  0  0  0  0  0  0  0  0
    8.6878   -6.6715   27.7262 N   0  0  0  0  0  0  0  0  0  0  0  0
    6.9911   -8.2423   27.1808 C   0  0  0  0  0  0  0  0  0  0  0  0
    3.8436   -7.2758   16.0578 C   0  0  0  0  0  0  0  0  0  0  0  0
    3.1882   -9.7190   17.2566 C   0  0  0  0  0  0  0  0  0  0  0  0
    5.3488   -6.1737   26.5092 C   0  0  0  0  0  0  0  0  0  0  0  0
    7.4567   -6.9464   27.2858 C   0  0  0  0  0  0  0  0  0  0  0  0
    0.1921   -5.7592   27.1123 C   0  0  0  0  0  0  0  0  0  0  0  0
    3.5517   -7.7407   25.9711 C   0  0  0  0  0  0  0  0  0  0  0  0
  1  4  4  0
  1 22  4  0
  2 20  4  0
  2 27  4  0
  3 12  4  0
  3 23  4  0
  4 25  4  0
  4 28  1  0
  5  8  4  0
  5 17  4  0
  6  7  4  0
  6 16  4  0
  7 18  4  0
  8 27  4  0
  9 13  4  0
  9 23  4  0
 10 11  1  0
 11 14  2  0
 11 27  1  0
 12 19  1  0
 12 24  4  0
 13 24  4  0
 15 18  1  0
 16 25  4  0
 16 26  4  0
 17 20  4  0
 17 28  1  0
 18 21  4  0
 21 26  4  0
 22 26  4  0
M  END
$$$$

 Created by Python create_sdf_string function

 28 30  0  0  0  0  0  0  0  0999 V2000
    5.7174   -8.4529   26.7190 C   0  0  0  0  0  0  0  0  0  0  0  0
    0.3974   -7.0711   27.5149 C   0  0  0  0  0  0  0  0  0  0  0  0
    2.5338   -7.6891   16.0102 C   0  0  0  0  0  0  0  0  0  0  0  0
    4.8690   -7.4380   26.4151 C   0  0  0  0  0  0  0  0  0  0  0  0
    2.3021   -5.6726   26.0378 C   0  0  0  0  0  0  0  0  0  0  0  0
    7.0880   -4.6163   27.0010 C   0  0  0  0  0  0  0  0  0  0  0  0
    8.3117   -4.3698   27.4436 C   0  0  0  0  0  0  0  0  0  0  0  0
    1.1339   -5.0515   26.3541 C   0  0  0  0  0  0  0  0  0  0  0  0
    4.8080   -8.0362   16.7101 C   0  0  0  0  0  0  0  0  0  0  0  0
   -1.2173   -3.9294   26.9717 O   0  0  0  0  0  0  0  0  0  0  0  0
   -1.0025   -5.0942   27.4586 C   0  0  0  0  0  0  0  0  0  0  0  0
    2.2474   -8.9123   16.6273 C   0  0  0  0  0  0  0  0  0  0  0  0
    4.4957   -9.2636   17.3041 C   0  0  0  0  0  0  0  0  0  0  0  0
   -1.8070   -5.6086   28.1920 O   0  0  0  0  0  0  0  0  0  0  0  0
   10.4296   -5.1799   28.3140 C   0  0  0  0  0  0  0  0  0  0  0  0
    6.6017   -5.9004   26.9187 C   0  0  0  0  0  0  0  0  0  0  0  0
    2.4761   -6.9940   26.4111 N   0  0  0  0  0  0  0  0  0  0  0  0
    9.1353   -5.4053   27.8239 C   0  0  0  0  0  0  0  0  0  0  0  0
    0.9922   -9.3232   16.5995 O   0  0  0  0  0  0  0  0  0  0  0  0
    1.5232   -7.6869   27.1182 C   0  0  0  0  0  0  0  0  0  0  0  0
    8.6878   -6.6715   27.7262 N   0  0  0  0  0  0  0  0  0  0  0  0
    6.9911   -8.2423   27.1808 C   0  0  0  0  0  0  0  0  0  0  0  0
    3.8436   -7.2758   16.0578 C   0  0  0  0  0  0  0  0  0  0  0  0
    3.1882   -9.7190   17.2566 C   0  0  0  0  0  0  0  0  0  0  0  0
    5.3488   -6.1737   26.5092 C   0  0  0  0  0  0  0  0  0  0  0  0
    7.4567   -6.9464   27.2858 C   0  0  0  0  0  0  0  0  0  0  0  0
    0.1921   -5.7592   27.1123 C   0  0  0  0  0  0  0  0  0  0  0  0
    3.5517   -7.7407   25.9711 C   0  0  0  0  0  0  0  0  0  0  0  0
  1  4  4  0
  1 22  4  0
  2 20  4  0
  2 27  4  0
  3 12  4  0
  3 23  4  0
  4 25  4  0
  4 28  1  0
  5  8  4  0
  5 17  4  0
  6  7  4  0
  6 16  4  0
  7 18  4  0
  8 27  4  0
  9 13  4  0
  9 23  4  0
 10 11  1  0
 11 14  2  0
 11 27  1  0
 12 19  1  0
 12 24  4  0
 13 24  4  0
 15 18  1  0
 16 25  4  0
 16 26  4  0
 17 20  4  0
 17 28  1  0
 18 21  4  0
 21 26  4  0
 22 26  4  0
M  END
$$$$

 Created by Python create_sdf_string function

 28 30  0  0  0  0  0  0  0  0999 V2000
    5.7174   -8.4529   26.7190 C   0  0  0  0  0  0  0  0  0  0  0  0
    0.3974   -7.0711   27.5149 C   0  0  0  0  0  0  0  0  0  0  0  0
    2.5338   -7.6891   16.0102 C   0  0  0  0  0  0  0  0  0  0  0  0
    4.8690   -7.4380   26.4151 C   0  0  0  0  0  0  0  0  0  0  0  0
    2.3021   -5.6726   26.0378 C   0  0  0  0  0  0  0  0  0  0  0  0
    7.0880   -4.6163   27.0010 C   0  0  0  0  0  0  0  0  0  0  0  0
    8.3117   -4.3698   27.4436 C   0  0  0  0  0  0  0  0  0  0  0  0
    1.1339   -5.0515   26.3541 C   0  0  0  0  0  0  0  0  0  0  0  0
    4.8080   -8.0362   16.7101 C   0  0  0  0  0  0  0  0  0  0  0  0
   -1.2173   -3.9294   26.9717 O   0  0  0  0  0  0  0  0  0  0  0  0
   -1.0025   -5.0942   27.4586 C   0  0  0  0  0  0  0  0  0  0  0  0
    2.2474   -8.9123   16.6273 C   0  0  0  0  0  0  0  0  0  0  0  0
    4.4957   -9.2636   17.3041 C   0  0  0  0  0  0  0  0  0  0  0  0
   -1.8070   -5.6086   28.1920 O   0  0  0  0  0  0  0  0  0  0  0  0
   10.4296   -5.1799   28.3140 C   0  0  0  0  0  0  0  0  0  0  0  0
    6.6017   -5.9004   26.9187 C   0  0  0  0  0  0  0  0  0  0  0  0
    2.4761   -6.9940   26.4111 N   0  0  0  0  0  0  0  0  0  0  0  0
    9.1353   -5.4053   27.8239 C   0  0  0  0  0  0  0  0  0  0  0  0
    0.9922   -9.3232   16.5995 O   0  0  0  0  0  0  0  0  0  0  0  0
    1.5232   -7.6869   27.1182 C   0  0  0  0  0  0  0  0  0  0  0  0
    8.6878   -6.6715   27.7262 N   0  0  0  0  0  0  0  0  0  0  0  0
    6.9911   -8.2423   27.1808 C   0  0  0  0  0  0  0  0  0  0  0  0
    3.8436   -7.2758   16.0578 C   0  0  0  0  0  0  0  0  0  0  0  0
    3.1882   -9.7190   17.2566 C   0  0  0  0  0  0  0  0  0  0  0  0
    5.3488   -6.1737   26.5092 C   0  0  0  0  0  0  0  0  0  0  0  0
    7.4567   -6.9464   27.2858 C   0  0  0  0  0  0  0  0  0  0  0  0
    0.1921   -5.7592   27.1123 C   0  0  0  0  0  0  0  0  0  0  0  0
    3.5517   -7.7407   25.9711 C   0  0  0  0  0  0  0  0  0  0  0  0
  1  4  4  0
  1 22  4  0
  2 20  4  0
  2 27  4  0
  3 12  4  0
  3 23  4  0
  4 25  4  0
  4 28  1  0
  5  8  4  0
  5 17  4  0
  6  7  4  0
  6 16  4  0
  7 18  4  0
  8 27  4  0
  9 13  4  0
  9 23  4  0
 10 11  1  0
 11 14  2  0
 11 27  1  0
 12 19  1  0
 12 24  4  0
 13 24  4  0
 15 18  1  0
 16 25  4  0
 16 26  4  0
 17 20  4  0
 17 28  1  0
 18 21  4  0
 21 26  4  0
 22 26  4  0
M  END
$$$$

 Created by Python create_sdf_string function

 28 30  0  0  0  0  0  0  0  0999 V2000
    5.7174   -8.4529   26.7190 C   0  0  0  0  0  0  0  0  0  0  0  0
    0.3974   -7.0711   27.5149 C   0  0  0  0  0  0  0  0  0  0  0  0
    2.5338   -7.6891   16.0102 C   0  0  0  0  0  0  0  0  0  0  0  0
    4.8690   -7.4380   26.4151 C   0  0  0  0  0  0  0  0  0  0  0  0
    2.3021   -5.6726   26.0378 C   0  0  0  0  0  0  0  0  0  0  0  0
    7.0880   -4.6163   27.0010 C   0  0  0  0  0  0  0  0  0  0  0  0
    8.3117   -4.3698   27.4436 C   0  0  0  0  0  0  0  0  0  0  0  0
    1.1339   -5.0515   26.3541 C   0  0  0  0  0  0  0  0  0  0  0  0
    4.8080   -8.0362   16.7101 C   0  0  0  0  0  0  0  0  0  0  0  0
   -1.2173   -3.9294   26.9717 O   0  0  0  0  0  0  0  0  0  0  0  0
   -1.0025   -5.0942   27.4586 C   0  0  0  0  0  0  0  0  0  0  0  0
    2.2474   -8.9123   16.6273 C   0  0  0  0  0  0  0  0  0  0  0  0
    4.4957   -9.2636   17.3041 C   0  0  0  0  0  0  0  0  0  0  0  0
   -1.8070   -5.6086   28.1920 O   0  0  0  0  0  0  0  0  0  0  0  0
   10.4296   -5.1799   28.3140 C   0  0  0  0  0  0  0  0  0  0  0  0
    6.6017   -5.9004   26.9187 C   0  0  0  0  0  0  0  0  0  0  0  0
    2.4761   -6.9940   26.4111 N   0  0  0  0  0  0  0  0  0  0  0  0
    9.1353   -5.4053   27.8239 C   0  0  0  0  0  0  0  0  0  0  0  0
    0.9922   -9.3232   16.5995 O   0  0  0  0  0  0  0  0  0  0  0  0
    1.5232   -7.6869   27.1182 C   0  0  0  0  0  0  0  0  0  0  0  0
    8.6878   -6.6715   27.7262 N   0  0  0  0  0  0  0  0  0  0  0  0
    6.9911   -8.2423   27.1808 C   0  0  0  0  0  0  0  0  0  0  0  0
    3.8436   -7.2758   16.0578 C   0  0  0  0  0  0  0  0  0  0  0  0
    3.1882   -9.7190   17.2566 C   0  0  0  0  0  0  0  0  0  0  0  0
    5.3488   -6.1737   26.5092 C   0  0  0  0  0  0  0  0  0  0  0  0
    7.4567   -6.9464   27.2858 C   0  0  0  0  0  0  0  0  0  0  0  0
    0.1921   -5.7592   27.1123 C   0  0  0  0  0  0  0  0  0  0  0  0
    3.5517   -7.7407   25.9711 C   0  0  0  0  0  0  0  0  0  0  0  0
  1  4  4  0
  1 22  4  0
  2 20  4  0
  2 27  4  0
  3 12  4  0
  3 23  4  0
  4 25  4  0
  4 28  1  0
  5  8  4  0
  5 17  4  0
  6  7  4  0
  6 16  4  0
  7 18  4  0
  8 27  4  0
  9 13  4  0
  9 23  4  0
 10 11  1  0
 11 14  2  0
 11 27  1  0
 12 19  1  0
 12 24  4  0
 13 24  4  0
 15 18  1  0
 16 25  4  0
 16 26  4  0
 17 20  4  0
 17 28  1  0
 18 21  4  0
 21 26  4  0
 22 26  4  0
M  END
$$$$

 Created by Python create_sdf_string function

 28 30  0  0  0  0  0  0  0  0999 V2000
    5.7174   -8.4529   26.7190 C   0  0  0  0  0  0  0  0  0  0  0  0
    0.3974   -7.0711   27.5149 C   0  0  0  0  0  0  0  0  0  0  0  0
    2.5338   -7.6891   16.0102 C   0  0  0  0  0  0  0  0  0  0  0  0
    4.8690   -7.4380   26.4151 C   0  0  0  0  0  0  0  0  0  0  0  0
    2.3021   -5.6726   26.0378 C   0  0  0  0  0  0  0  0  0  0  0  0
    7.0880   -4.6163   27.0010 C   0  0  0  0  0  0  0  0  0  0  0  0
    8.3117   -4.3698   27.4436 C   0  0  0  0  0  0  0  0  0  0  0  0
    1.1339   -5.0515   26.3541 C   0  0  0  0  0  0  0  0  0  0  0  0
    4.8080   -8.0362   16.7101 C   0  0  0  0  0  0  0  0  0  0  0  0
   -1.2173   -3.9294   26.9717 O   0  0  0  0  0  0  0  0  0  0  0  0
   -1.0025   -5.0942   27.4586 C   0  0  0  0  0  0  0  0  0  0  0  0
    2.2474   -8.9123   16.6273 C   0  0  0  0  0  0  0  0  0  0  0  0
    4.4957   -9.2636   17.3041 C   0  0  0  0  0  0  0  0  0  0  0  0
   -1.8070   -5.6086   28.1920 O   0  0  0  0  0  0  0  0  0  0  0  0
   10.4296   -5.1799   28.3140 C   0  0  0  0  0  0  0  0  0  0  0  0
    6.6017   -5.9004   26.9187 C   0  0  0  0  0  0  0  0  0  0  0  0
    2.4761   -6.9940   26.4111 N   0  0  0  0  0  0  0  0  0  0  0  0
    9.1353   -5.4053   27.8239 C   0  0  0  0  0  0  0  0  0  0  0  0
    0.9922   -9.3232   16.5995 O   0  0  0  0  0  0  0  0  0  0  0  0
    1.5232   -7.6869   27.1182 C   0  0  0  0  0  0  0  0  0  0  0  0
    8.6878   -6.6715   27.7262 N   0  0  0  0  0  0  0  0  0  0  0  0
    6.9911   -8.2423   27.1808 C   0  0  0  0  0  0  0  0  0  0  0  0
    3.8436   -7.2758   16.0578 C   0  0  0  0  0  0  0  0  0  0  0  0
    3.1882   -9.7190   17.2566 C   0  0  0  0  0  0  0  0  0  0  0  0
    5.3488   -6.1737   26.5092 C   0  0  0  0  0  0  0  0  0  0  0  0
    7.4567   -6.9464   27.2858 C   0  0  0  0  0  0  0  0  0  0  0  0
    0.1921   -5.7592   27.1123 C   0  0  0  0  0  0  0  0  0  0  0  0
    3.5517   -7.7407   25.9711 C   0  0  0  0  0  0  0  0  0  0  0  0
  1  4  4  0
  1 22  4  0
  2 20  4  0
  2 27  4  0
  3 12  4  0
  3 23  4  0
  4 25  4  0
  4 28  1  0
  5  8  4  0
  5 17  4  0
  6  7  4  0
  6 16  4  0
  7 18  4  0
  8 27  4  0
  9 13  4  0
  9 23  4  0
 10 11  1  0
 11 14  2  0
 11 27  1  0
 12 19  1  0
 12 24  4  0
 13 24  4  0
 15 18  1  0
 16 25  4  0
 16 26  4  0
 17 20  4  0
 17 28  1  0
 18 21  4  0
 21 26  4  0
 22 26  4  0
M  END
$$$$

 Created by Python create_sdf_string function

 28 30  0  0  0  0  0  0  0  0999 V2000
    5.7174   -8.4529   26.7190 C   0  0  0  0  0  0  0  0  0  0  0  0
    0.3974   -7.0711   27.5149 C   0  0  0  0  0  0  0  0  0  0  0  0
    2.5338   -7.6891   16.0102 C   0  0  0  0  0  0  0  0  0  0  0  0
    4.8690   -7.4380   26.4151 C   0  0  0  0  0  0  0  0  0  0  0  0
    2.3021   -5.6726   26.0378 C   0  0  0  0  0  0  0  0  0  0  0  0
    7.0880   -4.6163   27.0010 C   0  0  0  0  0  0  0  0  0  0  0  0
    8.3117   -4.3698   27.4436 C   0  0  0  0  0  0  0  0  0  0  0  0
    1.1339   -5.0515   26.3541 C   0  0  0  0  0  0  0  0  0  0  0  0
    4.8080   -8.0362   16.7101 C   0  0  0  0  0  0  0  0  0  0  0  0
   -1.2173   -3.9294   26.9717 O   0  0  0  0  0  0  0  0  0  0  0  0
   -1.0025   -5.0942   27.4586 C   0  0  0  0  0  0  0  0  0  0  0  0
    2.2474   -8.9123   16.6273 C   0  0  0  0  0  0  0  0  0  0  0  0
    4.4957   -9.2636   17.3041 C   0  0  0  0  0  0  0  0  0  0  0  0
   -1.8070   -5.6086   28.1920 O   0  0  0  0  0  0  0  0  0  0  0  0
   10.4296   -5.1799   28.3140 C   0  0  0  0  0  0  0  0  0  0  0  0
    6.6017   -5.9004   26.9187 C   0  0  0  0  0  0  0  0  0  0  0  0
    2.4761   -6.9940   26.4111 N   0  0  0  0  0  0  0  0  0  0  0  0
    9.1353   -5.4053   27.8239 C   0  0  0  0  0  0  0  0  0  0  0  0
    0.9922   -9.3232   16.5995 O   0  0  0  0  0  0  0  0  0  0  0  0
    1.5232   -7.6869   27.1182 C   0  0  0  0  0  0  0  0  0  0  0  0
    8.6878   -6.6715   27.7262 N   0  0  0  0  0  0  0  0  0  0  0  0
    6.9911   -8.2423   27.1808 C   0  0  0  0  0  0  0  0  0  0  0  0
    3.8436   -7.2758   16.0578 C   0  0  0  0  0  0  0  0  0  0  0  0
    3.1882   -9.7190   17.2566 C   0  0  0  0  0  0  0  0  0  0  0  0
    5.3488   -6.1737   26.5092 C   0  0  0  0  0  0  0  0  0  0  0  0
    7.4567   -6.9464   27.2858 C   0  0  0  0  0  0  0  0  0  0  0  0
    0.1921   -5.7592   27.1123 C   0  0  0  0  0  0  0  0  0  0  0  0
    3.5517   -7.7407   25.9711 C   0  0  0  0  0  0  0  0  0  0  0  0
  1  4  4  0
  1 22  4  0
  2 20  4  0
  2 27  4  0
  3 12  4  0
  3 23  4  0
  4 25  4  0
  4 28  1  0
  5  8  4  0
  5 17  4  0
  6  7  4  0
  6 16  4  0
  7 18  4  0
  8 27  4  0
  9 13  4  0
  9 23  4  0
 10 11  1  0
 11 14  2  0
 11 27  1  0
 12 19  1  0
 12 24  4  0
 13 24  4  0
 15 18  1  0
 16 25  4  0
 16 26  4  0
 17 20  4  0
 17 28  1  0
 18 21  4  0
 21 26  4  0
 22 26  4  0
M  END
$$$$

 Created by Python create_sdf_string function

 28 30  0  0  0  0  0  0  0  0999 V2000
    5.7174   -8.4529   26.7190 C   0  0  0  0  0  0  0  0  0  0  0  0
    0.3974   -7.0711   27.5149 C   0  0  0  0  0  0  0  0  0  0  0  0
    2.5338   -7.6891   16.0102 C   0  0  0  0  0  0  0  0  0  0  0  0
    4.8690   -7.4380   26.4151 C   0  0  0  0  0  0  0  0  0  0  0  0
    2.3021   -5.6726   26.0378 C   0  0  0  0  0  0  0  0  0  0  0  0
    7.0880   -4.6163   27.0010 C   0  0  0  0  0  0  0  0  0  0  0  0
    8.3117   -4.3698   27.4436 C   0  0  0  0  0  0  0  0  0  0  0  0
    1.1339   -5.0515   26.3541 C   0  0  0  0  0  0  0  0  0  0  0  0
    4.8080   -8.0362   16.7101 C   0  0  0  0  0  0  0  0  0  0  0  0
   -1.2173   -3.9294   26.9717 O   0  0  0  0  0  0  0  0  0  0  0  0
   -1.0025   -5.0942   27.4586 C   0  0  0  0  0  0  0  0  0  0  0  0
    2.2474   -8.9123   16.6273 C   0  0  0  0  0  0  0  0  0  0  0  0
    4.4957   -9.2636   17.3041 C   0  0  0  0  0  0  0  0  0  0  0  0
   -1.8070   -5.6086   28.1920 O   0  0  0  0  0  0  0  0  0  0  0  0
   10.4296   -5.1799   28.3140 C   0  0  0  0  0  0  0  0  0  0  0  0
    6.6017   -5.9004   26.9187 C   0  0  0  0  0  0  0  0  0  0  0  0
    2.4761   -6.9940   26.4111 N   0  0  0  0  0  0  0  0  0  0  0  0
    9.1353   -5.4053   27.8239 C   0  0  0  0  0  0  0  0  0  0  0  0
    0.9922   -9.3232   16.5995 O   0  0  0  0  0  0  0  0  0  0  0  0
    1.5232   -7.6869   27.1182 C   0  0  0  0  0  0  0  0  0  0  0  0
    8.6878   -6.6715   27.7262 N   0  0  0  0  0  0  0  0  0  0  0  0
    6.9911   -8.2423   27.1808 C   0  0  0  0  0  0  0  0  0  0  0  0
    3.8436   -7.2758   16.0578 C   0  0  0  0  0  0  0  0  0  0  0  0
    3.1882   -9.7190   17.2566 C   0  0  0  0  0  0  0  0  0  0  0  0
    5.3488   -6.1737   26.5092 C   0  0  0  0  0  0  0  0  0  0  0  0
    7.4567   -6.9464   27.2858 C   0  0  0  0  0  0  0  0  0  0  0  0
    0.1921   -5.7592   27.1123 C   0  0  0  0  0  0  0  0  0  0  0  0
    3.5517   -7.7407   25.9711 C   0  0  0  0  0  0  0  0  0  0  0  0
  1  4  4  0
  1 22  4  0
  2 20  4  0
  2 27  4  0
  3 12  4  0
  3 23  4  0
  4 25  4  0
  4 28  1  0
  5  8  4  0
  5 17  4  0
  6  7  4  0
  6 16  4  0
  7 18  4  0
  8 27  4  0
  9 13  4  0
  9 23  4  0
 10 11  1  0
 11 14  2  0
 11 27  1  0
 12 19  1  0
 12 24  4  0
 13 24  4  0
 15 18  1  0
 16 25  4  0
 16 26  4  0
 17 20  4  0
 17 28  1  0
 18 21  4  0
 21 26  4  0
 22 26  4  0
M  END
$$$$

 Created by Python create_sdf_string function

 28 30  0  0  0  0  0  0  0  0999 V2000
    5.7174   -8.4529   26.7190 C   0  0  0  0  0  0  0  0  0  0  0  0
    0.3974   -7.0711   27.5149 C   0  0  0  0  0  0  0  0  0  0  0  0
    2.5338   -7.6891   16.0102 C   0  0  0  0  0  0  0  0  0  0  0  0
    4.8690   -7.4380   26.4151 C   0  0  0  0  0  0  0  0  0  0  0  0
    2.3021   -5.6726   26.0378 C   0  0  0  0  0  0  0  0  0  0  0  0
    7.0880   -4.6163   27.0010 C   0  0  0  0  0  0  0  0  0  0  0  0
    8.3117   -4.3698   27.4436 C   0  0  0  0  0  0  0  0  0  0  0  0
    1.1339   -5.0515   26.3541 C   0  0  0  0  0  0  0  0  0  0  0  0
    4.8080   -8.0362   16.7101 C   0  0  0  0  0  0  0  0  0  0  0  0
   -1.2173   -3.9294   26.9717 O   0  0  0  0  0  0  0  0  0  0  0  0
   -1.0025   -5.0942   27.4586 C   0  0  0  0  0  0  0  0  0  0  0  0
    2.2474   -8.9123   16.6273 C   0  0  0  0  0  0  0  0  0  0  0  0
    4.4957   -9.2636   17.3041 C   0  0  0  0  0  0  0  0  0  0  0  0
   -1.8070   -5.6086   28.1920 O   0  0  0  0  0  0  0  0  0  0  0  0
   10.4296   -5.1799   28.3140 C   0  0  0  0  0  0  0  0  0  0  0  0
    6.6017   -5.9004   26.9187 C   0  0  0  0  0  0  0  0  0  0  0  0
    2.4761   -6.9940   26.4111 N   0  0  0  0  0  0  0  0  0  0  0  0
    9.1353   -5.4053   27.8239 C   0  0  0  0  0  0  0  0  0  0  0  0
    0.9922   -9.3232   16.5995 O   0  0  0  0  0  0  0  0  0  0  0  0
    1.5232   -7.6869   27.1182 C   0  0  0  0  0  0  0  0  0  0  0  0
    8.6878   -6.6715   27.7262 N   0  0  0  0  0  0  0  0  0  0  0  0
    6.9911   -8.2423   27.1808 C   0  0  0  0  0  0  0  0  0  0  0  0
    3.8436   -7.2758   16.0578 C   0  0  0  0  0  0  0  0  0  0  0  0
    3.1882   -9.7190   17.2566 C   0  0  0  0  0  0  0  0  0  0  0  0
    5.3488   -6.1737   26.5092 C   0  0  0  0  0  0  0  0  0  0  0  0
    7.4567   -6.9464   27.2858 C   0  0  0  0  0  0  0  0  0  0  0  0
    0.1921   -5.7592   27.1123 C   0  0  0  0  0  0  0  0  0  0  0  0
    3.5517   -7.7407   25.9711 C   0  0  0  0  0  0  0  0  0  0  0  0
  1  4  4  0
  1 22  4  0
  2 20  4  0
  2 27  4  0
  3 12  4  0
  3 23  4  0
  4 25  4  0
  4 28  1  0
  5  8  4  0
  5 17  4  0
  6  7  4  0
  6 16  4  0
  7 18  4  0
  8 27  4  0
  9 13  4  0
  9 23  4  0
 10 11  1  0
 11 14  2  0
 11 27  1  0
 12 19  1  0
 12 24  4  0
 13 24  4  0
 15 18  1  0
 16 25  4  0
 16 26  4  0
 17 20  4  0
 17 28  1  0
 18 21  4  0
 21 26  4  0
 22 26  4  0
M  END
$$$$

 Created by Python create_sdf_string function

 28 30  0  0  0  0  0  0  0  0999 V2000
    5.7174   -8.4529   26.7190 C   0  0  0  0  0  0  0  0  0  0  0  0
    0.3974   -7.0711   27.5149 C   0  0  0  0  0  0  0  0  0  0  0  0
    2.5338   -7.6891   16.0102 C   0  0  0  0  0  0  0  0  0  0  0  0
    4.8690   -7.4380   26.4151 C   0  0  0  0  0  0  0  0  0  0  0  0
    2.3021   -5.6726   26.0378 C   0  0  0  0  0  0  0  0  0  0  0  0
    7.0880   -4.6163   27.0010 C   0  0  0  0  0  0  0  0  0  0  0  0
    8.3117   -4.3698   27.4436 C   0  0  0  0  0  0  0  0  0  0  0  0
    1.1339   -5.0515   26.3541 C   0  0  0  0  0  0  0  0  0  0  0  0
    4.8080   -8.0362   16.7101 C   0  0  0  0  0  0  0  0  0  0  0  0
   -1.2173   -3.9294   26.9717 O   0  0  0  0  0  0  0  0  0  0  0  0
   -1.0025   -5.0942   27.4586 C   0  0  0  0  0  0  0  0  0  0  0  0
    2.2474   -8.9123   16.6273 C   0  0  0  0  0  0  0  0  0  0  0  0
    4.4957   -9.2636   17.3041 C   0  0  0  0  0  0  0  0  0  0  0  0
   -1.8070   -5.6086   28.1920 O   0  0  0  0  0  0  0  0  0  0  0  0
   10.4296   -5.1799   28.3140 C   0  0  0  0  0  0  0  0  0  0  0  0
    6.6017   -5.9004   26.9187 C   0  0  0  0  0  0  0  0  0  0  0  0
    2.4761   -6.9940   26.4111 N   0  0  0  0  0  0  0  0  0  0  0  0
    9.1353   -5.4053   27.8239 C   0  0  0  0  0  0  0  0  0  0  0  0
    0.9922   -9.3232   16.5995 O   0  0  0  0  0  0  0  0  0  0  0  0
    1.5232   -7.6869   27.1182 C   0  0  0  0  0  0  0  0  0  0  0  0
    8.6878   -6.6715   27.7262 N   0  0  0  0  0  0  0  0  0  0  0  0
    6.9911   -8.2423   27.1808 C   0  0  0  0  0  0  0  0  0  0  0  0
    3.8436   -7.2758   16.0578 C   0  0  0  0  0  0  0  0  0  0  0  0
    3.1882   -9.7190   17.2566 C   0  0  0  0  0  0  0  0  0  0  0  0
    5.3488   -6.1737   26.5092 C   0  0  0  0  0  0  0  0  0  0  0  0
    7.4567   -6.9464   27.2858 C   0  0  0  0  0  0  0  0  0  0  0  0
    0.1921   -5.7592   27.1123 C   0  0  0  0  0  0  0  0  0  0  0  0
    3.5517   -7.7407   25.9711 C   0  0  0  0  0  0  0  0  0  0  0  0
  1  4  4  0
  1 22  4  0
  2 20  4  0
  2 27  4  0
  3 12  4  0
  3 23  4  0
  4 25  4  0
  4 28  1  0
  5  8  4  0
  5 17  4  0
  6  7  4  0
  6 16  4  0
  7 18  4  0
  8 27  4  0
  9 13  4  0
  9 23  4  0
 10 11  1  0
 11 14  2  0
 11 27  1  0
 12 19  1  0
 12 24  4  0
 13 24  4  0
 15 18  1  0
 16 25  4  0
 16 26  4  0
 17 20  4  0
 17 28  1  0
 18 21  4  0
 21 26  4  0
 22 26  4  0
M  END
$$$$

 Created by Python create_sdf_string function

 28 30  0  0  0  0  0  0  0  0999 V2000
    5.7174   -8.4529   26.7190 C   0  0  0  0  0  0  0  0  0  0  0  0
    0.3974   -7.0711   27.5149 C   0  0  0  0  0  0  0  0  0  0  0  0
    2.5338   -7.6891   16.0102 C   0  0  0  0  0  0  0  0  0  0  0  0
    4.8690   -7.4380   26.4151 C   0  0  0  0  0  0  0  0  0  0  0  0
    2.3021   -5.6726   26.0378 C   0  0  0  0  0  0  0  0  0  0  0  0
    7.0880   -4.6163   27.0010 C   0  0  0  0  0  0  0  0  0  0  0  0
    8.3117   -4.3698   27.4436 C   0  0  0  0  0  0  0  0  0  0  0  0
    1.1339   -5.0515   26.3541 C   0  0  0  0  0  0  0  0  0  0  0  0
    4.8080   -8.0362   16.7101 C   0  0  0  0  0  0  0  0  0  0  0  0
   -1.2173   -3.9294   26.9717 O   0  0  0  0  0  0  0  0  0  0  0  0
   -1.0025   -5.0942   27.4586 C   0  0  0  0  0  0  0  0  0  0  0  0
    2.2474   -8.9123   16.6273 C   0  0  0  0  0  0  0  0  0  0  0  0
    4.4957   -9.2636   17.3041 C   0  0  0  0  0  0  0  0  0  0  0  0
   -1.8070   -5.6086   28.1920 O   0  0  0  0  0  0  0  0  0  0  0  0
   10.4296   -5.1799   28.3140 C   0  0  0  0  0  0  0  0  0  0  0  0
    6.6017   -5.9004   26.9187 C   0  0  0  0  0  0  0  0  0  0  0  0
    2.4761   -6.9940   26.4111 N   0  0  0  0  0  0  0  0  0  0  0  0
    9.1353   -5.4053   27.8239 C   0  0  0  0  0  0  0  0  0  0  0  0
    0.9922   -9.3232   16.5995 O   0  0  0  0  0  0  0  0  0  0  0  0
    1.5232   -7.6869   27.1182 C   0  0  0  0  0  0  0  0  0  0  0  0
    8.6878   -6.6715   27.7262 N   0  0  0  0  0  0  0  0  0  0  0  0
    6.9911   -8.2423   27.1808 C   0  0  0  0  0  0  0  0  0  0  0  0
    3.8436   -7.2758   16.0578 C   0  0  0  0  0  0  0  0  0  0  0  0
    3.1882   -9.7190   17.2566 C   0  0  0  0  0  0  0  0  0  0  0  0
    5.3488   -6.1737   26.5092 C   0  0  0  0  0  0  0  0  0  0  0  0
    7.4567   -6.9464   27.2858 C   0  0  0  0  0  0  0  0  0  0  0  0
    0.1921   -5.7592   27.1123 C   0  0  0  0  0  0  0  0  0  0  0  0
    3.5517   -7.7407   25.9711 C   0  0  0  0  0  0  0  0  0  0  0  0
  1  4  4  0
  1 22  4  0
  2 20  4  0
  2 27  4  0
  3 12  4  0
  3 23  4  0
  4 25  4  0
  4 28  1  0
  5  8  4  0
  5 17  4  0
  6  7  4  0
  6 16  4  0
  7 18  4  0
  8 27  4  0
  9 13  4  0
  9 23  4  0
 10 11  1  0
 11 14  2  0
 11 27  1  0
 12 19  1  0
 12 24  4  0
 13 24  4  0
 15 18  1  0
 16 25  4  0
 16 26  4  0
 17 20  4  0
 17 28  1  0
 18 21  4  0
 21 26  4  0
 22 26  4  0
M  END
$$$$

 Created by Python create_sdf_string function

 28 30  0  0  0  0  0  0  0  0999 V2000
    5.7174   -8.4529   26.7190 C   0  0  0  0  0  0  0  0  0  0  0  0
    0.3974   -7.0711   27.5149 C   0  0  0  0  0  0  0  0  0  0  0  0
    2.5338   -7.6891   16.0102 C   0  0  0  0  0  0  0  0  0  0  0  0
    4.8690   -7.4380   26.4151 C   0  0  0  0  0  0  0  0  0  0  0  0
    2.3021   -5.6726   26.0378 C   0  0  0  0  0  0  0  0  0  0  0  0
    7.0880   -4.6163   27.0010 C   0  0  0  0  0  0  0  0  0  0  0  0
    8.3117   -4.3698   27.4436 C   0  0  0  0  0  0  0  0  0  0  0  0
    1.1339   -5.0515   26.3541 C   0  0  0  0  0  0  0  0  0  0  0  0
    4.8080   -8.0362   16.7101 C   0  0  0  0  0  0  0  0  0  0  0  0
   -1.2173   -3.9294   26.9717 O   0  0  0  0  0  0  0  0  0  0  0  0
   -1.0025   -5.0942   27.4586 C   0  0  0  0  0  0  0  0  0  0  0  0
    2.2474   -8.9123   16.6273 C   0  0  0  0  0  0  0  0  0  0  0  0
    4.4957   -9.2636   17.3041 C   0  0  0  0  0  0  0  0  0  0  0  0
   -1.8070   -5.6086   28.1920 O   0  0  0  0  0  0  0  0  0  0  0  0
   10.4296   -5.1799   28.3140 C   0  0  0  0  0  0  0  0  0  0  0  0
    6.6017   -5.9004   26.9187 C   0  0  0  0  0  0  0  0  0  0  0  0
    2.4761   -6.9940   26.4111 N   0  0  0  0  0  0  0  0  0  0  0  0
    9.1353   -5.4053   27.8239 C   0  0  0  0  0  0  0  0  0  0  0  0
    0.9922   -9.3232   16.5995 O   0  0  0  0  0  0  0  0  0  0  0  0
    1.5232   -7.6869   27.1182 C   0  0  0  0  0  0  0  0  0  0  0  0
    8.6878   -6.6715   27.7262 N   0  0  0  0  0  0  0  0  0  0  0  0
    6.9911   -8.2423   27.1808 C   0  0  0  0  0  0  0  0  0  0  0  0
    3.8436   -7.2758   16.0578 C   0  0  0  0  0  0  0  0  0  0  0  0
    3.1882   -9.7190   17.2566 C   0  0  0  0  0  0  0  0  0  0  0  0
    5.3488   -6.1737   26.5092 C   0  0  0  0  0  0  0  0  0  0  0  0
    7.4567   -6.9464   27.2858 C   0  0  0  0  0  0  0  0  0  0  0  0
    0.1921   -5.7592   27.1123 C   0  0  0  0  0  0  0  0  0  0  0  0
    3.5517   -7.7407   25.9711 C   0  0  0  0  0  0  0  0  0  0  0  0
  1  4  4  0
  1 22  4  0
  2 20  4  0
  2 27  4  0
  3 12  4  0
  3 23  4  0
  4 25  4  0
  4 28  1  0
  5  8  4  0
  5 17  4  0
  6  7  4  0
  6 16  4  0
  7 18  4  0
  8 27  4  0
  9 13  4  0
  9 23  4  0
 10 11  1  0
 11 14  2  0
 11 27  1  0
 12 19  1  0
 12 24  4  0
 13 24  4  0
 15 18  1  0
 16 25  4  0
 16 26  4  0
 17 20  4  0
 17 28  1  0
 18 21  4  0
 21 26  4  0
 22 26  4  0
M  END
$$$$

 Created by Python create_sdf_string function

 28 30  0  0  0  0  0  0  0  0999 V2000
    5.7174   -8.4529   26.7190 C   0  0  0  0  0  0  0  0  0  0  0  0
    0.3974   -7.0711   27.5149 C   0  0  0  0  0  0  0  0  0  0  0  0
    2.5338   -7.6891   16.0102 C   0  0  0  0  0  0  0  0  0  0  0  0
    4.8690   -7.4380   26.4151 C   0  0  0  0  0  0  0  0  0  0  0  0
    2.3021   -5.6726   26.0378 C   0  0  0  0  0  0  0  0  0  0  0  0
    7.0880   -4.6163   27.0010 C   0  0  0  0  0  0  0  0  0  0  0  0
    8.3117   -4.3698   27.4436 C   0  0  0  0  0  0  0  0  0  0  0  0
    1.1339   -5.0515   26.3541 C   0  0  0  0  0  0  0  0  0  0  0  0
    4.8080   -8.0362   16.7101 C   0  0  0  0  0  0  0  0  0  0  0  0
   -1.2173   -3.9294   26.9717 O   0  0  0  0  0  0  0  0  0  0  0  0
   -1.0025   -5.0942   27.4586 C   0  0  0  0  0  0  0  0  0  0  0  0
    2.2474   -8.9123   16.6273 C   0  0  0  0  0  0  0  0  0  0  0  0
    4.4957   -9.2636   17.3041 C   0  0  0  0  0  0  0  0  0  0  0  0
   -1.8070   -5.6086   28.1920 O   0  0  0  0  0  0  0  0  0  0  0  0
   10.4296   -5.1799   28.3140 C   0  0  0  0  0  0  0  0  0  0  0  0
    6.6017   -5.9004   26.9187 C   0  0  0  0  0  0  0  0  0  0  0  0
    2.4761   -6.9940   26.4111 N   0  0  0  0  0  0  0  0  0  0  0  0
    9.1353   -5.4053   27.8239 C   0  0  0  0  0  0  0  0  0  0  0  0
    0.9922   -9.3232   16.5995 O   0  0  0  0  0  0  0  0  0  0  0  0
    1.5232   -7.6869   27.1182 C   0  0  0  0  0  0  0  0  0  0  0  0
    8.6878   -6.6715   27.7262 N   0  0  0  0  0  0  0  0  0  0  0  0
    6.9911   -8.2423   27.1808 C   0  0  0  0  0  0  0  0  0  0  0  0
    3.8436   -7.2758   16.0578 C   0  0  0  0  0  0  0  0  0  0  0  0
    3.1882   -9.7190   17.2566 C   0  0  0  0  0  0  0  0  0  0  0  0
    5.3488   -6.1737   26.5092 C   0  0  0  0  0  0  0  0  0  0  0  0
    7.4567   -6.9464   27.2858 C   0  0  0  0  0  0  0  0  0  0  0  0
    0.1921   -5.7592   27.1123 C   0  0  0  0  0  0  0  0  0  0  0  0
    3.5517   -7.7407   25.9711 C   0  0  0  0  0  0  0  0  0  0  0  0
  1  4  4  0
  1 22  4  0
  2 20  4  0
  2 27  4  0
  3 12  4  0
  3 23  4  0
  4 25  4  0
  4 28  1  0
  5  8  4  0
  5 17  4  0
  6  7  4  0
  6 16  4  0
  7 18  4  0
  8 27  4  0
  9 13  4  0
  9 23  4  0
 10 11  1  0
 11 14  2  0
 11 27  1  0
 12 19  1  0
 12 24  4  0
 13 24  4  0
 15 18  1  0
 16 25  4  0
 16 26  4  0
 17 20  4  0
 17 28  1  0
 18 21  4  0
 21 26  4  0
 22 26  4  0
M  END
$$$$

 Created by Python create_sdf_string function

 28 30  0  0  0  0  0  0  0  0999 V2000
    5.7174   -8.4529   26.7190 C   0  0  0  0  0  0  0  0  0  0  0  0
    0.3974   -7.0711   27.5149 C   0  0  0  0  0  0  0  0  0  0  0  0
    2.5338   -7.6891   16.0102 C   0  0  0  0  0  0  0  0  0  0  0  0
    4.8690   -7.4380   26.4151 C   0  0  0  0  0  0  0  0  0  0  0  0
    2.3021   -5.6726   26.0378 C   0  0  0  0  0  0  0  0  0  0  0  0
    7.0880   -4.6163   27.0010 C   0  0  0  0  0  0  0  0  0  0  0  0
    8.3117   -4.3698   27.4436 C   0  0  0  0  0  0  0  0  0  0  0  0
    1.1339   -5.0515   26.3541 C   0  0  0  0  0  0  0  0  0  0  0  0
    4.8080   -8.0362   16.7101 C   0  0  0  0  0  0  0  0  0  0  0  0
   -1.2173   -3.9294   26.9717 O   0  0  0  0  0  0  0  0  0  0  0  0
   -1.0025   -5.0942   27.4586 C   0  0  0  0  0  0  0  0  0  0  0  0
    2.2474   -8.9123   16.6273 C   0  0  0  0  0  0  0  0  0  0  0  0
    4.4957   -9.2636   17.3041 C   0  0  0  0  0  0  0  0  0  0  0  0
   -1.8070   -5.6086   28.1920 O   0  0  0  0  0  0  0  0  0  0  0  0
   10.4296   -5.1799   28.3140 C   0  0  0  0  0  0  0  0  0  0  0  0
    6.6017   -5.9004   26.9187 C   0  0  0  0  0  0  0  0  0  0  0  0
    2.4761   -6.9940   26.4111 N   0  0  0  0  0  0  0  0  0  0  0  0
    9.1353   -5.4053   27.8239 C   0  0  0  0  0  0  0  0  0  0  0  0
    0.9922   -9.3232   16.5995 O   0  0  0  0  0  0  0  0  0  0  0  0
    1.5232   -7.6869   27.1182 C   0  0  0  0  0  0  0  0  0  0  0  0
    8.6878   -6.6715   27.7262 N   0  0  0  0  0  0  0  0  0  0  0  0
    6.9911   -8.2423   27.1808 C   0  0  0  0  0  0  0  0  0  0  0  0
    3.8436   -7.2758   16.0578 C   0  0  0  0  0  0  0  0  0  0  0  0
    3.1882   -9.7190   17.2566 C   0  0  0  0  0  0  0  0  0  0  0  0
    5.3488   -6.1737   26.5092 C   0  0  0  0  0  0  0  0  0  0  0  0
    7.4567   -6.9464   27.2858 C   0  0  0  0  0  0  0  0  0  0  0  0
    0.1921   -5.7592   27.1123 C   0  0  0  0  0  0  0  0  0  0  0  0
    3.5517   -7.7407   25.9711 C   0  0  0  0  0  0  0  0  0  0  0  0
  1  4  4  0
  1 22  4  0
  2 20  4  0
  2 27  4  0
  3 12  4  0
  3 23  4  0
  4 25  4  0
  4 28  1  0
  5  8  4  0
  5 17  4  0
  6  7  4  0
  6 16  4  0
  7 18  4  0
  8 27  4  0
  9 13  4  0
  9 23  4  0
 10 11  1  0
 11 14  2  0
 11 27  1  0
 12 19  1  0
 12 24  4  0
 13 24  4  0
 15 18  1  0
 16 25  4  0
 16 26  4  0
 17 20  4  0
 17 28  1  0
 18 21  4  0
 21 26  4  0
 22 26  4  0
M  END
$$$$

 Created by Python create_sdf_string function

 28 30  0  0  0  0  0  0  0  0999 V2000
    5.7174   -8.4529   26.7190 C   0  0  0  0  0  0  0  0  0  0  0  0
    0.3974   -7.0711   27.5149 C   0  0  0  0  0  0  0  0  0  0  0  0
    2.5338   -7.6891   16.0102 C   0  0  0  0  0  0  0  0  0  0  0  0
    4.8690   -7.4380   26.4151 C   0  0  0  0  0  0  0  0  0  0  0  0
    2.3021   -5.6726   26.0378 C   0  0  0  0  0  0  0  0  0  0  0  0
    7.0880   -4.6163   27.0010 C   0  0  0  0  0  0  0  0  0  0  0  0
    8.3117   -4.3698   27.4436 C   0  0  0  0  0  0  0  0  0  0  0  0
    1.1339   -5.0515   26.3541 C   0  0  0  0  0  0  0  0  0  0  0  0
    4.8080   -8.0362   16.7101 C   0  0  0  0  0  0  0  0  0  0  0  0
   -1.2173   -3.9294   26.9717 O   0  0  0  0  0  0  0  0  0  0  0  0
   -1.0025   -5.0942   27.4586 C   0  0  0  0  0  0  0  0  0  0  0  0
    2.2474   -8.9123   16.6273 C   0  0  0  0  0  0  0  0  0  0  0  0
    4.4957   -9.2636   17.3041 C   0  0  0  0  0  0  0  0  0  0  0  0
   -1.8070   -5.6086   28.1920 O   0  0  0  0  0  0  0  0  0  0  0  0
   10.4296   -5.1799   28.3140 C   0  0  0  0  0  0  0  0  0  0  0  0
    6.6017   -5.9004   26.9187 C   0  0  0  0  0  0  0  0  0  0  0  0
    2.4761   -6.9940   26.4111 N   0  0  0  0  0  0  0  0  0  0  0  0
    9.1353   -5.4053   27.8239 C   0  0  0  0  0  0  0  0  0  0  0  0
    0.9922   -9.3232   16.5995 O   0  0  0  0  0  0  0  0  0  0  0  0
    1.5232   -7.6869   27.1182 C   0  0  0  0  0  0  0  0  0  0  0  0
    8.6878   -6.6715   27.7262 N   0  0  0  0  0  0  0  0  0  0  0  0
    6.9911   -8.2423   27.1808 C   0  0  0  0  0  0  0  0  0  0  0  0
    3.8436   -7.2758   16.0578 C   0  0  0  0  0  0  0  0  0  0  0  0
    3.1882   -9.7190   17.2566 C   0  0  0  0  0  0  0  0  0  0  0  0
    5.3488   -6.1737   26.5092 C   0  0  0  0  0  0  0  0  0  0  0  0
    7.4567   -6.9464   27.2858 C   0  0  0  0  0  0  0  0  0  0  0  0
    0.1921   -5.7592   27.1123 C   0  0  0  0  0  0  0  0  0  0  0  0
    3.5517   -7.7407   25.9711 C   0  0  0  0  0  0  0  0  0  0  0  0
  1  4  4  0
  1 22  4  0
  2 20  4  0
  2 27  4  0
  3 12  4  0
  3 23  4  0
  4 25  4  0
  4 28  1  0
  5  8  4  0
  5 17  4  0
  6  7  4  0
  6 16  4  0
  7 18  4  0
  8 27  4  0
  9 13  4  0
  9 23  4  0
 10 11  1  0
 11 14  2  0
 11 27  1  0
 12 19  1  0
 12 24  4  0
 13 24  4  0
 15 18  1  0
 16 25  4  0
 16 26  4  0
 17 20  4  0
 17 28  1  0
 18 21  4  0
 21 26  4  0
 22 26  4  0
M  END
$$$$

 Created by Python create_sdf_string function

 28 30  0  0  0  0  0  0  0  0999 V2000
    5.7174   -8.4529   26.7190 C   0  0  0  0  0  0  0  0  0  0  0  0
    0.3974   -7.0711   27.5149 C   0  0  0  0  0  0  0  0  0  0  0  0
    2.5338   -7.6891   16.0102 C   0  0  0  0  0  0  0  0  0  0  0  0
    4.8690   -7.4380   26.4151 C   0  0  0  0  0  0  0  0  0  0  0  0
    2.3021   -5.6726   26.0378 C   0  0  0  0  0  0  0  0  0  0  0  0
    7.0880   -4.6163   27.0010 C   0  0  0  0  0  0  0  0  0  0  0  0
    8.3117   -4.3698   27.4436 C   0  0  0  0  0  0  0  0  0  0  0  0
    1.1339   -5.0515   26.3541 C   0  0  0  0  0  0  0  0  0  0  0  0
    4.8080   -8.0362   16.7101 C   0  0  0  0  0  0  0  0  0  0  0  0
   -1.2173   -3.9294   26.9717 O   0  0  0  0  0  0  0  0  0  0  0  0
   -1.0025   -5.0942   27.4586 C   0  0  0  0  0  0  0  0  0  0  0  0
    2.2474   -8.9123   16.6273 C   0  0  0  0  0  0  0  0  0  0  0  0
    4.4957   -9.2636   17.3041 C   0  0  0  0  0  0  0  0  0  0  0  0
   -1.8070   -5.6086   28.1920 O   0  0  0  0  0  0  0  0  0  0  0  0
   10.4296   -5.1799   28.3140 C   0  0  0  0  0  0  0  0  0  0  0  0
    6.6017   -5.9004   26.9187 C   0  0  0  0  0  0  0  0  0  0  0  0
    2.4761   -6.9940   26.4111 N   0  0  0  0  0  0  0  0  0  0  0  0
    9.1353   -5.4053   27.8239 C   0  0  0  0  0  0  0  0  0  0  0  0
    0.9922   -9.3232   16.5995 O   0  0  0  0  0  0  0  0  0  0  0  0
    1.5232   -7.6869   27.1182 C   0  0  0  0  0  0  0  0  0  0  0  0
    8.6878   -6.6715   27.7262 N   0  0  0  0  0  0  0  0  0  0  0  0
    6.9911   -8.2423   27.1808 C   0  0  0  0  0  0  0  0  0  0  0  0
    3.8436   -7.2758   16.0578 C   0  0  0  0  0  0  0  0  0  0  0  0
    3.1882   -9.7190   17.2566 C   0  0  0  0  0  0  0  0  0  0  0  0
    5.3488   -6.1737   26.5092 C   0  0  0  0  0  0  0  0  0  0  0  0
    7.4567   -6.9464   27.2858 C   0  0  0  0  0  0  0  0  0  0  0  0
    0.1921   -5.7592   27.1123 C   0  0  0  0  0  0  0  0  0  0  0  0
    3.5517   -7.7407   25.9711 C   0  0  0  0  0  0  0  0  0  0  0  0
  1  4  4  0
  1 22  4  0
  2 20  4  0
  2 27  4  0
  3 12  4  0
  3 23  4  0
  4 25  4  0
  4 28  1  0
  5  8  4  0
  5 17  4  0
  6  7  4  0
  6 16  4  0
  7 18  4  0
  8 27  4  0
  9 13  4  0
  9 23  4  0
 10 11  1  0
 11 14  2  0
 11 27  1  0
 12 19  1  0
 12 24  4  0
 13 24  4  0
 15 18  1  0
 16 25  4  0
 16 26  4  0
 17 20  4  0
 17 28  1  0
 18 21  4  0
 21 26  4  0
 22 26  4  0
M  END
$$$$

 Created by Python create_sdf_string function

 28 30  0  0  0  0  0  0  0  0999 V2000
    5.7174   -8.4529   26.7190 C   0  0  0  0  0  0  0  0  0  0  0  0
    0.3974   -7.0711   27.5149 C   0  0  0  0  0  0  0  0  0  0  0  0
    2.5338   -7.6891   16.0102 C   0  0  0  0  0  0  0  0  0  0  0  0
    4.8690   -7.4380   26.4151 C   0  0  0  0  0  0  0  0  0  0  0  0
    2.3021   -5.6726   26.0378 C   0  0  0  0  0  0  0  0  0  0  0  0
    7.0880   -4.6163   27.0010 C   0  0  0  0  0  0  0  0  0  0  0  0
    8.3117   -4.3698   27.4436 C   0  0  0  0  0  0  0  0  0  0  0  0
    1.1339   -5.0515   26.3541 C   0  0  0  0  0  0  0  0  0  0  0  0
    4.8080   -8.0362   16.7101 C   0  0  0  0  0  0  0  0  0  0  0  0
   -1.2173   -3.9294   26.9717 O   0  0  0  0  0  0  0  0  0  0  0  0
   -1.0025   -5.0942   27.4586 C   0  0  0  0  0  0  0  0  0  0  0  0
    2.2474   -8.9123   16.6273 C   0  0  0  0  0  0  0  0  0  0  0  0
    4.4957   -9.2636   17.3041 C   0  0  0  0  0  0  0  0  0  0  0  0
   -1.8070   -5.6086   28.1920 O   0  0  0  0  0  0  0  0  0  0  0  0
   10.4296   -5.1799   28.3140 C   0  0  0  0  0  0  0  0  0  0  0  0
    6.6017   -5.9004   26.9187 C   0  0  0  0  0  0  0  0  0  0  0  0
    2.4761   -6.9940   26.4111 N   0  0  0  0  0  0  0  0  0  0  0  0
    9.1353   -5.4053   27.8239 C   0  0  0  0  0  0  0  0  0  0  0  0
    0.9922   -9.3232   16.5995 O   0  0  0  0  0  0  0  0  0  0  0  0
    1.5232   -7.6869   27.1182 C   0  0  0  0  0  0  0  0  0  0  0  0
    8.6878   -6.6715   27.7262 N   0  0  0  0  0  0  0  0  0  0  0  0
    6.9911   -8.2423   27.1808 C   0  0  0  0  0  0  0  0  0  0  0  0
    3.8436   -7.2758   16.0578 C   0  0  0  0  0  0  0  0  0  0  0  0
    3.1882   -9.7190   17.2566 C   0  0  0  0  0  0  0  0  0  0  0  0
    5.3488   -6.1737   26.5092 C   0  0  0  0  0  0  0  0  0  0  0  0
    7.4567   -6.9464   27.2858 C   0  0  0  0  0  0  0  0  0  0  0  0
    0.1921   -5.7592   27.1123 C   0  0  0  0  0  0  0  0  0  0  0  0
    3.5517   -7.7407   25.9711 C   0  0  0  0  0  0  0  0  0  0  0  0
  1  4  4  0
  1 22  4  0
  2 20  4  0
  2 27  4  0
  3 12  4  0
  3 23  4  0
  4 25  4  0
  4 28  1  0
  5  8  4  0
  5 17  4  0
  6  7  4  0
  6 16  4  0
  7 18  4  0
  8 27  4  0
  9 13  4  0
  9 23  4  0
 10 11  1  0
 11 14  2  0
 11 27  1  0
 12 19  1  0
 12 24  4  0
 13 24  4  0
 15 18  1  0
 16 25  4  0
 16 26  4  0
 17 20  4  0
 17 28  1  0
 18 21  4  0
 21 26  4  0
 22 26  4  0
M  END
$$$$

 Created by Python create_sdf_string function

 28 30  0  0  0  0  0  0  0  0999 V2000
    5.7174   -8.4529   26.7190 C   0  0  0  0  0  0  0  0  0  0  0  0
    0.3974   -7.0711   27.5149 C   0  0  0  0  0  0  0  0  0  0  0  0
    2.5338   -7.6891   16.0102 C   0  0  0  0  0  0  0  0  0  0  0  0
    4.8690   -7.4380   26.4151 C   0  0  0  0  0  0  0  0  0  0  0  0
    2.3021   -5.6726   26.0378 C   0  0  0  0  0  0  0  0  0  0  0  0
    7.0880   -4.6163   27.0010 C   0  0  0  0  0  0  0  0  0  0  0  0
    8.3117   -4.3698   27.4436 C   0  0  0  0  0  0  0  0  0  0  0  0
    1.1339   -5.0515   26.3541 C   0  0  0  0  0  0  0  0  0  0  0  0
    4.8080   -8.0362   16.7101 C   0  0  0  0  0  0  0  0  0  0  0  0
   -1.2173   -3.9294   26.9717 O   0  0  0  0  0  0  0  0  0  0  0  0
   -1.0025   -5.0942   27.4586 C   0  0  0  0  0  0  0  0  0  0  0  0
    2.2474   -8.9123   16.6273 C   0  0  0  0  0  0  0  0  0  0  0  0
    4.4957   -9.2636   17.3041 C   0  0  0  0  0  0  0  0  0  0  0  0
   -1.8070   -5.6086   28.1920 O   0  0  0  0  0  0  0  0  0  0  0  0
   10.4296   -5.1799   28.3140 C   0  0  0  0  0  0  0  0  0  0  0  0
    6.6017   -5.9004   26.9187 C   0  0  0  0  0  0  0  0  0  0  0  0
    2.4761   -6.9940   26.4111 N   0  0  0  0  0  0  0  0  0  0  0  0
    9.1353   -5.4053   27.8239 C   0  0  0  0  0  0  0  0  0  0  0  0
    0.9922   -9.3232   16.5995 O   0  0  0  0  0  0  0  0  0  0  0  0
    1.5232   -7.6869   27.1182 C   0  0  0  0  0  0  0  0  0  0  0  0
    8.6878   -6.6715   27.7262 N   0  0  0  0  0  0  0  0  0  0  0  0
    6.9911   -8.2423   27.1808 C   0  0  0  0  0  0  0  0  0  0  0  0
    3.8436   -7.2758   16.0578 C   0  0  0  0  0  0  0  0  0  0  0  0
    3.1882   -9.7190   17.2566 C   0  0  0  0  0  0  0  0  0  0  0  0
    5.3488   -6.1737   26.5092 C   0  0  0  0  0  0  0  0  0  0  0  0
    7.4567   -6.9464   27.2858 C   0  0  0  0  0  0  0  0  0  0  0  0
    0.1921   -5.7592   27.1123 C   0  0  0  0  0  0  0  0  0  0  0  0
    3.5517   -7.7407   25.9711 C   0  0  0  0  0  0  0  0  0  0  0  0
  1  4  4  0
  1 22  4  0
  2 20  4  0
  2 27  4  0
  3 12  4  0
  3 23  4  0
  4 25  4  0
  4 28  1  0
  5  8  4  0
  5 17  4  0
  6  7  4  0
  6 16  4  0
  7 18  4  0
  8 27  4  0
  9 13  4  0
  9 23  4  0
 10 11  1  0
 11 14  2  0
 11 27  1  0
 12 19  1  0
 12 24  4  0
 13 24  4  0
 15 18  1  0
 16 25  4  0
 16 26  4  0
 17 20  4  0
 17 28  1  0
 18 21  4  0
 21 26  4  0
 22 26  4  0
M  END
$$$$

 Created by Python create_sdf_string function

 28 30  0  0  0  0  0  0  0  0999 V2000
    5.7174   -8.4529   26.7190 C   0  0  0  0  0  0  0  0  0  0  0  0
    0.3974   -7.0711   27.5149 C   0  0  0  0  0  0  0  0  0  0  0  0
    2.5338   -7.6891   16.0102 C   0  0  0  0  0  0  0  0  0  0  0  0
    4.8690   -7.4380   26.4151 C   0  0  0  0  0  0  0  0  0  0  0  0
    2.3021   -5.6726   26.0378 C   0  0  0  0  0  0  0  0  0  0  0  0
    7.0880   -4.6163   27.0010 C   0  0  0  0  0  0  0  0  0  0  0  0
    8.3117   -4.3698   27.4436 C   0  0  0  0  0  0  0  0  0  0  0  0
    1.1339   -5.0515   26.3541 C   0  0  0  0  0  0  0  0  0  0  0  0
    4.8080   -8.0362   16.7101 C   0  0  0  0  0  0  0  0  0  0  0  0
   -1.2173   -3.9294   26.9717 O   0  0  0  0  0  0  0  0  0  0  0  0
   -1.0025   -5.0942   27.4586 C   0  0  0  0  0  0  0  0  0  0  0  0
    2.2474   -8.9123   16.6273 C   0  0  0  0  0  0  0  0  0  0  0  0
    4.4957   -9.2636   17.3041 C   0  0  0  0  0  0  0  0  0  0  0  0
   -1.8070   -5.6086   28.1920 O   0  0  0  0  0  0  0  0  0  0  0  0
   10.4296   -5.1799   28.3140 C   0  0  0  0  0  0  0  0  0  0  0  0
    6.6017   -5.9004   26.9187 C   0  0  0  0  0  0  0  0  0  0  0  0
    2.4761   -6.9940   26.4111 N   0  0  0  0  0  0  0  0  0  0  0  0
    9.1353   -5.4053   27.8239 C   0  0  0  0  0  0  0  0  0  0  0  0
    0.9922   -9.3232   16.5995 O   0  0  0  0  0  0  0  0  0  0  0  0
    1.5232   -7.6869   27.1182 C   0  0  0  0  0  0  0  0  0  0  0  0
    8.6878   -6.6715   27.7262 N   0  0  0  0  0  0  0  0  0  0  0  0
    6.9911   -8.2423   27.1808 C   0  0  0  0  0  0  0  0  0  0  0  0
    3.8436   -7.2758   16.0578 C   0  0  0  0  0  0  0  0  0  0  0  0
    3.1882   -9.7190   17.2566 C   0  0  0  0  0  0  0  0  0  0  0  0
    5.3488   -6.1737   26.5092 C   0  0  0  0  0  0  0  0  0  0  0  0
    7.4567   -6.9464   27.2858 C   0  0  0  0  0  0  0  0  0  0  0  0
    0.1921   -5.7592   27.1123 C   0  0  0  0  0  0  0  0  0  0  0  0
    3.5517   -7.7407   25.9711 C   0  0  0  0  0  0  0  0  0  0  0  0
  1  4  4  0
  1 22  4  0
  2 20  4  0
  2 27  4  0
  3 12  4  0
  3 23  4  0
  4 25  4  0
  4 28  1  0
  5  8  4  0
  5 17  4  0
  6  7  4  0
  6 16  4  0
  7 18  4  0
  8 27  4  0
  9 13  4  0
  9 23  4  0
 10 11  1  0
 11 14  2  0
 11 27  1  0
 12 19  1  0
 12 24  4  0
 13 24  4  0
 15 18  1  0
 16 25  4  0
 16 26  4  0
 17 20  4  0
 17 28  1  0
 18 21  4  0
 21 26  4  0
 22 26  4  0
M  END
$$$$

 Created by Python create_sdf_string function

 28 30  0  0  0  0  0  0  0  0999 V2000
    5.7174   -8.4529   26.7190 C   0  0  0  0  0  0  0  0  0  0  0  0
    0.3974   -7.0711   27.5149 C   0  0  0  0  0  0  0  0  0  0  0  0
    2.5338   -7.6891   16.0102 C   0  0  0  0  0  0  0  0  0  0  0  0
    4.8690   -7.4380   26.4151 C   0  0  0  0  0  0  0  0  0  0  0  0
    2.3021   -5.6726   26.0378 C   0  0  0  0  0  0  0  0  0  0  0  0
    7.0880   -4.6163   27.0010 C   0  0  0  0  0  0  0  0  0  0  0  0
    8.3117   -4.3698   27.4436 C   0  0  0  0  0  0  0  0  0  0  0  0
    1.1339   -5.0515   26.3541 C   0  0  0  0  0  0  0  0  0  0  0  0
    4.8080   -8.0362   16.7101 C   0  0  0  0  0  0  0  0  0  0  0  0
   -1.2173   -3.9294   26.9717 O   0  0  0  0  0  0  0  0  0  0  0  0
   -1.0025   -5.0942   27.4586 C   0  0  0  0  0  0  0  0  0  0  0  0
    2.2474   -8.9123   16.6273 C   0  0  0  0  0  0  0  0  0  0  0  0
    4.4957   -9.2636   17.3041 C   0  0  0  0  0  0  0  0  0  0  0  0
   -1.8070   -5.6086   28.1920 O   0  0  0  0  0  0  0  0  0  0  0  0
   10.4296   -5.1799   28.3140 C   0  0  0  0  0  0  0  0  0  0  0  0
    6.6017   -5.9004   26.9187 C   0  0  0  0  0  0  0  0  0  0  0  0
    2.4761   -6.9940   26.4111 N   0  0  0  0  0  0  0  0  0  0  0  0
    9.1353   -5.4053   27.8239 C   0  0  0  0  0  0  0  0  0  0  0  0
    0.9922   -9.3232   16.5995 O   0  0  0  0  0  0  0  0  0  0  0  0
    1.5232   -7.6869   27.1182 C   0  0  0  0  0  0  0  0  0  0  0  0
    8.6878   -6.6715   27.7262 N   0  0  0  0  0  0  0  0  0  0  0  0
    6.9911   -8.2423   27.1808 C   0  0  0  0  0  0  0  0  0  0  0  0
    3.8436   -7.2758   16.0578 C   0  0  0  0  0  0  0  0  0  0  0  0
    3.1882   -9.7190   17.2566 C   0  0  0  0  0  0  0  0  0  0  0  0
    5.3488   -6.1737   26.5092 C   0  0  0  0  0  0  0  0  0  0  0  0
    7.4567   -6.9464   27.2858 C   0  0  0  0  0  0  0  0  0  0  0  0
    0.1921   -5.7592   27.1123 C   0  0  0  0  0  0  0  0  0  0  0  0
    3.5517   -7.7407   25.9711 C   0  0  0  0  0  0  0  0  0  0  0  0
  1  4  4  0
  1 22  4  0
  2 20  4  0
  2 27  4  0
  3 12  4  0
  3 23  4  0
  4 25  4  0
  4 28  1  0
  5  8  4  0
  5 17  4  0
  6  7  4  0
  6 16  4  0
  7 18  4  0
  8 27  4  0
  9 13  4  0
  9 23  4  0
 10 11  1  0
 11 14  2  0
 11 27  1  0
 12 19  1  0
 12 24  4  0
 13 24  4  0
 15 18  1  0
 16 25  4  0
 16 26  4  0
 17 20  4  0
 17 28  1  0
 18 21  4  0
 21 26  4  0
 22 26  4  0
M  END
$$$$

 Created by Python create_sdf_string function

 28 30  0  0  0  0  0  0  0  0999 V2000
    5.7174   -8.4529   26.7190 C   0  0  0  0  0  0  0  0  0  0  0  0
    0.3974   -7.0711   27.5149 C   0  0  0  0  0  0  0  0  0  0  0  0
    2.5338   -7.6891   16.0102 C   0  0  0  0  0  0  0  0  0  0  0  0
    4.8690   -7.4380   26.4151 C   0  0  0  0  0  0  0  0  0  0  0  0
    2.3021   -5.6726   26.0378 C   0  0  0  0  0  0  0  0  0  0  0  0
    7.0880   -4.6163   27.0010 C   0  0  0  0  0  0  0  0  0  0  0  0
    8.3117   -4.3698   27.4436 C   0  0  0  0  0  0  0  0  0  0  0  0
    1.1339   -5.0515   26.3541 C   0  0  0  0  0  0  0  0  0  0  0  0
    4.8080   -8.0362   16.7101 C   0  0  0  0  0  0  0  0  0  0  0  0
   -1.2173   -3.9294   26.9717 O   0  0  0  0  0  0  0  0  0  0  0  0
   -1.0025   -5.0942   27.4586 C   0  0  0  0  0  0  0  0  0  0  0  0
    2.2474   -8.9123   16.6273 C   0  0  0  0  0  0  0  0  0  0  0  0
    4.4957   -9.2636   17.3041 C   0  0  0  0  0  0  0  0  0  0  0  0
   -1.8070   -5.6086   28.1920 O   0  0  0  0  0  0  0  0  0  0  0  0
   10.4296   -5.1799   28.3140 C   0  0  0  0  0  0  0  0  0  0  0  0
    6.6017   -5.9004   26.9187 C   0  0  0  0  0  0  0  0  0  0  0  0
    2.4761   -6.9940   26.4111 N   0  0  0  0  0  0  0  0  0  0  0  0
    9.1353   -5.4053   27.8239 C   0  0  0  0  0  0  0  0  0  0  0  0
    0.9922   -9.3232   16.5995 O   0  0  0  0  0  0  0  0  0  0  0  0
    1.5232   -7.6869   27.1182 C   0  0  0  0  0  0  0  0  0  0  0  0
    8.6878   -6.6715   27.7262 N   0  0  0  0  0  0  0  0  0  0  0  0
    6.9911   -8.2423   27.1808 C   0  0  0  0  0  0  0  0  0  0  0  0
    3.8436   -7.2758   16.0578 C   0  0  0  0  0  0  0  0  0  0  0  0
    3.1882   -9.7190   17.2566 C   0  0  0  0  0  0  0  0  0  0  0  0
    5.3488   -6.1737   26.5092 C   0  0  0  0  0  0  0  0  0  0  0  0
    7.4567   -6.9464   27.2858 C   0  0  0  0  0  0  0  0  0  0  0  0
    0.1921   -5.7592   27.1123 C   0  0  0  0  0  0  0  0  0  0  0  0
    3.5517   -7.7407   25.9711 C   0  0  0  0  0  0  0  0  0  0  0  0
  1  4  4  0
  1 22  4  0
  2 20  4  0
  2 27  4  0
  3 12  4  0
  3 23  4  0
  4 25  4  0
  4 28  1  0
  5  8  4  0
  5 17  4  0
  6  7  4  0
  6 16  4  0
  7 18  4  0
  8 27  4  0
  9 13  4  0
  9 23  4  0
 10 11  1  0
 11 14  2  0
 11 27  1  0
 12 19  1  0
 12 24  4  0
 13 24  4  0
 15 18  1  0
 16 25  4  0
 16 26  4  0
 17 20  4  0
 17 28  1  0
 18 21  4  0
 21 26  4  0
 22 26  4  0
M  END
$$$$

 Created by Python create_sdf_string function

 28 30  0  0  0  0  0  0  0  0999 V2000
    5.7174   -8.4529   26.7190 C   0  0  0  0  0  0  0  0  0  0  0  0
    0.3974   -7.0711   27.5149 C   0  0  0  0  0  0  0  0  0  0  0  0
    2.5338   -7.6891   16.0102 C   0  0  0  0  0  0  0  0  0  0  0  0
    4.8690   -7.4380   26.4151 C   0  0  0  0  0  0  0  0  0  0  0  0
    2.3021   -5.6726   26.0378 C   0  0  0  0  0  0  0  0  0  0  0  0
    7.0880   -4.6163   27.0010 C   0  0  0  0  0  0  0  0  0  0  0  0
    8.3117   -4.3698   27.4436 C   0  0  0  0  0  0  0  0  0  0  0  0
    1.1339   -5.0515   26.3541 C   0  0  0  0  0  0  0  0  0  0  0  0
    4.8080   -8.0362   16.7101 C   0  0  0  0  0  0  0  0  0  0  0  0
   -1.2173   -3.9294   26.9717 O   0  0  0  0  0  0  0  0  0  0  0  0
   -1.0025   -5.0942   27.4586 C   0  0  0  0  0  0  0  0  0  0  0  0
    2.2474   -8.9123   16.6273 C   0  0  0  0  0  0  0  0  0  0  0  0
    4.4957   -9.2636   17.3041 C   0  0  0  0  0  0  0  0  0  0  0  0
   -1.8070   -5.6086   28.1920 O   0  0  0  0  0  0  0  0  0  0  0  0
   10.4296   -5.1799   28.3140 C   0  0  0  0  0  0  0  0  0  0  0  0
    6.6017   -5.9004   26.9187 C   0  0  0  0  0  0  0  0  0  0  0  0
    2.4761   -6.9940   26.4111 N   0  0  0  0  0  0  0  0  0  0  0  0
    9.1353   -5.4053   27.8239 C   0  0  0  0  0  0  0  0  0  0  0  0
    0.9922   -9.3232   16.5995 O   0  0  0  0  0  0  0  0  0  0  0  0
    1.5232   -7.6869   27.1182 C   0  0  0  0  0  0  0  0  0  0  0  0
    8.6878   -6.6715   27.7262 N   0  0  0  0  0  0  0  0  0  0  0  0
    6.9911   -8.2423   27.1808 C   0  0  0  0  0  0  0  0  0  0  0  0
    3.8436   -7.2758   16.0578 C   0  0  0  0  0  0  0  0  0  0  0  0
    3.1882   -9.7190   17.2566 C   0  0  0  0  0  0  0  0  0  0  0  0
    5.3488   -6.1737   26.5092 C   0  0  0  0  0  0  0  0  0  0  0  0
    7.4567   -6.9464   27.2858 C   0  0  0  0  0  0  0  0  0  0  0  0
    0.1921   -5.7592   27.1123 C   0  0  0  0  0  0  0  0  0  0  0  0
    3.5517   -7.7407   25.9711 C   0  0  0  0  0  0  0  0  0  0  0  0
  1  4  4  0
  1 22  4  0
  2 20  4  0
  2 27  4  0
  3 12  4  0
  3 23  4  0
  4 25  4  0
  4 28  1  0
  5  8  4  0
  5 17  4  0
  6  7  4  0
  6 16  4  0
  7 18  4  0
  8 27  4  0
  9 13  4  0
  9 23  4  0
 10 11  1  0
 11 14  2  0
 11 27  1  0
 12 19  1  0
 12 24  4  0
 13 24  4  0
 15 18  1  0
 16 25  4  0
 16 26  4  0
 17 20  4  0
 17 28  1  0
 18 21  4  0
 21 26  4  0
 22 26  4  0
M  END
$$$$

 Created by Python create_sdf_string function

 28 30  0  0  0  0  0  0  0  0999 V2000
    5.7174   -8.4529   26.7190 C   0  0  0  0  0  0  0  0  0  0  0  0
    0.3974   -7.0711   27.5149 C   0  0  0  0  0  0  0  0  0  0  0  0
    2.5338   -7.6891   16.0102 C   0  0  0  0  0  0  0  0  0  0  0  0
    4.8690   -7.4380   26.4151 C   0  0  0  0  0  0  0  0  0  0  0  0
    2.3021   -5.6726   26.0378 C   0  0  0  0  0  0  0  0  0  0  0  0
    7.0880   -4.6163   27.0010 C   0  0  0  0  0  0  0  0  0  0  0  0
    8.3117   -4.3698   27.4436 C   0  0  0  0  0  0  0  0  0  0  0  0
    1.1339   -5.0515   26.3541 C   0  0  0  0  0  0  0  0  0  0  0  0
    4.8080   -8.0362   16.7101 C   0  0  0  0  0  0  0  0  0  0  0  0
   -1.2173   -3.9294   26.9717 O   0  0  0  0  0  0  0  0  0  0  0  0
   -1.0025   -5.0942   27.4586 C   0  0  0  0  0  0  0  0  0  0  0  0
    2.2474   -8.9123   16.6273 C   0  0  0  0  0  0  0  0  0  0  0  0
    4.4957   -9.2636   17.3041 C   0  0  0  0  0  0  0  0  0  0  0  0
   -1.8070   -5.6086   28.1920 O   0  0  0  0  0  0  0  0  0  0  0  0
   10.4296   -5.1799   28.3140 C   0  0  0  0  0  0  0  0  0  0  0  0
    6.6017   -5.9004   26.9187 C   0  0  0  0  0  0  0  0  0  0  0  0
    2.4761   -6.9940   26.4111 N   0  0  0  0  0  0  0  0  0  0  0  0
    9.1353   -5.4053   27.8239 C   0  0  0  0  0  0  0  0  0  0  0  0
    0.9922   -9.3232   16.5995 O   0  0  0  0  0  0  0  0  0  0  0  0
    1.5232   -7.6869   27.1182 C   0  0  0  0  0  0  0  0  0  0  0  0
    8.6878   -6.6715   27.7262 N   0  0  0  0  0  0  0  0  0  0  0  0
    6.9911   -8.2423   27.1808 C   0  0  0  0  0  0  0  0  0  0  0  0
    3.8436   -7.2758   16.0578 C   0  0  0  0  0  0  0  0  0  0  0  0
    3.1882   -9.7190   17.2566 C   0  0  0  0  0  0  0  0  0  0  0  0
    5.3488   -6.1737   26.5092 C   0  0  0  0  0  0  0  0  0  0  0  0
    7.4567   -6.9464   27.2858 C   0  0  0  0  0  0  0  0  0  0  0  0
    0.1921   -5.7592   27.1123 C   0  0  0  0  0  0  0  0  0  0  0  0
    3.5517   -7.7407   25.9711 C   0  0  0  0  0  0  0  0  0  0  0  0
  1  4  4  0
  1 22  4  0
  2 20  4  0
  2 27  4  0
  3 12  4  0
  3 23  4  0
  4 25  4  0
  4 28  1  0
  5  8  4  0
  5 17  4  0
  6  7  4  0
  6 16  4  0
  7 18  4  0
  8 27  4  0
  9 13  4  0
  9 23  4  0
 10 11  1  0
 11 14  2  0
 11 27  1  0
 12 19  1  0
 12 24  4  0
 13 24  4  0
 15 18  1  0
 16 25  4  0
 16 26  4  0
 17 20  4  0
 17 28  1  0
 18 21  4  0
 21 26  4  0
 22 26  4  0
M  END
$$$$

 Created by Python create_sdf_string function

 28 30  0  0  0  0  0  0  0  0999 V2000
    5.7174   -8.4529   26.7190 C   0  0  0  0  0  0  0  0  0  0  0  0
    0.3974   -7.0711   27.5149 C   0  0  0  0  0  0  0  0  0  0  0  0
    2.5338   -7.6891   16.0102 C   0  0  0  0  0  0  0  0  0  0  0  0
    4.8690   -7.4380   26.4151 C   0  0  0  0  0  0  0  0  0  0  0  0
    2.3021   -5.6726   26.0378 C   0  0  0  0  0  0  0  0  0  0  0  0
    7.0880   -4.6163   27.0010 C   0  0  0  0  0  0  0  0  0  0  0  0
    8.3117   -4.3698   27.4436 C   0  0  0  0  0  0  0  0  0  0  0  0
    1.1339   -5.0515   26.3541 C   0  0  0  0  0  0  0  0  0  0  0  0
    4.8080   -8.0362   16.7101 C   0  0  0  0  0  0  0  0  0  0  0  0
   -1.2173   -3.9294   26.9717 O   0  0  0  0  0  0  0  0  0  0  0  0
   -1.0025   -5.0942   27.4586 C   0  0  0  0  0  0  0  0  0  0  0  0
    2.2474   -8.9123   16.6273 C   0  0  0  0  0  0  0  0  0  0  0  0
    4.4957   -9.2636   17.3041 C   0  0  0  0  0  0  0  0  0  0  0  0
   -1.8070   -5.6086   28.1920 O   0  0  0  0  0  0  0  0  0  0  0  0
   10.4296   -5.1799   28.3140 C   0  0  0  0  0  0  0  0  0  0  0  0
    6.6017   -5.9004   26.9187 C   0  0  0  0  0  0  0  0  0  0  0  0
    2.4761   -6.9940   26.4111 N   0  0  0  0  0  0  0  0  0  0  0  0
    9.1353   -5.4053   27.8239 C   0  0  0  0  0  0  0  0  0  0  0  0
    0.9922   -9.3232   16.5995 O   0  0  0  0  0  0  0  0  0  0  0  0
    1.5232   -7.6869   27.1182 C   0  0  0  0  0  0  0  0  0  0  0  0
    8.6878   -6.6715   27.7262 N   0  0  0  0  0  0  0  0  0  0  0  0
    6.9911   -8.2423   27.1808 C   0  0  0  0  0  0  0  0  0  0  0  0
    3.8436   -7.2758   16.0578 C   0  0  0  0  0  0  0  0  0  0  0  0
    3.1882   -9.7190   17.2566 C   0  0  0  0  0  0  0  0  0  0  0  0
    5.3488   -6.1737   26.5092 C   0  0  0  0  0  0  0  0  0  0  0  0
    7.4567   -6.9464   27.2858 C   0  0  0  0  0  0  0  0  0  0  0  0
    0.1921   -5.7592   27.1123 C   0  0  0  0  0  0  0  0  0  0  0  0
    3.5517   -7.7407   25.9711 C   0  0  0  0  0  0  0  0  0  0  0  0
  1  4  4  0
  1 22  4  0
  2 20  4  0
  2 27  4  0
  3 12  4  0
  3 23  4  0
  4 25  4  0
  4 28  1  0
  5  8  4  0
  5 17  4  0
  6  7  4  0
  6 16  4  0
  7 18  4  0
  8 27  4  0
  9 13  4  0
  9 23  4  0
 10 11  1  0
 11 14  2  0
 11 27  1  0
 12 19  1  0
 12 24  4  0
 13 24  4  0
 15 18  1  0
 16 25  4  0
 16 26  4  0
 17 20  4  0
 17 28  1  0
 18 21  4  0
 21 26  4  0
 22 26  4  0
M  END
$$$$

 Created by Python create_sdf_string function

 28 30  0  0  0  0  0  0  0  0999 V2000
    5.7174   -8.4529   26.7190 C   0  0  0  0  0  0  0  0  0  0  0  0
    0.3974   -7.0711   27.5149 C   0  0  0  0  0  0  0  0  0  0  0  0
    2.5338   -7.6891   16.0102 C   0  0  0  0  0  0  0  0  0  0  0  0
    4.8690   -7.4380   26.4151 C   0  0  0  0  0  0  0  0  0  0  0  0
    2.3021   -5.6726   26.0378 C   0  0  0  0  0  0  0  0  0  0  0  0
    7.0880   -4.6163   27.0010 C   0  0  0  0  0  0  0  0  0  0  0  0
    8.3117   -4.3698   27.4436 C   0  0  0  0  0  0  0  0  0  0  0  0
    1.1339   -5.0515   26.3541 C   0  0  0  0  0  0  0  0  0  0  0  0
    4.8080   -8.0362   16.7101 C   0  0  0  0  0  0  0  0  0  0  0  0
   -1.2173   -3.9294   26.9717 O   0  0  0  0  0  0  0  0  0  0  0  0
   -1.0025   -5.0942   27.4586 C   0  0  0  0  0  0  0  0  0  0  0  0
    2.2474   -8.9123   16.6273 C   0  0  0  0  0  0  0  0  0  0  0  0
    4.4957   -9.2636   17.3041 C   0  0  0  0  0  0  0  0  0  0  0  0
   -1.8070   -5.6086   28.1920 O   0  0  0  0  0  0  0  0  0  0  0  0
   10.4296   -5.1799   28.3140 C   0  0  0  0  0  0  0  0  0  0  0  0
    6.6017   -5.9004   26.9187 C   0  0  0  0  0  0  0  0  0  0  0  0
    2.4761   -6.9940   26.4111 N   0  0  0  0  0  0  0  0  0  0  0  0
    9.1353   -5.4053   27.8239 C   0  0  0  0  0  0  0  0  0  0  0  0
    0.9922   -9.3232   16.5995 O   0  0  0  0  0  0  0  0  0  0  0  0
    1.5232   -7.6869   27.1182 C   0  0  0  0  0  0  0  0  0  0  0  0
    8.6878   -6.6715   27.7262 N   0  0  0  0  0  0  0  0  0  0  0  0
    6.9911   -8.2423   27.1808 C   0  0  0  0  0  0  0  0  0  0  0  0
    3.8436   -7.2758   16.0578 C   0  0  0  0  0  0  0  0  0  0  0  0
    3.1882   -9.7190   17.2566 C   0  0  0  0  0  0  0  0  0  0  0  0
    5.3488   -6.1737   26.5092 C   0  0  0  0  0  0  0  0  0  0  0  0
    7.4567   -6.9464   27.2858 C   0  0  0  0  0  0  0  0  0  0  0  0
    0.1921   -5.7592   27.1123 C   0  0  0  0  0  0  0  0  0  0  0  0
    3.5517   -7.7407   25.9711 C   0  0  0  0  0  0  0  0  0  0  0  0
  1  4  4  0
  1 22  4  0
  2 20  4  0
  2 27  4  0
  3 12  4  0
  3 23  4  0
  4 25  4  0
  4 28  1  0
  5  8  4  0
  5 17  4  0
  6  7  4  0
  6 16  4  0
  7 18  4  0
  8 27  4  0
  9 13  4  0
  9 23  4  0
 10 11  1  0
 11 14  2  0
 11 27  1  0
 12 19  1  0
 12 24  4  0
 13 24  4  0
 15 18  1  0
 16 25  4  0
 16 26  4  0
 17 20  4  0
 17 28  1  0
 18 21  4  0
 21 26  4  0
 22 26  4  0
M  END
$$$$

 Created by Python create_sdf_string function

 28 30  0  0  0  0  0  0  0  0999 V2000
    5.7174   -8.4529   26.7190 C   0  0  0  0  0  0  0  0  0  0  0  0
    0.3974   -7.0711   27.5149 C   0  0  0  0  0  0  0  0  0  0  0  0
    2.5338   -7.6891   16.0102 C   0  0  0  0  0  0  0  0  0  0  0  0
    4.8690   -7.4380   26.4151 C   0  0  0  0  0  0  0  0  0  0  0  0
    2.3021   -5.6726   26.0378 C   0  0  0  0  0  0  0  0  0  0  0  0
    7.0880   -4.6163   27.0010 C   0  0  0  0  0  0  0  0  0  0  0  0
    8.3117   -4.3698   27.4436 C   0  0  0  0  0  0  0  0  0  0  0  0
    1.1339   -5.0515   26.3541 C   0  0  0  0  0  0  0  0  0  0  0  0
    4.8080   -8.0362   16.7101 C   0  0  0  0  0  0  0  0  0  0  0  0
   -1.2173   -3.9294   26.9717 O   0  0  0  0  0  0  0  0  0  0  0  0
   -1.0025   -5.0942   27.4586 C   0  0  0  0  0  0  0  0  0  0  0  0
    2.2474   -8.9123   16.6273 C   0  0  0  0  0  0  0  0  0  0  0  0
    4.4957   -9.2636   17.3041 C   0  0  0  0  0  0  0  0  0  0  0  0
   -1.8070   -5.6086   28.1920 O   0  0  0  0  0  0  0  0  0  0  0  0
   10.4296   -5.1799   28.3140 C   0  0  0  0  0  0  0  0  0  0  0  0
    6.6017   -5.9004   26.9187 C   0  0  0  0  0  0  0  0  0  0  0  0
    2.4761   -6.9940   26.4111 N   0  0  0  0  0  0  0  0  0  0  0  0
    9.1353   -5.4053   27.8239 C   0  0  0  0  0  0  0  0  0  0  0  0
    0.9922   -9.3232   16.5995 O   0  0  0  0  0  0  0  0  0  0  0  0
    1.5232   -7.6869   27.1182 C   0  0  0  0  0  0  0  0  0  0  0  0
    8.6878   -6.6715   27.7262 N   0  0  0  0  0  0  0  0  0  0  0  0
    6.9911   -8.2423   27.1808 C   0  0  0  0  0  0  0  0  0  0  0  0
    3.8436   -7.2758   16.0578 C   0  0  0  0  0  0  0  0  0  0  0  0
    3.1882   -9.7190   17.2566 C   0  0  0  0  0  0  0  0  0  0  0  0
    5.3488   -6.1737   26.5092 C   0  0  0  0  0  0  0  0  0  0  0  0
    7.4567   -6.9464   27.2858 C   0  0  0  0  0  0  0  0  0  0  0  0
    0.1921   -5.7592   27.1123 C   0  0  0  0  0  0  0  0  0  0  0  0
    3.5517   -7.7407   25.9711 C   0  0  0  0  0  0  0  0  0  0  0  0
  1  4  4  0
  1 22  4  0
  2 20  4  0
  2 27  4  0
  3 12  4  0
  3 23  4  0
  4 25  4  0
  4 28  1  0
  5  8  4  0
  5 17  4  0
  6  7  4  0
  6 16  4  0
  7 18  4  0
  8 27  4  0
  9 13  4  0
  9 23  4  0
 10 11  1  0
 11 14  2  0
 11 27  1  0
 12 19  1  0
 12 24  4  0
 13 24  4  0
 15 18  1  0
 16 25  4  0
 16 26  4  0
 17 20  4  0
 17 28  1  0
 18 21  4  0
 21 26  4  0
 22 26  4  0
M  END
$$$$

 Created by Python create_sdf_string function

 28 30  0  0  0  0  0  0  0  0999 V2000
    5.7174   -8.4529   26.7190 C   0  0  0  0  0  0  0  0  0  0  0  0
    0.3974   -7.0711   27.5149 C   0  0  0  0  0  0  0  0  0  0  0  0
    2.5338   -7.6891   16.0102 C   0  0  0  0  0  0  0  0  0  0  0  0
    4.8690   -7.4380   26.4151 C   0  0  0  0  0  0  0  0  0  0  0  0
    2.3021   -5.6726   26.0378 C   0  0  0  0  0  0  0  0  0  0  0  0
    7.0880   -4.6163   27.0010 C   0  0  0  0  0  0  0  0  0  0  0  0
    8.3117   -4.3698   27.4436 C   0  0  0  0  0  0  0  0  0  0  0  0
    1.1339   -5.0515   26.3541 C   0  0  0  0  0  0  0  0  0  0  0  0
    4.8080   -8.0362   16.7101 C   0  0  0  0  0  0  0  0  0  0  0  0
   -1.2173   -3.9294   26.9717 O   0  0  0  0  0  0  0  0  0  0  0  0
   -1.0025   -5.0942   27.4586 C   0  0  0  0  0  0  0  0  0  0  0  0
    2.2474   -8.9123   16.6273 C   0  0  0  0  0  0  0  0  0  0  0  0
    4.4957   -9.2636   17.3041 C   0  0  0  0  0  0  0  0  0  0  0  0
   -1.8070   -5.6086   28.1920 O   0  0  0  0  0  0  0  0  0  0  0  0
   10.4296   -5.1799   28.3140 C   0  0  0  0  0  0  0  0  0  0  0  0
    6.6017   -5.9004   26.9187 C   0  0  0  0  0  0  0  0  0  0  0  0
    2.4761   -6.9940   26.4111 N   0  0  0  0  0  0  0  0  0  0  0  0
    9.1353   -5.4053   27.8239 C   0  0  0  0  0  0  0  0  0  0  0  0
    0.9922   -9.3232   16.5995 O   0  0  0  0  0  0  0  0  0  0  0  0
    1.5232   -7.6869   27.1182 C   0  0  0  0  0  0  0  0  0  0  0  0
    8.6878   -6.6715   27.7262 N   0  0  0  0  0  0  0  0  0  0  0  0
    6.9911   -8.2423   27.1808 C   0  0  0  0  0  0  0  0  0  0  0  0
    3.8436   -7.2758   16.0578 C   0  0  0  0  0  0  0  0  0  0  0  0
    3.1882   -9.7190   17.2566 C   0  0  0  0  0  0  0  0  0  0  0  0
    5.3488   -6.1737   26.5092 C   0  0  0  0  0  0  0  0  0  0  0  0
    7.4567   -6.9464   27.2858 C   0  0  0  0  0  0  0  0  0  0  0  0
    0.1921   -5.7592   27.1123 C   0  0  0  0  0  0  0  0  0  0  0  0
    3.5517   -7.7407   25.9711 C   0  0  0  0  0  0  0  0  0  0  0  0
  1  4  4  0
  1 22  4  0
  2 20  4  0
  2 27  4  0
  3 12  4  0
  3 23  4  0
  4 25  4  0
  4 28  1  0
  5  8  4  0
  5 17  4  0
  6  7  4  0
  6 16  4  0
  7 18  4  0
  8 27  4  0
  9 13  4  0
  9 23  4  0
 10 11  1  0
 11 14  2  0
 11 27  1  0
 12 19  1  0
 12 24  4  0
 13 24  4  0
 15 18  1  0
 16 25  4  0
 16 26  4  0
 17 20  4  0
 17 28  1  0
 18 21  4  0
 21 26  4  0
 22 26  4  0
M  END
$$$$

 Created by Python create_sdf_string function

 28 30  0  0  0  0  0  0  0  0999 V2000
    5.7174   -8.4529   26.7190 C   0  0  0  0  0  0  0  0  0  0  0  0
    0.3974   -7.0711   27.5149 C   0  0  0  0  0  0  0  0  0  0  0  0
    2.5338   -7.6891   16.0102 C   0  0  0  0  0  0  0  0  0  0  0  0
    4.8690   -7.4380   26.4151 C   0  0  0  0  0  0  0  0  0  0  0  0
    2.3021   -5.6726   26.0378 C   0  0  0  0  0  0  0  0  0  0  0  0
    7.0880   -4.6163   27.0010 C   0  0  0  0  0  0  0  0  0  0  0  0
    8.3117   -4.3698   27.4436 C   0  0  0  0  0  0  0  0  0  0  0  0
    1.1339   -5.0515   26.3541 C   0  0  0  0  0  0  0  0  0  0  0  0
    4.8080   -8.0362   16.7101 C   0  0  0  0  0  0  0  0  0  0  0  0
   -1.2173   -3.9294   26.9717 O   0  0  0  0  0  0  0  0  0  0  0  0
   -1.0025   -5.0942   27.4586 C   0  0  0  0  0  0  0  0  0  0  0  0
    2.2474   -8.9123   16.6273 C   0  0  0  0  0  0  0  0  0  0  0  0
    4.4957   -9.2636   17.3041 C   0  0  0  0  0  0  0  0  0  0  0  0
   -1.8070   -5.6086   28.1920 O   0  0  0  0  0  0  0  0  0  0  0  0
   10.4296   -5.1799   28.3140 C   0  0  0  0  0  0  0  0  0  0  0  0
    6.6017   -5.9004   26.9187 C   0  0  0  0  0  0  0  0  0  0  0  0
    2.4761   -6.9940   26.4111 N   0  0  0  0  0  0  0  0  0  0  0  0
    9.1353   -5.4053   27.8239 C   0  0  0  0  0  0  0  0  0  0  0  0
    0.9922   -9.3232   16.5995 O   0  0  0  0  0  0  0  0  0  0  0  0
    1.5232   -7.6869   27.1182 C   0  0  0  0  0  0  0  0  0  0  0  0
    8.6878   -6.6715   27.7262 N   0  0  0  0  0  0  0  0  0  0  0  0
    6.9911   -8.2423   27.1808 C   0  0  0  0  0  0  0  0  0  0  0  0
    3.8436   -7.2758   16.0578 C   0  0  0  0  0  0  0  0  0  0  0  0
    3.1882   -9.7190   17.2566 C   0  0  0  0  0  0  0  0  0  0  0  0
    5.3488   -6.1737   26.5092 C   0  0  0  0  0  0  0  0  0  0  0  0
    7.4567   -6.9464   27.2858 C   0  0  0  0  0  0  0  0  0  0  0  0
    0.1921   -5.7592   27.1123 C   0  0  0  0  0  0  0  0  0  0  0  0
    3.5517   -7.7407   25.9711 C   0  0  0  0  0  0  0  0  0  0  0  0
  1  4  4  0
  1 22  4  0
  2 20  4  0
  2 27  4  0
  3 12  4  0
  3 23  4  0
  4 25  4  0
  4 28  1  0
  5  8  4  0
  5 17  4  0
  6  7  4  0
  6 16  4  0
  7 18  4  0
  8 27  4  0
  9 13  4  0
  9 23  4  0
 10 11  1  0
 11 14  2  0
 11 27  1  0
 12 19  1  0
 12 24  4  0
 13 24  4  0
 15 18  1  0
 16 25  4  0
 16 26  4  0
 17 20  4  0
 17 28  1  0
 18 21  4  0
 21 26  4  0
 22 26  4  0
M  END
$$$$

 Created by Python create_sdf_string function

 28 30  0  0  0  0  0  0  0  0999 V2000
    5.7174   -8.4529   26.7190 C   0  0  0  0  0  0  0  0  0  0  0  0
    0.3974   -7.0711   27.5149 C   0  0  0  0  0  0  0  0  0  0  0  0
    2.5338   -7.6891   16.0102 C   0  0  0  0  0  0  0  0  0  0  0  0
    4.8690   -7.4380   26.4151 C   0  0  0  0  0  0  0  0  0  0  0  0
    2.3021   -5.6726   26.0378 C   0  0  0  0  0  0  0  0  0  0  0  0
    7.0880   -4.6163   27.0010 C   0  0  0  0  0  0  0  0  0  0  0  0
    8.3117   -4.3698   27.4436 C   0  0  0  0  0  0  0  0  0  0  0  0
    1.1339   -5.0515   26.3541 C   0  0  0  0  0  0  0  0  0  0  0  0
    4.8080   -8.0362   16.7101 C   0  0  0  0  0  0  0  0  0  0  0  0
   -1.2173   -3.9294   26.9717 O   0  0  0  0  0  0  0  0  0  0  0  0
   -1.0025   -5.0942   27.4586 C   0  0  0  0  0  0  0  0  0  0  0  0
    2.2474   -8.9123   16.6273 C   0  0  0  0  0  0  0  0  0  0  0  0
    4.4957   -9.2636   17.3041 C   0  0  0  0  0  0  0  0  0  0  0  0
   -1.8070   -5.6086   28.1920 O   0  0  0  0  0  0  0  0  0  0  0  0
   10.4296   -5.1799   28.3140 C   0  0  0  0  0  0  0  0  0  0  0  0
    6.6017   -5.9004   26.9187 C   0  0  0  0  0  0  0  0  0  0  0  0
    2.4761   -6.9940   26.4111 N   0  0  0  0  0  0  0  0  0  0  0  0
    9.1353   -5.4053   27.8239 C   0  0  0  0  0  0  0  0  0  0  0  0
    0.9922   -9.3232   16.5995 O   0  0  0  0  0  0  0  0  0  0  0  0
    1.5232   -7.6869   27.1182 C   0  0  0  0  0  0  0  0  0  0  0  0
    8.6878   -6.6715   27.7262 N   0  0  0  0  0  0  0  0  0  0  0  0
    6.9911   -8.2423   27.1808 C   0  0  0  0  0  0  0  0  0  0  0  0
    3.8436   -7.2758   16.0578 C   0  0  0  0  0  0  0  0  0  0  0  0
    3.1882   -9.7190   17.2566 C   0  0  0  0  0  0  0  0  0  0  0  0
    5.3488   -6.1737   26.5092 C   0  0  0  0  0  0  0  0  0  0  0  0
    7.4567   -6.9464   27.2858 C   0  0  0  0  0  0  0  0  0  0  0  0
    0.1921   -5.7592   27.1123 C   0  0  0  0  0  0  0  0  0  0  0  0
    3.5517   -7.7407   25.9711 C   0  0  0  0  0  0  0  0  0  0  0  0
  1  4  4  0
  1 22  4  0
  2 20  4  0
  2 27  4  0
  3 12  4  0
  3 23  4  0
  4 25  4  0
  4 28  1  0
  5  8  4  0
  5 17  4  0
  6  7  4  0
  6 16  4  0
  7 18  4  0
  8 27  4  0
  9 13  4  0
  9 23  4  0
 10 11  1  0
 11 14  2  0
 11 27  1  0
 12 19  1  0
 12 24  4  0
 13 24  4  0
 15 18  1  0
 16 25  4  0
 16 26  4  0
 17 20  4  0
 17 28  1  0
 18 21  4  0
 21 26  4  0
 22 26  4  0
M  END
$$$$

 Created by Python create_sdf_string function

 28 30  0  0  0  0  0  0  0  0999 V2000
    5.7174   -8.4529   26.7190 C   0  0  0  0  0  0  0  0  0  0  0  0
    0.3974   -7.0711   27.5149 C   0  0  0  0  0  0  0  0  0  0  0  0
    2.5338   -7.6891   16.0102 C   0  0  0  0  0  0  0  0  0  0  0  0
    4.8690   -7.4380   26.4151 C   0  0  0  0  0  0  0  0  0  0  0  0
    2.3021   -5.6726   26.0378 C   0  0  0  0  0  0  0  0  0  0  0  0
    7.0880   -4.6163   27.0010 C   0  0  0  0  0  0  0  0  0  0  0  0
    8.3117   -4.3698   27.4436 C   0  0  0  0  0  0  0  0  0  0  0  0
    1.1339   -5.0515   26.3541 C   0  0  0  0  0  0  0  0  0  0  0  0
    4.8080   -8.0362   16.7101 C   0  0  0  0  0  0  0  0  0  0  0  0
   -1.2173   -3.9294   26.9717 O   0  0  0  0  0  0  0  0  0  0  0  0
   -1.0025   -5.0942   27.4586 C   0  0  0  0  0  0  0  0  0  0  0  0
    2.2474   -8.9123   16.6273 C   0  0  0  0  0  0  0  0  0  0  0  0
    4.4957   -9.2636   17.3041 C   0  0  0  0  0  0  0  0  0  0  0  0
   -1.8070   -5.6086   28.1920 O   0  0  0  0  0  0  0  0  0  0  0  0
   10.4296   -5.1799   28.3140 C   0  0  0  0  0  0  0  0  0  0  0  0
    6.6017   -5.9004   26.9187 C   0  0  0  0  0  0  0  0  0  0  0  0
    2.4761   -6.9940   26.4111 N   0  0  0  0  0  0  0  0  0  0  0  0
    9.1353   -5.4053   27.8239 C   0  0  0  0  0  0  0  0  0  0  0  0
    0.9922   -9.3232   16.5995 O   0  0  0  0  0  0  0  0  0  0  0  0
    1.5232   -7.6869   27.1182 C   0  0  0  0  0  0  0  0  0  0  0  0
    8.6878   -6.6715   27.7262 N   0  0  0  0  0  0  0  0  0  0  0  0
    6.9911   -8.2423   27.1808 C   0  0  0  0  0  0  0  0  0  0  0  0
    3.8436   -7.2758   16.0578 C   0  0  0  0  0  0  0  0  0  0  0  0
    3.1882   -9.7190   17.2566 C   0  0  0  0  0  0  0  0  0  0  0  0
    5.3488   -6.1737   26.5092 C   0  0  0  0  0  0  0  0  0  0  0  0
    7.4567   -6.9464   27.2858 C   0  0  0  0  0  0  0  0  0  0  0  0
    0.1921   -5.7592   27.1123 C   0  0  0  0  0  0  0  0  0  0  0  0
    3.5517   -7.7407   25.9711 C   0  0  0  0  0  0  0  0  0  0  0  0
  1  4  4  0
  1 22  4  0
  2 20  4  0
  2 27  4  0
  3 12  4  0
  3 23  4  0
  4 25  4  0
  4 28  1  0
  5  8  4  0
  5 17  4  0
  6  7  4  0
  6 16  4  0
  7 18  4  0
  8 27  4  0
  9 13  4  0
  9 23  4  0
 10 11  1  0
 11 14  2  0
 11 27  1  0
 12 19  1  0
 12 24  4  0
 13 24  4  0
 15 18  1  0
 16 25  4  0
 16 26  4  0
 17 20  4  0
 17 28  1  0
 18 21  4  0
 21 26  4  0
 22 26  4  0
M  END
$$$$

 Created by Python create_sdf_string function

 28 30  0  0  0  0  0  0  0  0999 V2000
    5.7174   -8.4529   26.7190 C   0  0  0  0  0  0  0  0  0  0  0  0
    0.3974   -7.0711   27.5149 C   0  0  0  0  0  0  0  0  0  0  0  0
    2.5338   -7.6891   16.0102 C   0  0  0  0  0  0  0  0  0  0  0  0
    4.8690   -7.4380   26.4151 C   0  0  0  0  0  0  0  0  0  0  0  0
    2.3021   -5.6726   26.0378 C   0  0  0  0  0  0  0  0  0  0  0  0
    7.0880   -4.6163   27.0010 C   0  0  0  0  0  0  0  0  0  0  0  0
    8.3117   -4.3698   27.4436 C   0  0  0  0  0  0  0  0  0  0  0  0
    1.1339   -5.0515   26.3541 C   0  0  0  0  0  0  0  0  0  0  0  0
    4.8080   -8.0362   16.7101 C   0  0  0  0  0  0  0  0  0  0  0  0
   -1.2173   -3.9294   26.9717 O   0  0  0  0  0  0  0  0  0  0  0  0
   -1.0025   -5.0942   27.4586 C   0  0  0  0  0  0  0  0  0  0  0  0
    2.2474   -8.9123   16.6273 C   0  0  0  0  0  0  0  0  0  0  0  0
    4.4957   -9.2636   17.3041 C   0  0  0  0  0  0  0  0  0  0  0  0
   -1.8070   -5.6086   28.1920 O   0  0  0  0  0  0  0  0  0  0  0  0
   10.4296   -5.1799   28.3140 C   0  0  0  0  0  0  0  0  0  0  0  0
    6.6017   -5.9004   26.9187 C   0  0  0  0  0  0  0  0  0  0  0  0
    2.4761   -6.9940   26.4111 N   0  0  0  0  0  0  0  0  0  0  0  0
    9.1353   -5.4053   27.8239 C   0  0  0  0  0  0  0  0  0  0  0  0
    0.9922   -9.3232   16.5995 O   0  0  0  0  0  0  0  0  0  0  0  0
    1.5232   -7.6869   27.1182 C   0  0  0  0  0  0  0  0  0  0  0  0
    8.6878   -6.6715   27.7262 N   0  0  0  0  0  0  0  0  0  0  0  0
    6.9911   -8.2423   27.1808 C   0  0  0  0  0  0  0  0  0  0  0  0
    3.8436   -7.2758   16.0578 C   0  0  0  0  0  0  0  0  0  0  0  0
    3.1882   -9.7190   17.2566 C   0  0  0  0  0  0  0  0  0  0  0  0
    5.3488   -6.1737   26.5092 C   0  0  0  0  0  0  0  0  0  0  0  0
    7.4567   -6.9464   27.2858 C   0  0  0  0  0  0  0  0  0  0  0  0
    0.1921   -5.7592   27.1123 C   0  0  0  0  0  0  0  0  0  0  0  0
    3.5517   -7.7407   25.9711 C   0  0  0  0  0  0  0  0  0  0  0  0
  1  4  4  0
  1 22  4  0
  2 20  4  0
  2 27  4  0
  3 12  4  0
  3 23  4  0
  4 25  4  0
  4 28  1  0
  5  8  4  0
  5 17  4  0
  6  7  4  0
  6 16  4  0
  7 18  4  0
  8 27  4  0
  9 13  4  0
  9 23  4  0
 10 11  1  0
 11 14  2  0
 11 27  1  0
 12 19  1  0
 12 24  4  0
 13 24  4  0
 15 18  1  0
 16 25  4  0
 16 26  4  0
 17 20  4  0
 17 28  1  0
 18 21  4  0
 21 26  4  0
 22 26  4  0
M  END
$$$$

 Created by Python create_sdf_string function

 28 30  0  0  0  0  0  0  0  0999 V2000
    5.7174   -8.4529   26.7190 C   0  0  0  0  0  0  0  0  0  0  0  0
    0.3974   -7.0711   27.5149 C   0  0  0  0  0  0  0  0  0  0  0  0
    2.5338   -7.6891   16.0102 C   0  0  0  0  0  0  0  0  0  0  0  0
    4.8690   -7.4380   26.4151 C   0  0  0  0  0  0  0  0  0  0  0  0
    2.3021   -5.6726   26.0378 C   0  0  0  0  0  0  0  0  0  0  0  0
    7.0880   -4.6163   27.0010 C   0  0  0  0  0  0  0  0  0  0  0  0
    8.3117   -4.3698   27.4436 C   0  0  0  0  0  0  0  0  0  0  0  0
    1.1339   -5.0515   26.3541 C   0  0  0  0  0  0  0  0  0  0  0  0
    4.8080   -8.0362   16.7101 C   0  0  0  0  0  0  0  0  0  0  0  0
   -1.2173   -3.9294   26.9717 O   0  0  0  0  0  0  0  0  0  0  0  0
   -1.0025   -5.0942   27.4586 C   0  0  0  0  0  0  0  0  0  0  0  0
    2.2474   -8.9123   16.6273 C   0  0  0  0  0  0  0  0  0  0  0  0
    4.4957   -9.2636   17.3041 C   0  0  0  0  0  0  0  0  0  0  0  0
   -1.8070   -5.6086   28.1920 O   0  0  0  0  0  0  0  0  0  0  0  0
   10.4296   -5.1799   28.3140 C   0  0  0  0  0  0  0  0  0  0  0  0
    6.6017   -5.9004   26.9187 C   0  0  0  0  0  0  0  0  0  0  0  0
    2.4761   -6.9940   26.4111 N   0  0  0  0  0  0  0  0  0  0  0  0
    9.1353   -5.4053   27.8239 C   0  0  0  0  0  0  0  0  0  0  0  0
    0.9922   -9.3232   16.5995 O   0  0  0  0  0  0  0  0  0  0  0  0
    1.5232   -7.6869   27.1182 C   0  0  0  0  0  0  0  0  0  0  0  0
    8.6878   -6.6715   27.7262 N   0  0  0  0  0  0  0  0  0  0  0  0
    6.9911   -8.2423   27.1808 C   0  0  0  0  0  0  0  0  0  0  0  0
    3.8436   -7.2758   16.0578 C   0  0  0  0  0  0  0  0  0  0  0  0
    3.1882   -9.7190   17.2566 C   0  0  0  0  0  0  0  0  0  0  0  0
    5.3488   -6.1737   26.5092 C   0  0  0  0  0  0  0  0  0  0  0  0
    7.4567   -6.9464   27.2858 C   0  0  0  0  0  0  0  0  0  0  0  0
    0.1921   -5.7592   27.1123 C   0  0  0  0  0  0  0  0  0  0  0  0
    3.5517   -7.7407   25.9711 C   0  0  0  0  0  0  0  0  0  0  0  0
  1  4  4  0
  1 22  4  0
  2 20  4  0
  2 27  4  0
  3 12  4  0
  3 23  4  0
  4 25  4  0
  4 28  1  0
  5  8  4  0
  5 17  4  0
  6  7  4  0
  6 16  4  0
  7 18  4  0
  8 27  4  0
  9 13  4  0
  9 23  4  0
 10 11  1  0
 11 14  2  0
 11 27  1  0
 12 19  1  0
 12 24  4  0
 13 24  4  0
 15 18  1  0
 16 25  4  0
 16 26  4  0
 17 20  4  0
 17 28  1  0
 18 21  4  0
 21 26  4  0
 22 26  4  0
M  END
$$$$

 Created by Python create_sdf_string function

 28 30  0  0  0  0  0  0  0  0999 V2000
    5.7174   -8.4529   26.7190 C   0  0  0  0  0  0  0  0  0  0  0  0
    0.3974   -7.0711   27.5149 C   0  0  0  0  0  0  0  0  0  0  0  0
    2.5338   -7.6891   16.0102 C   0  0  0  0  0  0  0  0  0  0  0  0
    4.8690   -7.4380   26.4151 C   0  0  0  0  0  0  0  0  0  0  0  0
    2.3021   -5.6726   26.0378 C   0  0  0  0  0  0  0  0  0  0  0  0
    7.0880   -4.6163   27.0010 C   0  0  0  0  0  0  0  0  0  0  0  0
    8.3117   -4.3698   27.4436 C   0  0  0  0  0  0  0  0  0  0  0  0
    1.1339   -5.0515   26.3541 C   0  0  0  0  0  0  0  0  0  0  0  0
    4.8080   -8.0362   16.7101 C   0  0  0  0  0  0  0  0  0  0  0  0
   -1.2173   -3.9294   26.9717 O   0  0  0  0  0  0  0  0  0  0  0  0
   -1.0025   -5.0942   27.4586 C   0  0  0  0  0  0  0  0  0  0  0  0
    2.2474   -8.9123   16.6273 C   0  0  0  0  0  0  0  0  0  0  0  0
    4.4957   -9.2636   17.3041 C   0  0  0  0  0  0  0  0  0  0  0  0
   -1.8070   -5.6086   28.1920 O   0  0  0  0  0  0  0  0  0  0  0  0
   10.4296   -5.1799   28.3140 C   0  0  0  0  0  0  0  0  0  0  0  0
    6.6017   -5.9004   26.9187 C   0  0  0  0  0  0  0  0  0  0  0  0
    2.4761   -6.9940   26.4111 N   0  0  0  0  0  0  0  0  0  0  0  0
    9.1353   -5.4053   27.8239 C   0  0  0  0  0  0  0  0  0  0  0  0
    0.9922   -9.3232   16.5995 O   0  0  0  0  0  0  0  0  0  0  0  0
    1.5232   -7.6869   27.1182 C   0  0  0  0  0  0  0  0  0  0  0  0
    8.6878   -6.6715   27.7262 N   0  0  0  0  0  0  0  0  0  0  0  0
    6.9911   -8.2423   27.1808 C   0  0  0  0  0  0  0  0  0  0  0  0
    3.8436   -7.2758   16.0578 C   0  0  0  0  0  0  0  0  0  0  0  0
    3.1882   -9.7190   17.2566 C   0  0  0  0  0  0  0  0  0  0  0  0
    5.3488   -6.1737   26.5092 C   0  0  0  0  0  0  0  0  0  0  0  0
    7.4567   -6.9464   27.2858 C   0  0  0  0  0  0  0  0  0  0  0  0
    0.1921   -5.7592   27.1123 C   0  0  0  0  0  0  0  0  0  0  0  0
    3.5517   -7.7407   25.9711 C   0  0  0  0  0  0  0  0  0  0  0  0
  1  4  4  0
  1 22  4  0
  2 20  4  0
  2 27  4  0
  3 12  4  0
  3 23  4  0
  4 25  4  0
  4 28  1  0
  5  8  4  0
  5 17  4  0
  6  7  4  0
  6 16  4  0
  7 18  4  0
  8 27  4  0
  9 13  4  0
  9 23  4  0
 10 11  1  0
 11 14  2  0
 11 27  1  0
 12 19  1  0
 12 24  4  0
 13 24  4  0
 15 18  1  0
 16 25  4  0
 16 26  4  0
 17 20  4  0
 17 28  1  0
 18 21  4  0
 21 26  4  0
 22 26  4  0
M  END
$$$$

 Created by Python create_sdf_string function

 28 30  0  0  0  0  0  0  0  0999 V2000
    5.7174   -8.4529   26.7190 C   0  0  0  0  0  0  0  0  0  0  0  0
    0.3974   -7.0711   27.5149 C   0  0  0  0  0  0  0  0  0  0  0  0
    2.5338   -7.6891   16.0102 C   0  0  0  0  0  0  0  0  0  0  0  0
    4.8690   -7.4380   26.4151 C   0  0  0  0  0  0  0  0  0  0  0  0
    2.3021   -5.6726   26.0378 C   0  0  0  0  0  0  0  0  0  0  0  0
    7.0880   -4.6163   27.0010 C   0  0  0  0  0  0  0  0  0  0  0  0
    8.3117   -4.3698   27.4436 C   0  0  0  0  0  0  0  0  0  0  0  0
    1.1339   -5.0515   26.3541 C   0  0  0  0  0  0  0  0  0  0  0  0
    4.8080   -8.0362   16.7101 C   0  0  0  0  0  0  0  0  0  0  0  0
   -1.2173   -3.9294   26.9717 O   0  0  0  0  0  0  0  0  0  0  0  0
   -1.0025   -5.0942   27.4586 C   0  0  0  0  0  0  0  0  0  0  0  0
    2.2474   -8.9123   16.6273 C   0  0  0  0  0  0  0  0  0  0  0  0
    4.4957   -9.2636   17.3041 C   0  0  0  0  0  0  0  0  0  0  0  0
   -1.8070   -5.6086   28.1920 O   0  0  0  0  0  0  0  0  0  0  0  0
   10.4296   -5.1799   28.3140 C   0  0  0  0  0  0  0  0  0  0  0  0
    6.6017   -5.9004   26.9187 C   0  0  0  0  0  0  0  0  0  0  0  0
    2.4761   -6.9940   26.4111 N   0  0  0  0  0  0  0  0  0  0  0  0
    9.1353   -5.4053   27.8239 C   0  0  0  0  0  0  0  0  0  0  0  0
    0.9922   -9.3232   16.5995 O   0  0  0  0  0  0  0  0  0  0  0  0
    1.5232   -7.6869   27.1182 C   0  0  0  0  0  0  0  0  0  0  0  0
    8.6878   -6.6715   27.7262 N   0  0  0  0  0  0  0  0  0  0  0  0
    6.9911   -8.2423   27.1808 C   0  0  0  0  0  0  0  0  0  0  0  0
    3.8436   -7.2758   16.0578 C   0  0  0  0  0  0  0  0  0  0  0  0
    3.1882   -9.7190   17.2566 C   0  0  0  0  0  0  0  0  0  0  0  0
    5.3488   -6.1737   26.5092 C   0  0  0  0  0  0  0  0  0  0  0  0
    7.4567   -6.9464   27.2858 C   0  0  0  0  0  0  0  0  0  0  0  0
    0.1921   -5.7592   27.1123 C   0  0  0  0  0  0  0  0  0  0  0  0
    3.5517   -7.7407   25.9711 C   0  0  0  0  0  0  0  0  0  0  0  0
  1  4  4  0
  1 22  4  0
  2 20  4  0
  2 27  4  0
  3 12  4  0
  3 23  4  0
  4 25  4  0
  4 28  1  0
  5  8  4  0
  5 17  4  0
  6  7  4  0
  6 16  4  0
  7 18  4  0
  8 27  4  0
  9 13  4  0
  9 23  4  0
 10 11  1  0
 11 14  2  0
 11 27  1  0
 12 19  1  0
 12 24  4  0
 13 24  4  0
 15 18  1  0
 16 25  4  0
 16 26  4  0
 17 20  4  0
 17 28  1  0
 18 21  4  0
 21 26  4  0
 22 26  4  0
M  END
$$$$

 Created by Python create_sdf_string function

 28 30  0  0  0  0  0  0  0  0999 V2000
    5.7174   -8.4529   26.7190 C   0  0  0  0  0  0  0  0  0  0  0  0
    0.3974   -7.0711   27.5149 C   0  0  0  0  0  0  0  0  0  0  0  0
    2.5338   -7.6891   16.0102 C   0  0  0  0  0  0  0  0  0  0  0  0
    4.8690   -7.4380   26.4151 C   0  0  0  0  0  0  0  0  0  0  0  0
    2.3021   -5.6726   26.0378 C   0  0  0  0  0  0  0  0  0  0  0  0
    7.0880   -4.6163   27.0010 C   0  0  0  0  0  0  0  0  0  0  0  0
    8.3117   -4.3698   27.4436 C   0  0  0  0  0  0  0  0  0  0  0  0
    1.1339   -5.0515   26.3541 C   0  0  0  0  0  0  0  0  0  0  0  0
    4.8080   -8.0362   16.7101 C   0  0  0  0  0  0  0  0  0  0  0  0
   -1.2173   -3.9294   26.9717 O   0  0  0  0  0  0  0  0  0  0  0  0
   -1.0025   -5.0942   27.4586 C   0  0  0  0  0  0  0  0  0  0  0  0
    2.2474   -8.9123   16.6273 C   0  0  0  0  0  0  0  0  0  0  0  0
    4.4957   -9.2636   17.3041 C   0  0  0  0  0  0  0  0  0  0  0  0
   -1.8070   -5.6086   28.1920 O   0  0  0  0  0  0  0  0  0  0  0  0
   10.4296   -5.1799   28.3140 C   0  0  0  0  0  0  0  0  0  0  0  0
    6.6017   -5.9004   26.9187 C   0  0  0  0  0  0  0  0  0  0  0  0
    2.4761   -6.9940   26.4111 N   0  0  0  0  0  0  0  0  0  0  0  0
    9.1353   -5.4053   27.8239 C   0  0  0  0  0  0  0  0  0  0  0  0
    0.9922   -9.3232   16.5995 O   0  0  0  0  0  0  0  0  0  0  0  0
    1.5232   -7.6869   27.1182 C   0  0  0  0  0  0  0  0  0  0  0  0
    8.6878   -6.6715   27.7262 N   0  0  0  0  0  0  0  0  0  0  0  0
    6.9911   -8.2423   27.1808 C   0  0  0  0  0  0  0  0  0  0  0  0
    3.8436   -7.2758   16.0578 C   0  0  0  0  0  0  0  0  0  0  0  0
    3.1882   -9.7190   17.2566 C   0  0  0  0  0  0  0  0  0  0  0  0
    5.3488   -6.1737   26.5092 C   0  0  0  0  0  0  0  0  0  0  0  0
    7.4567   -6.9464   27.2858 C   0  0  0  0  0  0  0  0  0  0  0  0
    0.1921   -5.7592   27.1123 C   0  0  0  0  0  0  0  0  0  0  0  0
    3.5517   -7.7407   25.9711 C   0  0  0  0  0  0  0  0  0  0  0  0
  1  4  4  0
  1 22  4  0
  2 20  4  0
  2 27  4  0
  3 12  4  0
  3 23  4  0
  4 25  4  0
  4 28  1  0
  5  8  4  0
  5 17  4  0
  6  7  4  0
  6 16  4  0
  7 18  4  0
  8 27  4  0
  9 13  4  0
  9 23  4  0
 10 11  1  0
 11 14  2  0
 11 27  1  0
 12 19  1  0
 12 24  4  0
 13 24  4  0
 15 18  1  0
 16 25  4  0
 16 26  4  0
 17 20  4  0
 17 28  1  0
 18 21  4  0
 21 26  4  0
 22 26  4  0
M  END
$$$$

 Created by Python create_sdf_string function

 28 30  0  0  0  0  0  0  0  0999 V2000
    5.7174   -8.4529   26.7190 C   0  0  0  0  0  0  0  0  0  0  0  0
    0.3974   -7.0711   27.5149 C   0  0  0  0  0  0  0  0  0  0  0  0
    2.5338   -7.6891   16.0102 C   0  0  0  0  0  0  0  0  0  0  0  0
    4.8690   -7.4380   26.4151 C   0  0  0  0  0  0  0  0  0  0  0  0
    2.3021   -5.6726   26.0378 C   0  0  0  0  0  0  0  0  0  0  0  0
    7.0880   -4.6163   27.0010 C   0  0  0  0  0  0  0  0  0  0  0  0
    8.3117   -4.3698   27.4436 C   0  0  0  0  0  0  0  0  0  0  0  0
    1.1339   -5.0515   26.3541 C   0  0  0  0  0  0  0  0  0  0  0  0
    4.8080   -8.0362   16.7101 C   0  0  0  0  0  0  0  0  0  0  0  0
   -1.2173   -3.9294   26.9717 O   0  0  0  0  0  0  0  0  0  0  0  0
   -1.0025   -5.0942   27.4586 C   0  0  0  0  0  0  0  0  0  0  0  0
    2.2474   -8.9123   16.6273 C   0  0  0  0  0  0  0  0  0  0  0  0
    4.4957   -9.2636   17.3041 C   0  0  0  0  0  0  0  0  0  0  0  0
   -1.8070   -5.6086   28.1920 O   0  0  0  0  0  0  0  0  0  0  0  0
   10.4296   -5.1799   28.3140 C   0  0  0  0  0  0  0  0  0  0  0  0
    6.6017   -5.9004   26.9187 C   0  0  0  0  0  0  0  0  0  0  0  0
    2.4761   -6.9940   26.4111 N   0  0  0  0  0  0  0  0  0  0  0  0
    9.1353   -5.4053   27.8239 C   0  0  0  0  0  0  0  0  0  0  0  0
    0.9922   -9.3232   16.5995 O   0  0  0  0  0  0  0  0  0  0  0  0
    1.5232   -7.6869   27.1182 C   0  0  0  0  0  0  0  0  0  0  0  0
    8.6878   -6.6715   27.7262 N   0  0  0  0  0  0  0  0  0  0  0  0
    6.9911   -8.2423   27.1808 C   0  0  0  0  0  0  0  0  0  0  0  0
    3.8436   -7.2758   16.0578 C   0  0  0  0  0  0  0  0  0  0  0  0
    3.1882   -9.7190   17.2566 C   0  0  0  0  0  0  0  0  0  0  0  0
    5.3488   -6.1737   26.5092 C   0  0  0  0  0  0  0  0  0  0  0  0
    7.4567   -6.9464   27.2858 C   0  0  0  0  0  0  0  0  0  0  0  0
    0.1921   -5.7592   27.1123 C   0  0  0  0  0  0  0  0  0  0  0  0
    3.5517   -7.7407   25.9711 C   0  0  0  0  0  0  0  0  0  0  0  0
  1  4  4  0
  1 22  4  0
  2 20  4  0
  2 27  4  0
  3 12  4  0
  3 23  4  0
  4 25  4  0
  4 28  1  0
  5  8  4  0
  5 17  4  0
  6  7  4  0
  6 16  4  0
  7 18  4  0
  8 27  4  0
  9 13  4  0
  9 23  4  0
 10 11  1  0
 11 14  2  0
 11 27  1  0
 12 19  1  0
 12 24  4  0
 13 24  4  0
 15 18  1  0
 16 25  4  0
 16 26  4  0
 17 20  4  0
 17 28  1  0
 18 21  4  0
 21 26  4  0
 22 26  4  0
M  END
$$$$

 Created by Python create_sdf_string function

 28 30  0  0  0  0  0  0  0  0999 V2000
    5.7174   -8.4529   26.7190 C   0  0  0  0  0  0  0  0  0  0  0  0
    0.3974   -7.0711   27.5149 C   0  0  0  0  0  0  0  0  0  0  0  0
    2.5338   -7.6891   16.0102 C   0  0  0  0  0  0  0  0  0  0  0  0
    4.8690   -7.4380   26.4151 C   0  0  0  0  0  0  0  0  0  0  0  0
    2.3021   -5.6726   26.0378 C   0  0  0  0  0  0  0  0  0  0  0  0
    7.0880   -4.6163   27.0010 C   0  0  0  0  0  0  0  0  0  0  0  0
    8.3117   -4.3698   27.4436 C   0  0  0  0  0  0  0  0  0  0  0  0
    1.1339   -5.0515   26.3541 C   0  0  0  0  0  0  0  0  0  0  0  0
    4.8080   -8.0362   16.7101 C   0  0  0  0  0  0  0  0  0  0  0  0
   -1.2173   -3.9294   26.9717 O   0  0  0  0  0  0  0  0  0  0  0  0
   -1.0025   -5.0942   27.4586 C   0  0  0  0  0  0  0  0  0  0  0  0
    2.2474   -8.9123   16.6273 C   0  0  0  0  0  0  0  0  0  0  0  0
    4.4957   -9.2636   17.3041 C   0  0  0  0  0  0  0  0  0  0  0  0
   -1.8070   -5.6086   28.1920 O   0  0  0  0  0  0  0  0  0  0  0  0
   10.4296   -5.1799   28.3140 C   0  0  0  0  0  0  0  0  0  0  0  0
    6.6017   -5.9004   26.9187 C   0  0  0  0  0  0  0  0  0  0  0  0
    2.4761   -6.9940   26.4111 N   0  0  0  0  0  0  0  0  0  0  0  0
    9.1353   -5.4053   27.8239 C   0  0  0  0  0  0  0  0  0  0  0  0
    0.9922   -9.3232   16.5995 O   0  0  0  0  0  0  0  0  0  0  0  0
    1.5232   -7.6869   27.1182 C   0  0  0  0  0  0  0  0  0  0  0  0
    8.6878   -6.6715   27.7262 N   0  0  0  0  0  0  0  0  0  0  0  0
    6.9911   -8.2423   27.1808 C   0  0  0  0  0  0  0  0  0  0  0  0
    3.8436   -7.2758   16.0578 C   0  0  0  0  0  0  0  0  0  0  0  0
    3.1882   -9.7190   17.2566 C   0  0  0  0  0  0  0  0  0  0  0  0
    5.3488   -6.1737   26.5092 C   0  0  0  0  0  0  0  0  0  0  0  0
    7.4567   -6.9464   27.2858 C   0  0  0  0  0  0  0  0  0  0  0  0
    0.1921   -5.7592   27.1123 C   0  0  0  0  0  0  0  0  0  0  0  0
    3.5517   -7.7407   25.9711 C   0  0  0  0  0  0  0  0  0  0  0  0
  1  4  4  0
  1 22  4  0
  2 20  4  0
  2 27  4  0
  3 12  4  0
  3 23  4  0
  4 25  4  0
  4 28  1  0
  5  8  4  0
  5 17  4  0
  6  7  4  0
  6 16  4  0
  7 18  4  0
  8 27  4  0
  9 13  4  0
  9 23  4  0
 10 11  1  0
 11 14  2  0
 11 27  1  0
 12 19  1  0
 12 24  4  0
 13 24  4  0
 15 18  1  0
 16 25  4  0
 16 26  4  0
 17 20  4  0
 17 28  1  0
 18 21  4  0
 21 26  4  0
 22 26  4  0
M  END
$$$$

 Created by Python create_sdf_string function

 28 30  0  0  0  0  0  0  0  0999 V2000
    5.7174   -8.4529   26.7190 C   0  0  0  0  0  0  0  0  0  0  0  0
    0.3974   -7.0711   27.5149 C   0  0  0  0  0  0  0  0  0  0  0  0
    2.5338   -7.6891   16.0102 C   0  0  0  0  0  0  0  0  0  0  0  0
    4.8690   -7.4380   26.4151 C   0  0  0  0  0  0  0  0  0  0  0  0
    2.3021   -5.6726   26.0378 C   0  0  0  0  0  0  0  0  0  0  0  0
    7.0880   -4.6163   27.0010 C   0  0  0  0  0  0  0  0  0  0  0  0
    8.3117   -4.3698   27.4436 C   0  0  0  0  0  0  0  0  0  0  0  0
    1.1339   -5.0515   26.3541 C   0  0  0  0  0  0  0  0  0  0  0  0
    4.8080   -8.0362   16.7101 C   0  0  0  0  0  0  0  0  0  0  0  0
   -1.2173   -3.9294   26.9717 O   0  0  0  0  0  0  0  0  0  0  0  0
   -1.0025   -5.0942   27.4586 C   0  0  0  0  0  0  0  0  0  0  0  0
    2.2474   -8.9123   16.6273 C   0  0  0  0  0  0  0  0  0  0  0  0
    4.4957   -9.2636   17.3041 C   0  0  0  0  0  0  0  0  0  0  0  0
   -1.8070   -5.6086   28.1920 O   0  0  0  0  0  0  0  0  0  0  0  0
   10.4296   -5.1799   28.3140 C   0  0  0  0  0  0  0  0  0  0  0  0
    6.6017   -5.9004   26.9187 C   0  0  0  0  0  0  0  0  0  0  0  0
    2.4761   -6.9940   26.4111 N   0  0  0  0  0  0  0  0  0  0  0  0
    9.1353   -5.4053   27.8239 C   0  0  0  0  0  0  0  0  0  0  0  0
    0.9922   -9.3232   16.5995 O   0  0  0  0  0  0  0  0  0  0  0  0
    1.5232   -7.6869   27.1182 C   0  0  0  0  0  0  0  0  0  0  0  0
    8.6878   -6.6715   27.7262 N   0  0  0  0  0  0  0  0  0  0  0  0
    6.9911   -8.2423   27.1808 C   0  0  0  0  0  0  0  0  0  0  0  0
    3.8436   -7.2758   16.0578 C   0  0  0  0  0  0  0  0  0  0  0  0
    3.1882   -9.7190   17.2566 C   0  0  0  0  0  0  0  0  0  0  0  0
    5.3488   -6.1737   26.5092 C   0  0  0  0  0  0  0  0  0  0  0  0
    7.4567   -6.9464   27.2858 C   0  0  0  0  0  0  0  0  0  0  0  0
    0.1921   -5.7592   27.1123 C   0  0  0  0  0  0  0  0  0  0  0  0
    3.5517   -7.7407   25.9711 C   0  0  0  0  0  0  0  0  0  0  0  0
  1  4  4  0
  1 22  4  0
  2 20  4  0
  2 27  4  0
  3 12  4  0
  3 23  4  0
  4 25  4  0
  4 28  1  0
  5  8  4  0
  5 17  4  0
  6  7  4  0
  6 16  4  0
  7 18  4  0
  8 27  4  0
  9 13  4  0
  9 23  4  0
 10 11  1  0
 11 14  2  0
 11 27  1  0
 12 19  1  0
 12 24  4  0
 13 24  4  0
 15 18  1  0
 16 25  4  0
 16 26  4  0
 17 20  4  0
 17 28  1  0
 18 21  4  0
 21 26  4  0
 22 26  4  0
M  END
$$$$

 Created by Python create_sdf_string function

 28 30  0  0  0  0  0  0  0  0999 V2000
    5.7174   -8.4529   26.7190 C   0  0  0  0  0  0  0  0  0  0  0  0
    0.3974   -7.0711   27.5149 C   0  0  0  0  0  0  0  0  0  0  0  0
    2.5338   -7.6891   16.0102 C   0  0  0  0  0  0  0  0  0  0  0  0
    4.8690   -7.4380   26.4151 C   0  0  0  0  0  0  0  0  0  0  0  0
    2.3021   -5.6726   26.0378 C   0  0  0  0  0  0  0  0  0  0  0  0
    7.0880   -4.6163   27.0010 C   0  0  0  0  0  0  0  0  0  0  0  0
    8.3117   -4.3698   27.4436 C   0  0  0  0  0  0  0  0  0  0  0  0
    1.1339   -5.0515   26.3541 C   0  0  0  0  0  0  0  0  0  0  0  0
    4.8080   -8.0362   16.7101 C   0  0  0  0  0  0  0  0  0  0  0  0
   -1.2173   -3.9294   26.9717 O   0  0  0  0  0  0  0  0  0  0  0  0
   -1.0025   -5.0942   27.4586 C   0  0  0  0  0  0  0  0  0  0  0  0
    2.2474   -8.9123   16.6273 C   0  0  0  0  0  0  0  0  0  0  0  0
    4.4957   -9.2636   17.3041 C   0  0  0  0  0  0  0  0  0  0  0  0
   -1.8070   -5.6086   28.1920 O   0  0  0  0  0  0  0  0  0  0  0  0
   10.4296   -5.1799   28.3140 C   0  0  0  0  0  0  0  0  0  0  0  0
    6.6017   -5.9004   26.9187 C   0  0  0  0  0  0  0  0  0  0  0  0
    2.4761   -6.9940   26.4111 N   0  0  0  0  0  0  0  0  0  0  0  0
    9.1353   -5.4053   27.8239 C   0  0  0  0  0  0  0  0  0  0  0  0
    0.9922   -9.3232   16.5995 O   0  0  0  0  0  0  0  0  0  0  0  0
    1.5232   -7.6869   27.1182 C   0  0  0  0  0  0  0  0  0  0  0  0
    8.6878   -6.6715   27.7262 N   0  0  0  0  0  0  0  0  0  0  0  0
    6.9911   -8.2423   27.1808 C   0  0  0  0  0  0  0  0  0  0  0  0
    3.8436   -7.2758   16.0578 C   0  0  0  0  0  0  0  0  0  0  0  0
    3.1882   -9.7190   17.2566 C   0  0  0  0  0  0  0  0  0  0  0  0
    5.3488   -6.1737   26.5092 C   0  0  0  0  0  0  0  0  0  0  0  0
    7.4567   -6.9464   27.2858 C   0  0  0  0  0  0  0  0  0  0  0  0
    0.1921   -5.7592   27.1123 C   0  0  0  0  0  0  0  0  0  0  0  0
    3.5517   -7.7407   25.9711 C   0  0  0  0  0  0  0  0  0  0  0  0
  1  4  4  0
  1 22  4  0
  2 20  4  0
  2 27  4  0
  3 12  4  0
  3 23  4  0
  4 25  4  0
  4 28  1  0
  5  8  4  0
  5 17  4  0
  6  7  4  0
  6 16  4  0
  7 18  4  0
  8 27  4  0
  9 13  4  0
  9 23  4  0
 10 11  1  0
 11 14  2  0
 11 27  1  0
 12 19  1  0
 12 24  4  0
 13 24  4  0
 15 18  1  0
 16 25  4  0
 16 26  4  0
 17 20  4  0
 17 28  1  0
 18 21  4  0
 21 26  4  0
 22 26  4  0
M  END
$$$$

 Created by Python create_sdf_string function

 28 30  0  0  0  0  0  0  0  0999 V2000
    5.7174   -8.4529   26.7190 C   0  0  0  0  0  0  0  0  0  0  0  0
    0.3974   -7.0711   27.5149 C   0  0  0  0  0  0  0  0  0  0  0  0
    2.5338   -7.6891   16.0102 C   0  0  0  0  0  0  0  0  0  0  0  0
    4.8690   -7.4380   26.4151 C   0  0  0  0  0  0  0  0  0  0  0  0
    2.3021   -5.6726   26.0378 C   0  0  0  0  0  0  0  0  0  0  0  0
    7.0880   -4.6163   27.0010 C   0  0  0  0  0  0  0  0  0  0  0  0
    8.3117   -4.3698   27.4436 C   0  0  0  0  0  0  0  0  0  0  0  0
    1.1339   -5.0515   26.3541 C   0  0  0  0  0  0  0  0  0  0  0  0
    4.8080   -8.0362   16.7101 C   0  0  0  0  0  0  0  0  0  0  0  0
   -1.2173   -3.9294   26.9717 O   0  0  0  0  0  0  0  0  0  0  0  0
   -1.0025   -5.0942   27.4586 C   0  0  0  0  0  0  0  0  0  0  0  0
    2.2474   -8.9123   16.6273 C   0  0  0  0  0  0  0  0  0  0  0  0
    4.4957   -9.2636   17.3041 C   0  0  0  0  0  0  0  0  0  0  0  0
   -1.8070   -5.6086   28.1920 O   0  0  0  0  0  0  0  0  0  0  0  0
   10.4296   -5.1799   28.3140 C   0  0  0  0  0  0  0  0  0  0  0  0
    6.6017   -5.9004   26.9187 C   0  0  0  0  0  0  0  0  0  0  0  0
    2.4761   -6.9940   26.4111 N   0  0  0  0  0  0  0  0  0  0  0  0
    9.1353   -5.4053   27.8239 C   0  0  0  0  0  0  0  0  0  0  0  0
    0.9922   -9.3232   16.5995 O   0  0  0  0  0  0  0  0  0  0  0  0
    1.5232   -7.6869   27.1182 C   0  0  0  0  0  0  0  0  0  0  0  0
    8.6878   -6.6715   27.7262 N   0  0  0  0  0  0  0  0  0  0  0  0
    6.9911   -8.2423   27.1808 C   0  0  0  0  0  0  0  0  0  0  0  0
    3.8436   -7.2758   16.0578 C   0  0  0  0  0  0  0  0  0  0  0  0
    3.1882   -9.7190   17.2566 C   0  0  0  0  0  0  0  0  0  0  0  0
    5.3488   -6.1737   26.5092 C   0  0  0  0  0  0  0  0  0  0  0  0
    7.4567   -6.9464   27.2858 C   0  0  0  0  0  0  0  0  0  0  0  0
    0.1921   -5.7592   27.1123 C   0  0  0  0  0  0  0  0  0  0  0  0
    3.5517   -7.7407   25.9711 C   0  0  0  0  0  0  0  0  0  0  0  0
  1  4  4  0
  1 22  4  0
  2 20  4  0
  2 27  4  0
  3 12  4  0
  3 23  4  0
  4 25  4  0
  4 28  1  0
  5  8  4  0
  5 17  4  0
  6  7  4  0
  6 16  4  0
  7 18  4  0
  8 27  4  0
  9 13  4  0
  9 23  4  0
 10 11  1  0
 11 14  2  0
 11 27  1  0
 12 19  1  0
 12 24  4  0
 13 24  4  0
 15 18  1  0
 16 25  4  0
 16 26  4  0
 17 20  4  0
 17 28  1  0
 18 21  4  0
 21 26  4  0
 22 26  4  0
M  END
$$$$

 Created by Python create_sdf_string function

 28 30  0  0  0  0  0  0  0  0999 V2000
    5.7174   -8.4529   26.7190 C   0  0  0  0  0  0  0  0  0  0  0  0
    0.3974   -7.0711   27.5149 C   0  0  0  0  0  0  0  0  0  0  0  0
    2.5338   -7.6891   16.0102 C   0  0  0  0  0  0  0  0  0  0  0  0
    4.8690   -7.4380   26.4151 C   0  0  0  0  0  0  0  0  0  0  0  0
    2.3021   -5.6726   26.0378 C   0  0  0  0  0  0  0  0  0  0  0  0
    7.0880   -4.6163   27.0010 C   0  0  0  0  0  0  0  0  0  0  0  0
    8.3117   -4.3698   27.4436 C   0  0  0  0  0  0  0  0  0  0  0  0
    1.1339   -5.0515   26.3541 C   0  0  0  0  0  0  0  0  0  0  0  0
    4.8080   -8.0362   16.7101 C   0  0  0  0  0  0  0  0  0  0  0  0
   -1.2173   -3.9294   26.9717 O   0  0  0  0  0  0  0  0  0  0  0  0
   -1.0025   -5.0942   27.4586 C   0  0  0  0  0  0  0  0  0  0  0  0
    2.2474   -8.9123   16.6273 C   0  0  0  0  0  0  0  0  0  0  0  0
    4.4957   -9.2636   17.3041 C   0  0  0  0  0  0  0  0  0  0  0  0
   -1.8070   -5.6086   28.1920 O   0  0  0  0  0  0  0  0  0  0  0  0
   10.4296   -5.1799   28.3140 C   0  0  0  0  0  0  0  0  0  0  0  0
    6.6017   -5.9004   26.9187 C   0  0  0  0  0  0  0  0  0  0  0  0
    2.4761   -6.9940   26.4111 N   0  0  0  0  0  0  0  0  0  0  0  0
    9.1353   -5.4053   27.8239 C   0  0  0  0  0  0  0  0  0  0  0  0
    0.9922   -9.3232   16.5995 O   0  0  0  0  0  0  0  0  0  0  0  0
    1.5232   -7.6869   27.1182 C   0  0  0  0  0  0  0  0  0  0  0  0
    8.6878   -6.6715   27.7262 N   0  0  0  0  0  0  0  0  0  0  0  0
    6.9911   -8.2423   27.1808 C   0  0  0  0  0  0  0  0  0  0  0  0
    3.8436   -7.2758   16.0578 C   0  0  0  0  0  0  0  0  0  0  0  0
    3.1882   -9.7190   17.2566 C   0  0  0  0  0  0  0  0  0  0  0  0
    5.3488   -6.1737   26.5092 C   0  0  0  0  0  0  0  0  0  0  0  0
    7.4567   -6.9464   27.2858 C   0  0  0  0  0  0  0  0  0  0  0  0
    0.1921   -5.7592   27.1123 C   0  0  0  0  0  0  0  0  0  0  0  0
    3.5517   -7.7407   25.9711 C   0  0  0  0  0  0  0  0  0  0  0  0
  1  4  4  0
  1 22  4  0
  2 20  4  0
  2 27  4  0
  3 12  4  0
  3 23  4  0
  4 25  4  0
  4 28  1  0
  5  8  4  0
  5 17  4  0
  6  7  4  0
  6 16  4  0
  7 18  4  0
  8 27  4  0
  9 13  4  0
  9 23  4  0
 10 11  1  0
 11 14  2  0
 11 27  1  0
 12 19  1  0
 12 24  4  0
 13 24  4  0
 15 18  1  0
 16 25  4  0
 16 26  4  0
 17 20  4  0
 17 28  1  0
 18 21  4  0
 21 26  4  0
 22 26  4  0
M  END
$$$$

 Created by Python create_sdf_string function

 28 30  0  0  0  0  0  0  0  0999 V2000
    5.7174   -8.4529   26.7190 C   0  0  0  0  0  0  0  0  0  0  0  0
    0.3974   -7.0711   27.5149 C   0  0  0  0  0  0  0  0  0  0  0  0
    2.5338   -7.6891   16.0102 C   0  0  0  0  0  0  0  0  0  0  0  0
    4.8690   -7.4380   26.4151 C   0  0  0  0  0  0  0  0  0  0  0  0
    2.3021   -5.6726   26.0378 C   0  0  0  0  0  0  0  0  0  0  0  0
    7.0880   -4.6163   27.0010 C   0  0  0  0  0  0  0  0  0  0  0  0
    8.3117   -4.3698   27.4436 C   0  0  0  0  0  0  0  0  0  0  0  0
    1.1339   -5.0515   26.3541 C   0  0  0  0  0  0  0  0  0  0  0  0
    4.8080   -8.0362   16.7101 C   0  0  0  0  0  0  0  0  0  0  0  0
   -1.2173   -3.9294   26.9717 O   0  0  0  0  0  0  0  0  0  0  0  0
   -1.0025   -5.0942   27.4586 C   0  0  0  0  0  0  0  0  0  0  0  0
    2.2474   -8.9123   16.6273 C   0  0  0  0  0  0  0  0  0  0  0  0
    4.4957   -9.2636   17.3041 C   0  0  0  0  0  0  0  0  0  0  0  0
   -1.8070   -5.6086   28.1920 O   0  0  0  0  0  0  0  0  0  0  0  0
   10.4296   -5.1799   28.3140 C   0  0  0  0  0  0  0  0  0  0  0  0
    6.6017   -5.9004   26.9187 C   0  0  0  0  0  0  0  0  0  0  0  0
    2.4761   -6.9940   26.4111 N   0  0  0  0  0  0  0  0  0  0  0  0
    9.1353   -5.4053   27.8239 C   0  0  0  0  0  0  0  0  0  0  0  0
    0.9922   -9.3232   16.5995 O   0  0  0  0  0  0  0  0  0  0  0  0
    1.5232   -7.6869   27.1182 C   0  0  0  0  0  0  0  0  0  0  0  0
    8.6878   -6.6715   27.7262 N   0  0  0  0  0  0  0  0  0  0  0  0
    6.9911   -8.2423   27.1808 C   0  0  0  0  0  0  0  0  0  0  0  0
    3.8436   -7.2758   16.0578 C   0  0  0  0  0  0  0  0  0  0  0  0
    3.1882   -9.7190   17.2566 C   0  0  0  0  0  0  0  0  0  0  0  0
    5.3488   -6.1737   26.5092 C   0  0  0  0  0  0  0  0  0  0  0  0
    7.4567   -6.9464   27.2858 C   0  0  0  0  0  0  0  0  0  0  0  0
    0.1921   -5.7592   27.1123 C   0  0  0  0  0  0  0  0  0  0  0  0
    3.5517   -7.7407   25.9711 C   0  0  0  0  0  0  0  0  0  0  0  0
  1  4  4  0
  1 22  4  0
  2 20  4  0
  2 27  4  0
  3 12  4  0
  3 23  4  0
  4 25  4  0
  4 28  1  0
  5  8  4  0
  5 17  4  0
  6  7  4  0
  6 16  4  0
  7 18  4  0
  8 27  4  0
  9 13  4  0
  9 23  4  0
 10 11  1  0
 11 14  2  0
 11 27  1  0
 12 19  1  0
 12 24  4  0
 13 24  4  0
 15 18  1  0
 16 25  4  0
 16 26  4  0
 17 20  4  0
 17 28  1  0
 18 21  4  0
 21 26  4  0
 22 26  4  0
M  END
$$$$

 Created by Python create_sdf_string function

 28 30  0  0  0  0  0  0  0  0999 V2000
    5.7174   -8.4529   26.7190 C   0  0  0  0  0  0  0  0  0  0  0  0
    0.3974   -7.0711   27.5149 C   0  0  0  0  0  0  0  0  0  0  0  0
    2.5338   -7.6891   16.0102 C   0  0  0  0  0  0  0  0  0  0  0  0
    4.8690   -7.4380   26.4151 C   0  0  0  0  0  0  0  0  0  0  0  0
    2.3021   -5.6726   26.0378 C   0  0  0  0  0  0  0  0  0  0  0  0
    7.0880   -4.6163   27.0010 C   0  0  0  0  0  0  0  0  0  0  0  0
    8.3117   -4.3698   27.4436 C   0  0  0  0  0  0  0  0  0  0  0  0
    1.1339   -5.0515   26.3541 C   0  0  0  0  0  0  0  0  0  0  0  0
    4.8080   -8.0362   16.7101 C   0  0  0  0  0  0  0  0  0  0  0  0
   -1.2173   -3.9294   26.9717 O   0  0  0  0  0  0  0  0  0  0  0  0
   -1.0025   -5.0942   27.4586 C   0  0  0  0  0  0  0  0  0  0  0  0
    2.2474   -8.9123   16.6273 C   0  0  0  0  0  0  0  0  0  0  0  0
    4.4957   -9.2636   17.3041 C   0  0  0  0  0  0  0  0  0  0  0  0
   -1.8070   -5.6086   28.1920 O   0  0  0  0  0  0  0  0  0  0  0  0
   10.4296   -5.1799   28.3140 C   0  0  0  0  0  0  0  0  0  0  0  0
    6.6017   -5.9004   26.9187 C   0  0  0  0  0  0  0  0  0  0  0  0
    2.4761   -6.9940   26.4111 N   0  0  0  0  0  0  0  0  0  0  0  0
    9.1353   -5.4053   27.8239 C   0  0  0  0  0  0  0  0  0  0  0  0
    0.9922   -9.3232   16.5995 O   0  0  0  0  0  0  0  0  0  0  0  0
    1.5232   -7.6869   27.1182 C   0  0  0  0  0  0  0  0  0  0  0  0
    8.6878   -6.6715   27.7262 N   0  0  0  0  0  0  0  0  0  0  0  0
    6.9911   -8.2423   27.1808 C   0  0  0  0  0  0  0  0  0  0  0  0
    3.8436   -7.2758   16.0578 C   0  0  0  0  0  0  0  0  0  0  0  0
    3.1882   -9.7190   17.2566 C   0  0  0  0  0  0  0  0  0  0  0  0
    5.3488   -6.1737   26.5092 C   0  0  0  0  0  0  0  0  0  0  0  0
    7.4567   -6.9464   27.2858 C   0  0  0  0  0  0  0  0  0  0  0  0
    0.1921   -5.7592   27.1123 C   0  0  0  0  0  0  0  0  0  0  0  0
    3.5517   -7.7407   25.9711 C   0  0  0  0  0  0  0  0  0  0  0  0
  1  4  4  0
  1 22  4  0
  2 20  4  0
  2 27  4  0
  3 12  4  0
  3 23  4  0
  4 25  4  0
  4 28  1  0
  5  8  4  0
  5 17  4  0
  6  7  4  0
  6 16  4  0
  7 18  4  0
  8 27  4  0
  9 13  4  0
  9 23  4  0
 10 11  1  0
 11 14  2  0
 11 27  1  0
 12 19  1  0
 12 24  4  0
 13 24  4  0
 15 18  1  0
 16 25  4  0
 16 26  4  0
 17 20  4  0
 17 28  1  0
 18 21  4  0
 21 26  4  0
 22 26  4  0
M  END
$$$$

 Created by Python create_sdf_string function

 28 30  0  0  0  0  0  0  0  0999 V2000
    5.7174   -8.4529   26.7190 C   0  0  0  0  0  0  0  0  0  0  0  0
    0.3974   -7.0711   27.5149 C   0  0  0  0  0  0  0  0  0  0  0  0
    2.5338   -7.6891   16.0102 C   0  0  0  0  0  0  0  0  0  0  0  0
    4.8690   -7.4380   26.4151 C   0  0  0  0  0  0  0  0  0  0  0  0
    2.3021   -5.6726   26.0378 C   0  0  0  0  0  0  0  0  0  0  0  0
    7.0880   -4.6163   27.0010 C   0  0  0  0  0  0  0  0  0  0  0  0
    8.3117   -4.3698   27.4436 C   0  0  0  0  0  0  0  0  0  0  0  0
    1.1339   -5.0515   26.3541 C   0  0  0  0  0  0  0  0  0  0  0  0
    4.8080   -8.0362   16.7101 C   0  0  0  0  0  0  0  0  0  0  0  0
   -1.2173   -3.9294   26.9717 O   0  0  0  0  0  0  0  0  0  0  0  0
   -1.0025   -5.0942   27.4586 C   0  0  0  0  0  0  0  0  0  0  0  0
    2.2474   -8.9123   16.6273 C   0  0  0  0  0  0  0  0  0  0  0  0
    4.4957   -9.2636   17.3041 C   0  0  0  0  0  0  0  0  0  0  0  0
   -1.8070   -5.6086   28.1920 O   0  0  0  0  0  0  0  0  0  0  0  0
   10.4296   -5.1799   28.3140 C   0  0  0  0  0  0  0  0  0  0  0  0
    6.6017   -5.9004   26.9187 C   0  0  0  0  0  0  0  0  0  0  0  0
    2.4761   -6.9940   26.4111 N   0  0  0  0  0  0  0  0  0  0  0  0
    9.1353   -5.4053   27.8239 C   0  0  0  0  0  0  0  0  0  0  0  0
    0.9922   -9.3232   16.5995 O   0  0  0  0  0  0  0  0  0  0  0  0
    1.5232   -7.6869   27.1182 C   0  0  0  0  0  0  0  0  0  0  0  0
    8.6878   -6.6715   27.7262 N   0  0  0  0  0  0  0  0  0  0  0  0
    6.9911   -8.2423   27.1808 C   0  0  0  0  0  0  0  0  0  0  0  0
    3.8436   -7.2758   16.0578 C   0  0  0  0  0  0  0  0  0  0  0  0
    3.1882   -9.7190   17.2566 C   0  0  0  0  0  0  0  0  0  0  0  0
    5.3488   -6.1737   26.5092 C   0  0  0  0  0  0  0  0  0  0  0  0
    7.4567   -6.9464   27.2858 C   0  0  0  0  0  0  0  0  0  0  0  0
    0.1921   -5.7592   27.1123 C   0  0  0  0  0  0  0  0  0  0  0  0
    3.5517   -7.7407   25.9711 C   0  0  0  0  0  0  0  0  0  0  0  0
  1  4  4  0
  1 22  4  0
  2 20  4  0
  2 27  4  0
  3 12  4  0
  3 23  4  0
  4 25  4  0
  4 28  1  0
  5  8  4  0
  5 17  4  0
  6  7  4  0
  6 16  4  0
  7 18  4  0
  8 27  4  0
  9 13  4  0
  9 23  4  0
 10 11  1  0
 11 14  2  0
 11 27  1  0
 12 19  1  0
 12 24  4  0
 13 24  4  0
 15 18  1  0
 16 25  4  0
 16 26  4  0
 17 20  4  0
 17 28  1  0
 18 21  4  0
 21 26  4  0
 22 26  4  0
M  END
$$$$

 Created by Python create_sdf_string function

 28 30  0  0  0  0  0  0  0  0999 V2000
    5.7174   -8.4529   26.7190 C   0  0  0  0  0  0  0  0  0  0  0  0
    0.3974   -7.0711   27.5149 C   0  0  0  0  0  0  0  0  0  0  0  0
    2.5338   -7.6891   16.0102 C   0  0  0  0  0  0  0  0  0  0  0  0
    4.8690   -7.4380   26.4151 C   0  0  0  0  0  0  0  0  0  0  0  0
    2.3021   -5.6726   26.0378 C   0  0  0  0  0  0  0  0  0  0  0  0
    7.0880   -4.6163   27.0010 C   0  0  0  0  0  0  0  0  0  0  0  0
    8.3117   -4.3698   27.4436 C   0  0  0  0  0  0  0  0  0  0  0  0
    1.1339   -5.0515   26.3541 C   0  0  0  0  0  0  0  0  0  0  0  0
    4.8080   -8.0362   16.7101 C   0  0  0  0  0  0  0  0  0  0  0  0
   -1.2173   -3.9294   26.9717 O   0  0  0  0  0  0  0  0  0  0  0  0
   -1.0025   -5.0942   27.4586 C   0  0  0  0  0  0  0  0  0  0  0  0
    2.2474   -8.9123   16.6273 C   0  0  0  0  0  0  0  0  0  0  0  0
    4.4957   -9.2636   17.3041 C   0  0  0  0  0  0  0  0  0  0  0  0
   -1.8070   -5.6086   28.1920 O   0  0  0  0  0  0  0  0  0  0  0  0
   10.4296   -5.1799   28.3140 C   0  0  0  0  0  0  0  0  0  0  0  0
    6.6017   -5.9004   26.9187 C   0  0  0  0  0  0  0  0  0  0  0  0
    2.4761   -6.9940   26.4111 N   0  0  0  0  0  0  0  0  0  0  0  0
    9.1353   -5.4053   27.8239 C   0  0  0  0  0  0  0  0  0  0  0  0
    0.9922   -9.3232   16.5995 O   0  0  0  0  0  0  0  0  0  0  0  0
    1.5232   -7.6869   27.1182 C   0  0  0  0  0  0  0  0  0  0  0  0
    8.6878   -6.6715   27.7262 N   0  0  0  0  0  0  0  0  0  0  0  0
    6.9911   -8.2423   27.1808 C   0  0  0  0  0  0  0  0  0  0  0  0
    3.8436   -7.2758   16.0578 C   0  0  0  0  0  0  0  0  0  0  0  0
    3.1882   -9.7190   17.2566 C   0  0  0  0  0  0  0  0  0  0  0  0
    5.3488   -6.1737   26.5092 C   0  0  0  0  0  0  0  0  0  0  0  0
    7.4567   -6.9464   27.2858 C   0  0  0  0  0  0  0  0  0  0  0  0
    0.1921   -5.7592   27.1123 C   0  0  0  0  0  0  0  0  0  0  0  0
    3.5517   -7.7407   25.9711 C   0  0  0  0  0  0  0  0  0  0  0  0
  1  4  4  0
  1 22  4  0
  2 20  4  0
  2 27  4  0
  3 12  4  0
  3 23  4  0
  4 25  4  0
  4 28  1  0
  5  8  4  0
  5 17  4  0
  6  7  4  0
  6 16  4  0
  7 18  4  0
  8 27  4  0
  9 13  4  0
  9 23  4  0
 10 11  1  0
 11 14  2  0
 11 27  1  0
 12 19  1  0
 12 24  4  0
 13 24  4  0
 15 18  1  0
 16 25  4  0
 16 26  4  0
 17 20  4  0
 17 28  1  0
 18 21  4  0
 21 26  4  0
 22 26  4  0
M  END
$$$$

 Created by Python create_sdf_string function

 28 30  0  0  0  0  0  0  0  0999 V2000
    5.7174   -8.4529   26.7190 C   0  0  0  0  0  0  0  0  0  0  0  0
    0.3974   -7.0711   27.5149 C   0  0  0  0  0  0  0  0  0  0  0  0
    2.5338   -7.6891   16.0102 C   0  0  0  0  0  0  0  0  0  0  0  0
    4.8690   -7.4380   26.4151 C   0  0  0  0  0  0  0  0  0  0  0  0
    2.3021   -5.6726   26.0378 C   0  0  0  0  0  0  0  0  0  0  0  0
    7.0880   -4.6163   27.0010 C   0  0  0  0  0  0  0  0  0  0  0  0
    8.3117   -4.3698   27.4436 C   0  0  0  0  0  0  0  0  0  0  0  0
    1.1339   -5.0515   26.3541 C   0  0  0  0  0  0  0  0  0  0  0  0
    4.8080   -8.0362   16.7101 C   0  0  0  0  0  0  0  0  0  0  0  0
   -1.2173   -3.9294   26.9717 O   0  0  0  0  0  0  0  0  0  0  0  0
   -1.0025   -5.0942   27.4586 C   0  0  0  0  0  0  0  0  0  0  0  0
    2.2474   -8.9123   16.6273 C   0  0  0  0  0  0  0  0  0  0  0  0
    4.4957   -9.2636   17.3041 C   0  0  0  0  0  0  0  0  0  0  0  0
   -1.8070   -5.6086   28.1920 O   0  0  0  0  0  0  0  0  0  0  0  0
   10.4296   -5.1799   28.3140 C   0  0  0  0  0  0  0  0  0  0  0  0
    6.6017   -5.9004   26.9187 C   0  0  0  0  0  0  0  0  0  0  0  0
    2.4761   -6.9940   26.4111 N   0  0  0  0  0  0  0  0  0  0  0  0
    9.1353   -5.4053   27.8239 C   0  0  0  0  0  0  0  0  0  0  0  0
    0.9922   -9.3232   16.5995 O   0  0  0  0  0  0  0  0  0  0  0  0
    1.5232   -7.6869   27.1182 C   0  0  0  0  0  0  0  0  0  0  0  0
    8.6878   -6.6715   27.7262 N   0  0  0  0  0  0  0  0  0  0  0  0
    6.9911   -8.2423   27.1808 C   0  0  0  0  0  0  0  0  0  0  0  0
    3.8436   -7.2758   16.0578 C   0  0  0  0  0  0  0  0  0  0  0  0
    3.1882   -9.7190   17.2566 C   0  0  0  0  0  0  0  0  0  0  0  0
    5.3488   -6.1737   26.5092 C   0  0  0  0  0  0  0  0  0  0  0  0
    7.4567   -6.9464   27.2858 C   0  0  0  0  0  0  0  0  0  0  0  0
    0.1921   -5.7592   27.1123 C   0  0  0  0  0  0  0  0  0  0  0  0
    3.5517   -7.7407   25.9711 C   0  0  0  0  0  0  0  0  0  0  0  0
  1  4  4  0
  1 22  4  0
  2 20  4  0
  2 27  4  0
  3 12  4  0
  3 23  4  0
  4 25  4  0
  4 28  1  0
  5  8  4  0
  5 17  4  0
  6  7  4  0
  6 16  4  0
  7 18  4  0
  8 27  4  0
  9 13  4  0
  9 23  4  0
 10 11  1  0
 11 14  2  0
 11 27  1  0
 12 19  1  0
 12 24  4  0
 13 24  4  0
 15 18  1  0
 16 25  4  0
 16 26  4  0
 17 20  4  0
 17 28  1  0
 18 21  4  0
 21 26  4  0
 22 26  4  0
M  END
$$$$

 Created by Python create_sdf_string function

 28 30  0  0  0  0  0  0  0  0999 V2000
    5.7174   -8.4529   26.7190 C   0  0  0  0  0  0  0  0  0  0  0  0
    0.3974   -7.0711   27.5149 C   0  0  0  0  0  0  0  0  0  0  0  0
    2.5338   -7.6891   16.0102 C   0  0  0  0  0  0  0  0  0  0  0  0
    4.8690   -7.4380   26.4151 C   0  0  0  0  0  0  0  0  0  0  0  0
    2.3021   -5.6726   26.0378 C   0  0  0  0  0  0  0  0  0  0  0  0
    7.0880   -4.6163   27.0010 C   0  0  0  0  0  0  0  0  0  0  0  0
    8.3117   -4.3698   27.4436 C   0  0  0  0  0  0  0  0  0  0  0  0
    1.1339   -5.0515   26.3541 C   0  0  0  0  0  0  0  0  0  0  0  0
    4.8080   -8.0362   16.7101 C   0  0  0  0  0  0  0  0  0  0  0  0
   -1.2173   -3.9294   26.9717 O   0  0  0  0  0  0  0  0  0  0  0  0
   -1.0025   -5.0942   27.4586 C   0  0  0  0  0  0  0  0  0  0  0  0
    2.2474   -8.9123   16.6273 C   0  0  0  0  0  0  0  0  0  0  0  0
    4.4957   -9.2636   17.3041 C   0  0  0  0  0  0  0  0  0  0  0  0
   -1.8070   -5.6086   28.1920 O   0  0  0  0  0  0  0  0  0  0  0  0
   10.4296   -5.1799   28.3140 C   0  0  0  0  0  0  0  0  0  0  0  0
    6.6017   -5.9004   26.9187 C   0  0  0  0  0  0  0  0  0  0  0  0
    2.4761   -6.9940   26.4111 N   0  0  0  0  0  0  0  0  0  0  0  0
    9.1353   -5.4053   27.8239 C   0  0  0  0  0  0  0  0  0  0  0  0
    0.9922   -9.3232   16.5995 O   0  0  0  0  0  0  0  0  0  0  0  0
    1.5232   -7.6869   27.1182 C   0  0  0  0  0  0  0  0  0  0  0  0
    8.6878   -6.6715   27.7262 N   0  0  0  0  0  0  0  0  0  0  0  0
    6.9911   -8.2423   27.1808 C   0  0  0  0  0  0  0  0  0  0  0  0
    3.8436   -7.2758   16.0578 C   0  0  0  0  0  0  0  0  0  0  0  0
    3.1882   -9.7190   17.2566 C   0  0  0  0  0  0  0  0  0  0  0  0
    5.3488   -6.1737   26.5092 C   0  0  0  0  0  0  0  0  0  0  0  0
    7.4567   -6.9464   27.2858 C   0  0  0  0  0  0  0  0  0  0  0  0
    0.1921   -5.7592   27.1123 C   0  0  0  0  0  0  0  0  0  0  0  0
    3.5517   -7.7407   25.9711 C   0  0  0  0  0  0  0  0  0  0  0  0
  1  4  4  0
  1 22  4  0
  2 20  4  0
  2 27  4  0
  3 12  4  0
  3 23  4  0
  4 25  4  0
  4 28  1  0
  5  8  4  0
  5 17  4  0
  6  7  4  0
  6 16  4  0
  7 18  4  0
  8 27  4  0
  9 13  4  0
  9 23  4  0
 10 11  1  0
 11 14  2  0
 11 27  1  0
 12 19  1  0
 12 24  4  0
 13 24  4  0
 15 18  1  0
 16 25  4  0
 16 26  4  0
 17 20  4  0
 17 28  1  0
 18 21  4  0
 21 26  4  0
 22 26  4  0
M  END
$$$$

 Created by Python create_sdf_string function

 28 30  0  0  0  0  0  0  0  0999 V2000
    5.7174   -8.4529   26.7190 C   0  0  0  0  0  0  0  0  0  0  0  0
    0.3974   -7.0711   27.5149 C   0  0  0  0  0  0  0  0  0  0  0  0
    2.5338   -7.6891   16.0102 C   0  0  0  0  0  0  0  0  0  0  0  0
    4.8690   -7.4380   26.4151 C   0  0  0  0  0  0  0  0  0  0  0  0
    2.3021   -5.6726   26.0378 C   0  0  0  0  0  0  0  0  0  0  0  0
    7.0880   -4.6163   27.0010 C   0  0  0  0  0  0  0  0  0  0  0  0
    8.3117   -4.3698   27.4436 C   0  0  0  0  0  0  0  0  0  0  0  0
    1.1339   -5.0515   26.3541 C   0  0  0  0  0  0  0  0  0  0  0  0
    4.8080   -8.0362   16.7101 C   0  0  0  0  0  0  0  0  0  0  0  0
   -1.2173   -3.9294   26.9717 O   0  0  0  0  0  0  0  0  0  0  0  0
   -1.0025   -5.0942   27.4586 C   0  0  0  0  0  0  0  0  0  0  0  0
    2.2474   -8.9123   16.6273 C   0  0  0  0  0  0  0  0  0  0  0  0
    4.4957   -9.2636   17.3041 C   0  0  0  0  0  0  0  0  0  0  0  0
   -1.8070   -5.6086   28.1920 O   0  0  0  0  0  0  0  0  0  0  0  0
   10.4296   -5.1799   28.3140 C   0  0  0  0  0  0  0  0  0  0  0  0
    6.6017   -5.9004   26.9187 C   0  0  0  0  0  0  0  0  0  0  0  0
    2.4761   -6.9940   26.4111 N   0  0  0  0  0  0  0  0  0  0  0  0
    9.1353   -5.4053   27.8239 C   0  0  0  0  0  0  0  0  0  0  0  0
    0.9922   -9.3232   16.5995 O   0  0  0  0  0  0  0  0  0  0  0  0
    1.5232   -7.6869   27.1182 C   0  0  0  0  0  0  0  0  0  0  0  0
    8.6878   -6.6715   27.7262 N   0  0  0  0  0  0  0  0  0  0  0  0
    6.9911   -8.2423   27.1808 C   0  0  0  0  0  0  0  0  0  0  0  0
    3.8436   -7.2758   16.0578 C   0  0  0  0  0  0  0  0  0  0  0  0
    3.1882   -9.7190   17.2566 C   0  0  0  0  0  0  0  0  0  0  0  0
    5.3488   -6.1737   26.5092 C   0  0  0  0  0  0  0  0  0  0  0  0
    7.4567   -6.9464   27.2858 C   0  0  0  0  0  0  0  0  0  0  0  0
    0.1921   -5.7592   27.1123 C   0  0  0  0  0  0  0  0  0  0  0  0
    3.5517   -7.7407   25.9711 C   0  0  0  0  0  0  0  0  0  0  0  0
  1  4  4  0
  1 22  4  0
  2 20  4  0
  2 27  4  0
  3 12  4  0
  3 23  4  0
  4 25  4  0
  4 28  1  0
  5  8  4  0
  5 17  4  0
  6  7  4  0
  6 16  4  0
  7 18  4  0
  8 27  4  0
  9 13  4  0
  9 23  4  0
 10 11  1  0
 11 14  2  0
 11 27  1  0
 12 19  1  0
 12 24  4  0
 13 24  4  0
 15 18  1  0
 16 25  4  0
 16 26  4  0
 17 20  4  0
 17 28  1  0
 18 21  4  0
 21 26  4  0
 22 26  4  0
M  END
$$$$

 Created by Python create_sdf_string function

 28 30  0  0  0  0  0  0  0  0999 V2000
    5.7174   -8.4529   26.7190 C   0  0  0  0  0  0  0  0  0  0  0  0
    0.3974   -7.0711   27.5149 C   0  0  0  0  0  0  0  0  0  0  0  0
    2.5338   -7.6891   16.0102 C   0  0  0  0  0  0  0  0  0  0  0  0
    4.8690   -7.4380   26.4151 C   0  0  0  0  0  0  0  0  0  0  0  0
    2.3021   -5.6726   26.0378 C   0  0  0  0  0  0  0  0  0  0  0  0
    7.0880   -4.6163   27.0010 C   0  0  0  0  0  0  0  0  0  0  0  0
    8.3117   -4.3698   27.4436 C   0  0  0  0  0  0  0  0  0  0  0  0
    1.1339   -5.0515   26.3541 C   0  0  0  0  0  0  0  0  0  0  0  0
    4.8080   -8.0362   16.7101 C   0  0  0  0  0  0  0  0  0  0  0  0
   -1.2173   -3.9294   26.9717 O   0  0  0  0  0  0  0  0  0  0  0  0
   -1.0025   -5.0942   27.4586 C   0  0  0  0  0  0  0  0  0  0  0  0
    2.2474   -8.9123   16.6273 C   0  0  0  0  0  0  0  0  0  0  0  0
    4.4957   -9.2636   17.3041 C   0  0  0  0  0  0  0  0  0  0  0  0
   -1.8070   -5.6086   28.1920 O   0  0  0  0  0  0  0  0  0  0  0  0
   10.4296   -5.1799   28.3140 C   0  0  0  0  0  0  0  0  0  0  0  0
    6.6017   -5.9004   26.9187 C   0  0  0  0  0  0  0  0  0  0  0  0
    2.4761   -6.9940   26.4111 N   0  0  0  0  0  0  0  0  0  0  0  0
    9.1353   -5.4053   27.8239 C   0  0  0  0  0  0  0  0  0  0  0  0
    0.9922   -9.3232   16.5995 O   0  0  0  0  0  0  0  0  0  0  0  0
    1.5232   -7.6869   27.1182 C   0  0  0  0  0  0  0  0  0  0  0  0
    8.6878   -6.6715   27.7262 N   0  0  0  0  0  0  0  0  0  0  0  0
    6.9911   -8.2423   27.1808 C   0  0  0  0  0  0  0  0  0  0  0  0
    3.8436   -7.2758   16.0578 C   0  0  0  0  0  0  0  0  0  0  0  0
    3.1882   -9.7190   17.2566 C   0  0  0  0  0  0  0  0  0  0  0  0
    5.3488   -6.1737   26.5092 C   0  0  0  0  0  0  0  0  0  0  0  0
    7.4567   -6.9464   27.2858 C   0  0  0  0  0  0  0  0  0  0  0  0
    0.1921   -5.7592   27.1123 C   0  0  0  0  0  0  0  0  0  0  0  0
    3.5517   -7.7407   25.9711 C   0  0  0  0  0  0  0  0  0  0  0  0
  1  4  4  0
  1 22  4  0
  2 20  4  0
  2 27  4  0
  3 12  4  0
  3 23  4  0
  4 25  4  0
  4 28  1  0
  5  8  4  0
  5 17  4  0
  6  7  4  0
  6 16  4  0
  7 18  4  0
  8 27  4  0
  9 13  4  0
  9 23  4  0
 10 11  1  0
 11 14  2  0
 11 27  1  0
 12 19  1  0
 12 24  4  0
 13 24  4  0
 15 18  1  0
 16 25  4  0
 16 26  4  0
 17 20  4  0
 17 28  1  0
 18 21  4  0
 21 26  4  0
 22 26  4  0
M  END
$$$$

 Created by Python create_sdf_string function

 28 30  0  0  0  0  0  0  0  0999 V2000
    5.7174   -8.4529   26.7190 C   0  0  0  0  0  0  0  0  0  0  0  0
    0.3974   -7.0711   27.5149 C   0  0  0  0  0  0  0  0  0  0  0  0
    2.5338   -7.6891   16.0102 C   0  0  0  0  0  0  0  0  0  0  0  0
    4.8690   -7.4380   26.4151 C   0  0  0  0  0  0  0  0  0  0  0  0
    2.3021   -5.6726   26.0378 C   0  0  0  0  0  0  0  0  0  0  0  0
    7.0880   -4.6163   27.0010 C   0  0  0  0  0  0  0  0  0  0  0  0
    8.3117   -4.3698   27.4436 C   0  0  0  0  0  0  0  0  0  0  0  0
    1.1339   -5.0515   26.3541 C   0  0  0  0  0  0  0  0  0  0  0  0
    4.8080   -8.0362   16.7101 C   0  0  0  0  0  0  0  0  0  0  0  0
   -1.2173   -3.9294   26.9717 O   0  0  0  0  0  0  0  0  0  0  0  0
   -1.0025   -5.0942   27.4586 C   0  0  0  0  0  0  0  0  0  0  0  0
    2.2474   -8.9123   16.6273 C   0  0  0  0  0  0  0  0  0  0  0  0
    4.4957   -9.2636   17.3041 C   0  0  0  0  0  0  0  0  0  0  0  0
   -1.8070   -5.6086   28.1920 O   0  0  0  0  0  0  0  0  0  0  0  0
   10.4296   -5.1799   28.3140 C   0  0  0  0  0  0  0  0  0  0  0  0
    6.6017   -5.9004   26.9187 C   0  0  0  0  0  0  0  0  0  0  0  0
    2.4761   -6.9940   26.4111 N   0  0  0  0  0  0  0  0  0  0  0  0
    9.1353   -5.4053   27.8239 C   0  0  0  0  0  0  0  0  0  0  0  0
    0.9922   -9.3232   16.5995 O   0  0  0  0  0  0  0  0  0  0  0  0
    1.5232   -7.6869   27.1182 C   0  0  0  0  0  0  0  0  0  0  0  0
    8.6878   -6.6715   27.7262 N   0  0  0  0  0  0  0  0  0  0  0  0
    6.9911   -8.2423   27.1808 C   0  0  0  0  0  0  0  0  0  0  0  0
    3.8436   -7.2758   16.0578 C   0  0  0  0  0  0  0  0  0  0  0  0
    3.1882   -9.7190   17.2566 C   0  0  0  0  0  0  0  0  0  0  0  0
    5.3488   -6.1737   26.5092 C   0  0  0  0  0  0  0  0  0  0  0  0
    7.4567   -6.9464   27.2858 C   0  0  0  0  0  0  0  0  0  0  0  0
    0.1921   -5.7592   27.1123 C   0  0  0  0  0  0  0  0  0  0  0  0
    3.5517   -7.7407   25.9711 C   0  0  0  0  0  0  0  0  0  0  0  0
  1  4  4  0
  1 22  4  0
  2 20  4  0
  2 27  4  0
  3 12  4  0
  3 23  4  0
  4 25  4  0
  4 28  1  0
  5  8  4  0
  5 17  4  0
  6  7  4  0
  6 16  4  0
  7 18  4  0
  8 27  4  0
  9 13  4  0
  9 23  4  0
 10 11  1  0
 11 14  2  0
 11 27  1  0
 12 19  1  0
 12 24  4  0
 13 24  4  0
 15 18  1  0
 16 25  4  0
 16 26  4  0
 17 20  4  0
 17 28  1  0
 18 21  4  0
 21 26  4  0
 22 26  4  0
M  END
$$$$

 Created by Python create_sdf_string function

 28 30  0  0  0  0  0  0  0  0999 V2000
    5.7174   -8.4529   26.7190 C   0  0  0  0  0  0  0  0  0  0  0  0
    0.3974   -7.0711   27.5149 C   0  0  0  0  0  0  0  0  0  0  0  0
    2.5338   -7.6891   16.0102 C   0  0  0  0  0  0  0  0  0  0  0  0
    4.8690   -7.4380   26.4151 C   0  0  0  0  0  0  0  0  0  0  0  0
    2.3021   -5.6726   26.0378 C   0  0  0  0  0  0  0  0  0  0  0  0
    7.0880   -4.6163   27.0010 C   0  0  0  0  0  0  0  0  0  0  0  0
    8.3117   -4.3698   27.4436 C   0  0  0  0  0  0  0  0  0  0  0  0
    1.1339   -5.0515   26.3541 C   0  0  0  0  0  0  0  0  0  0  0  0
    4.8080   -8.0362   16.7101 C   0  0  0  0  0  0  0  0  0  0  0  0
   -1.2173   -3.9294   26.9717 O   0  0  0  0  0  0  0  0  0  0  0  0
   -1.0025   -5.0942   27.4586 C   0  0  0  0  0  0  0  0  0  0  0  0
    2.2474   -8.9123   16.6273 C   0  0  0  0  0  0  0  0  0  0  0  0
    4.4957   -9.2636   17.3041 C   0  0  0  0  0  0  0  0  0  0  0  0
   -1.8070   -5.6086   28.1920 O   0  0  0  0  0  0  0  0  0  0  0  0
   10.4296   -5.1799   28.3140 C   0  0  0  0  0  0  0  0  0  0  0  0
    6.6017   -5.9004   26.9187 C   0  0  0  0  0  0  0  0  0  0  0  0
    2.4761   -6.9940   26.4111 N   0  0  0  0  0  0  0  0  0  0  0  0
    9.1353   -5.4053   27.8239 C   0  0  0  0  0  0  0  0  0  0  0  0
    0.9922   -9.3232   16.5995 O   0  0  0  0  0  0  0  0  0  0  0  0
    1.5232   -7.6869   27.1182 C   0  0  0  0  0  0  0  0  0  0  0  0
    8.6878   -6.6715   27.7262 N   0  0  0  0  0  0  0  0  0  0  0  0
    6.9911   -8.2423   27.1808 C   0  0  0  0  0  0  0  0  0  0  0  0
    3.8436   -7.2758   16.0578 C   0  0  0  0  0  0  0  0  0  0  0  0
    3.1882   -9.7190   17.2566 C   0  0  0  0  0  0  0  0  0  0  0  0
    5.3488   -6.1737   26.5092 C   0  0  0  0  0  0  0  0  0  0  0  0
    7.4567   -6.9464   27.2858 C   0  0  0  0  0  0  0  0  0  0  0  0
    0.1921   -5.7592   27.1123 C   0  0  0  0  0  0  0  0  0  0  0  0
    3.5517   -7.7407   25.9711 C   0  0  0  0  0  0  0  0  0  0  0  0
  1  4  4  0
  1 22  4  0
  2 20  4  0
  2 27  4  0
  3 12  4  0
  3 23  4  0
  4 25  4  0
  4 28  1  0
  5  8  4  0
  5 17  4  0
  6  7  4  0
  6 16  4  0
  7 18  4  0
  8 27  4  0
  9 13  4  0
  9 23  4  0
 10 11  1  0
 11 14  2  0
 11 27  1  0
 12 19  1  0
 12 24  4  0
 13 24  4  0
 15 18  1  0
 16 25  4  0
 16 26  4  0
 17 20  4  0
 17 28  1  0
 18 21  4  0
 21 26  4  0
 22 26  4  0
M  END
$$$$

 Created by Python create_sdf_string function

 28 30  0  0  0  0  0  0  0  0999 V2000
    5.7174   -8.4529   26.7190 C   0  0  0  0  0  0  0  0  0  0  0  0
    0.3974   -7.0711   27.5149 C   0  0  0  0  0  0  0  0  0  0  0  0
    2.5338   -7.6891   16.0102 C   0  0  0  0  0  0  0  0  0  0  0  0
    4.8690   -7.4380   26.4151 C   0  0  0  0  0  0  0  0  0  0  0  0
    2.3021   -5.6726   26.0378 C   0  0  0  0  0  0  0  0  0  0  0  0
    7.0880   -4.6163   27.0010 C   0  0  0  0  0  0  0  0  0  0  0  0
    8.3117   -4.3698   27.4436 C   0  0  0  0  0  0  0  0  0  0  0  0
    1.1339   -5.0515   26.3541 C   0  0  0  0  0  0  0  0  0  0  0  0
    4.8080   -8.0362   16.7101 C   0  0  0  0  0  0  0  0  0  0  0  0
   -1.2173   -3.9294   26.9717 O   0  0  0  0  0  0  0  0  0  0  0  0
   -1.0025   -5.0942   27.4586 C   0  0  0  0  0  0  0  0  0  0  0  0
    2.2474   -8.9123   16.6273 C   0  0  0  0  0  0  0  0  0  0  0  0
    4.4957   -9.2636   17.3041 C   0  0  0  0  0  0  0  0  0  0  0  0
   -1.8070   -5.6086   28.1920 O   0  0  0  0  0  0  0  0  0  0  0  0
   10.4296   -5.1799   28.3140 C   0  0  0  0  0  0  0  0  0  0  0  0
    6.6017   -5.9004   26.9187 C   0  0  0  0  0  0  0  0  0  0  0  0
    2.4761   -6.9940   26.4111 N   0  0  0  0  0  0  0  0  0  0  0  0
    9.1353   -5.4053   27.8239 C   0  0  0  0  0  0  0  0  0  0  0  0
    0.9922   -9.3232   16.5995 O   0  0  0  0  0  0  0  0  0  0  0  0
    1.5232   -7.6869   27.1182 C   0  0  0  0  0  0  0  0  0  0  0  0
    8.6878   -6.6715   27.7262 N   0  0  0  0  0  0  0  0  0  0  0  0
    6.9911   -8.2423   27.1808 C   0  0  0  0  0  0  0  0  0  0  0  0
    3.8436   -7.2758   16.0578 C   0  0  0  0  0  0  0  0  0  0  0  0
    3.1882   -9.7190   17.2566 C   0  0  0  0  0  0  0  0  0  0  0  0
    5.3488   -6.1737   26.5092 C   0  0  0  0  0  0  0  0  0  0  0  0
    7.4567   -6.9464   27.2858 C   0  0  0  0  0  0  0  0  0  0  0  0
    0.1921   -5.7592   27.1123 C   0  0  0  0  0  0  0  0  0  0  0  0
    3.5517   -7.7407   25.9711 C   0  0  0  0  0  0  0  0  0  0  0  0
  1  4  4  0
  1 22  4  0
  2 20  4  0
  2 27  4  0
  3 12  4  0
  3 23  4  0
  4 25  4  0
  4 28  1  0
  5  8  4  0
  5 17  4  0
  6  7  4  0
  6 16  4  0
  7 18  4  0
  8 27  4  0
  9 13  4  0
  9 23  4  0
 10 11  1  0
 11 14  2  0
 11 27  1  0
 12 19  1  0
 12 24  4  0
 13 24  4  0
 15 18  1  0
 16 25  4  0
 16 26  4  0
 17 20  4  0
 17 28  1  0
 18 21  4  0
 21 26  4  0
 22 26  4  0
M  END
$$$$

 Created by Python create_sdf_string function

 28 30  0  0  0  0  0  0  0  0999 V2000
    5.7174   -8.4529   26.7190 C   0  0  0  0  0  0  0  0  0  0  0  0
    0.3974   -7.0711   27.5149 C   0  0  0  0  0  0  0  0  0  0  0  0
    2.5338   -7.6891   16.0102 C   0  0  0  0  0  0  0  0  0  0  0  0
    4.8690   -7.4380   26.4151 C   0  0  0  0  0  0  0  0  0  0  0  0
    2.3021   -5.6726   26.0378 C   0  0  0  0  0  0  0  0  0  0  0  0
    7.0880   -4.6163   27.0010 C   0  0  0  0  0  0  0  0  0  0  0  0
    8.3117   -4.3698   27.4436 C   0  0  0  0  0  0  0  0  0  0  0  0
    1.1339   -5.0515   26.3541 C   0  0  0  0  0  0  0  0  0  0  0  0
    4.8080   -8.0362   16.7101 C   0  0  0  0  0  0  0  0  0  0  0  0
   -1.2173   -3.9294   26.9717 O   0  0  0  0  0  0  0  0  0  0  0  0
   -1.0025   -5.0942   27.4586 C   0  0  0  0  0  0  0  0  0  0  0  0
    2.2474   -8.9123   16.6273 C   0  0  0  0  0  0  0  0  0  0  0  0
    4.4957   -9.2636   17.3041 C   0  0  0  0  0  0  0  0  0  0  0  0
   -1.8070   -5.6086   28.1920 O   0  0  0  0  0  0  0  0  0  0  0  0
   10.4296   -5.1799   28.3140 C   0  0  0  0  0  0  0  0  0  0  0  0
    6.6017   -5.9004   26.9187 C   0  0  0  0  0  0  0  0  0  0  0  0
    2.4761   -6.9940   26.4111 N   0  0  0  0  0  0  0  0  0  0  0  0
    9.1353   -5.4053   27.8239 C   0  0  0  0  0  0  0  0  0  0  0  0
    0.9922   -9.3232   16.5995 O   0  0  0  0  0  0  0  0  0  0  0  0
    1.5232   -7.6869   27.1182 C   0  0  0  0  0  0  0  0  0  0  0  0
    8.6878   -6.6715   27.7262 N   0  0  0  0  0  0  0  0  0  0  0  0
    6.9911   -8.2423   27.1808 C   0  0  0  0  0  0  0  0  0  0  0  0
    3.8436   -7.2758   16.0578 C   0  0  0  0  0  0  0  0  0  0  0  0
    3.1882   -9.7190   17.2566 C   0  0  0  0  0  0  0  0  0  0  0  0
    5.3488   -6.1737   26.5092 C   0  0  0  0  0  0  0  0  0  0  0  0
    7.4567   -6.9464   27.2858 C   0  0  0  0  0  0  0  0  0  0  0  0
    0.1921   -5.7592   27.1123 C   0  0  0  0  0  0  0  0  0  0  0  0
    3.5517   -7.7407   25.9711 C   0  0  0  0  0  0  0  0  0  0  0  0
  1  4  4  0
  1 22  4  0
  2 20  4  0
  2 27  4  0
  3 12  4  0
  3 23  4  0
  4 25  4  0
  4 28  1  0
  5  8  4  0
  5 17  4  0
  6  7  4  0
  6 16  4  0
  7 18  4  0
  8 27  4  0
  9 13  4  0
  9 23  4  0
 10 11  1  0
 11 14  2  0
 11 27  1  0
 12 19  1  0
 12 24  4  0
 13 24  4  0
 15 18  1  0
 16 25  4  0
 16 26  4  0
 17 20  4  0
 17 28  1  0
 18 21  4  0
 21 26  4  0
 22 26  4  0
M  END
$$$$

 Created by Python create_sdf_string function

 28 30  0  0  0  0  0  0  0  0999 V2000
    5.7174   -8.4529   26.7190 C   0  0  0  0  0  0  0  0  0  0  0  0
    0.3974   -7.0711   27.5149 C   0  0  0  0  0  0  0  0  0  0  0  0
    2.5338   -7.6891   16.0102 C   0  0  0  0  0  0  0  0  0  0  0  0
    4.8690   -7.4380   26.4151 C   0  0  0  0  0  0  0  0  0  0  0  0
    2.3021   -5.6726   26.0378 C   0  0  0  0  0  0  0  0  0  0  0  0
    7.0880   -4.6163   27.0010 C   0  0  0  0  0  0  0  0  0  0  0  0
    8.3117   -4.3698   27.4436 C   0  0  0  0  0  0  0  0  0  0  0  0
    1.1339   -5.0515   26.3541 C   0  0  0  0  0  0  0  0  0  0  0  0
    4.8080   -8.0362   16.7101 C   0  0  0  0  0  0  0  0  0  0  0  0
   -1.2173   -3.9294   26.9717 O   0  0  0  0  0  0  0  0  0  0  0  0
   -1.0025   -5.0942   27.4586 C   0  0  0  0  0  0  0  0  0  0  0  0
    2.2474   -8.9123   16.6273 C   0  0  0  0  0  0  0  0  0  0  0  0
    4.4957   -9.2636   17.3041 C   0  0  0  0  0  0  0  0  0  0  0  0
   -1.8070   -5.6086   28.1920 O   0  0  0  0  0  0  0  0  0  0  0  0
   10.4296   -5.1799   28.3140 C   0  0  0  0  0  0  0  0  0  0  0  0
    6.6017   -5.9004   26.9187 C   0  0  0  0  0  0  0  0  0  0  0  0
    2.4761   -6.9940   26.4111 N   0  0  0  0  0  0  0  0  0  0  0  0
    9.1353   -5.4053   27.8239 C   0  0  0  0  0  0  0  0  0  0  0  0
    0.9922   -9.3232   16.5995 O   0  0  0  0  0  0  0  0  0  0  0  0
    1.5232   -7.6869   27.1182 C   0  0  0  0  0  0  0  0  0  0  0  0
    8.6878   -6.6715   27.7262 N   0  0  0  0  0  0  0  0  0  0  0  0
    6.9911   -8.2423   27.1808 C   0  0  0  0  0  0  0  0  0  0  0  0
    3.8436   -7.2758   16.0578 C   0  0  0  0  0  0  0  0  0  0  0  0
    3.1882   -9.7190   17.2566 C   0  0  0  0  0  0  0  0  0  0  0  0
    5.3488   -6.1737   26.5092 C   0  0  0  0  0  0  0  0  0  0  0  0
    7.4567   -6.9464   27.2858 C   0  0  0  0  0  0  0  0  0  0  0  0
    0.1921   -5.7592   27.1123 C   0  0  0  0  0  0  0  0  0  0  0  0
    3.5517   -7.7407   25.9711 C   0  0  0  0  0  0  0  0  0  0  0  0
  1  4  4  0
  1 22  4  0
  2 20  4  0
  2 27  4  0
  3 12  4  0
  3 23  4  0
  4 25  4  0
  4 28  1  0
  5  8  4  0
  5 17  4  0
  6  7  4  0
  6 16  4  0
  7 18  4  0
  8 27  4  0
  9 13  4  0
  9 23  4  0
 10 11  1  0
 11 14  2  0
 11 27  1  0
 12 19  1  0
 12 24  4  0
 13 24  4  0
 15 18  1  0
 16 25  4  0
 16 26  4  0
 17 20  4  0
 17 28  1  0
 18 21  4  0
 21 26  4  0
 22 26  4  0
M  END
$$$$

 Created by Python create_sdf_string function

 28 30  0  0  0  0  0  0  0  0999 V2000
    5.7174   -8.4529   26.7190 C   0  0  0  0  0  0  0  0  0  0  0  0
    0.3974   -7.0711   27.5149 C   0  0  0  0  0  0  0  0  0  0  0  0
    2.5338   -7.6891   16.0102 C   0  0  0  0  0  0  0  0  0  0  0  0
    4.8690   -7.4380   26.4151 C   0  0  0  0  0  0  0  0  0  0  0  0
    2.3021   -5.6726   26.0378 C   0  0  0  0  0  0  0  0  0  0  0  0
    7.0880   -4.6163   27.0010 C   0  0  0  0  0  0  0  0  0  0  0  0
    8.3117   -4.3698   27.4436 C   0  0  0  0  0  0  0  0  0  0  0  0
    1.1339   -5.0515   26.3541 C   0  0  0  0  0  0  0  0  0  0  0  0
    4.8080   -8.0362   16.7101 C   0  0  0  0  0  0  0  0  0  0  0  0
   -1.2173   -3.9294   26.9717 O   0  0  0  0  0  0  0  0  0  0  0  0
   -1.0025   -5.0942   27.4586 C   0  0  0  0  0  0  0  0  0  0  0  0
    2.2474   -8.9123   16.6273 C   0  0  0  0  0  0  0  0  0  0  0  0
    4.4957   -9.2636   17.3041 C   0  0  0  0  0  0  0  0  0  0  0  0
   -1.8070   -5.6086   28.1920 O   0  0  0  0  0  0  0  0  0  0  0  0
   10.4296   -5.1799   28.3140 C   0  0  0  0  0  0  0  0  0  0  0  0
    6.6017   -5.9004   26.9187 C   0  0  0  0  0  0  0  0  0  0  0  0
    2.4761   -6.9940   26.4111 N   0  0  0  0  0  0  0  0  0  0  0  0
    9.1353   -5.4053   27.8239 C   0  0  0  0  0  0  0  0  0  0  0  0
    0.9922   -9.3232   16.5995 O   0  0  0  0  0  0  0  0  0  0  0  0
    1.5232   -7.6869   27.1182 C   0  0  0  0  0  0  0  0  0  0  0  0
    8.6878   -6.6715   27.7262 N   0  0  0  0  0  0  0  0  0  0  0  0
    6.9911   -8.2423   27.1808 C   0  0  0  0  0  0  0  0  0  0  0  0
    3.8436   -7.2758   16.0578 C   0  0  0  0  0  0  0  0  0  0  0  0
    3.1882   -9.7190   17.2566 C   0  0  0  0  0  0  0  0  0  0  0  0
    5.3488   -6.1737   26.5092 C   0  0  0  0  0  0  0  0  0  0  0  0
    7.4567   -6.9464   27.2858 C   0  0  0  0  0  0  0  0  0  0  0  0
    0.1921   -5.7592   27.1123 C   0  0  0  0  0  0  0  0  0  0  0  0
    3.5517   -7.7407   25.9711 C   0  0  0  0  0  0  0  0  0  0  0  0
  1  4  4  0
  1 22  4  0
  2 20  4  0
  2 27  4  0
  3 12  4  0
  3 23  4  0
  4 25  4  0
  4 28  1  0
  5  8  4  0
  5 17  4  0
  6  7  4  0
  6 16  4  0
  7 18  4  0
  8 27  4  0
  9 13  4  0
  9 23  4  0
 10 11  1  0
 11 14  2  0
 11 27  1  0
 12 19  1  0
 12 24  4  0
 13 24  4  0
 15 18  1  0
 16 25  4  0
 16 26  4  0
 17 20  4  0
 17 28  1  0
 18 21  4  0
 21 26  4  0
 22 26  4  0
M  END
$$$$

 Created by Python create_sdf_string function

 28 30  0  0  0  0  0  0  0  0999 V2000
    5.7174   -8.4529   26.7190 C   0  0  0  0  0  0  0  0  0  0  0  0
    0.3974   -7.0711   27.5149 C   0  0  0  0  0  0  0  0  0  0  0  0
    2.5338   -7.6891   16.0102 C   0  0  0  0  0  0  0  0  0  0  0  0
    4.8690   -7.4380   26.4151 C   0  0  0  0  0  0  0  0  0  0  0  0
    2.3021   -5.6726   26.0378 C   0  0  0  0  0  0  0  0  0  0  0  0
    7.0880   -4.6163   27.0010 C   0  0  0  0  0  0  0  0  0  0  0  0
    8.3117   -4.3698   27.4436 C   0  0  0  0  0  0  0  0  0  0  0  0
    1.1339   -5.0515   26.3541 C   0  0  0  0  0  0  0  0  0  0  0  0
    4.8080   -8.0362   16.7101 C   0  0  0  0  0  0  0  0  0  0  0  0
   -1.2173   -3.9294   26.9717 O   0  0  0  0  0  0  0  0  0  0  0  0
   -1.0025   -5.0942   27.4586 C   0  0  0  0  0  0  0  0  0  0  0  0
    2.2474   -8.9123   16.6273 C   0  0  0  0  0  0  0  0  0  0  0  0
    4.4957   -9.2636   17.3041 C   0  0  0  0  0  0  0  0  0  0  0  0
   -1.8070   -5.6086   28.1920 O   0  0  0  0  0  0  0  0  0  0  0  0
   10.4296   -5.1799   28.3140 C   0  0  0  0  0  0  0  0  0  0  0  0
    6.6017   -5.9004   26.9187 C   0  0  0  0  0  0  0  0  0  0  0  0
    2.4761   -6.9940   26.4111 N   0  0  0  0  0  0  0  0  0  0  0  0
    9.1353   -5.4053   27.8239 C   0  0  0  0  0  0  0  0  0  0  0  0
    0.9922   -9.3232   16.5995 O   0  0  0  0  0  0  0  0  0  0  0  0
    1.5232   -7.6869   27.1182 C   0  0  0  0  0  0  0  0  0  0  0  0
    8.6878   -6.6715   27.7262 N   0  0  0  0  0  0  0  0  0  0  0  0
    6.9911   -8.2423   27.1808 C   0  0  0  0  0  0  0  0  0  0  0  0
    3.8436   -7.2758   16.0578 C   0  0  0  0  0  0  0  0  0  0  0  0
    3.1882   -9.7190   17.2566 C   0  0  0  0  0  0  0  0  0  0  0  0
    5.3488   -6.1737   26.5092 C   0  0  0  0  0  0  0  0  0  0  0  0
    7.4567   -6.9464   27.2858 C   0  0  0  0  0  0  0  0  0  0  0  0
    0.1921   -5.7592   27.1123 C   0  0  0  0  0  0  0  0  0  0  0  0
    3.5517   -7.7407   25.9711 C   0  0  0  0  0  0  0  0  0  0  0  0
  1  4  4  0
  1 22  4  0
  2 20  4  0
  2 27  4  0
  3 12  4  0
  3 23  4  0
  4 25  4  0
  4 28  1  0
  5  8  4  0
  5 17  4  0
  6  7  4  0
  6 16  4  0
  7 18  4  0
  8 27  4  0
  9 13  4  0
  9 23  4  0
 10 11  1  0
 11 14  2  0
 11 27  1  0
 12 19  1  0
 12 24  4  0
 13 24  4  0
 15 18  1  0
 16 25  4  0
 16 26  4  0
 17 20  4  0
 17 28  1  0
 18 21  4  0
 21 26  4  0
 22 26  4  0
M  END
$$$$

 Created by Python create_sdf_string function

 28 30  0  0  0  0  0  0  0  0999 V2000
    5.7174   -8.4529   26.7190 C   0  0  0  0  0  0  0  0  0  0  0  0
    0.3974   -7.0711   27.5149 C   0  0  0  0  0  0  0  0  0  0  0  0
    2.5338   -7.6891   16.0102 C   0  0  0  0  0  0  0  0  0  0  0  0
    4.8690   -7.4380   26.4151 C   0  0  0  0  0  0  0  0  0  0  0  0
    2.3021   -5.6726   26.0378 C   0  0  0  0  0  0  0  0  0  0  0  0
    7.0880   -4.6163   27.0010 C   0  0  0  0  0  0  0  0  0  0  0  0
    8.3117   -4.3698   27.4436 C   0  0  0  0  0  0  0  0  0  0  0  0
    1.1339   -5.0515   26.3541 C   0  0  0  0  0  0  0  0  0  0  0  0
    4.8080   -8.0362   16.7101 C   0  0  0  0  0  0  0  0  0  0  0  0
   -1.2173   -3.9294   26.9717 O   0  0  0  0  0  0  0  0  0  0  0  0
   -1.0025   -5.0942   27.4586 C   0  0  0  0  0  0  0  0  0  0  0  0
    2.2474   -8.9123   16.6273 C   0  0  0  0  0  0  0  0  0  0  0  0
    4.4957   -9.2636   17.3041 C   0  0  0  0  0  0  0  0  0  0  0  0
   -1.8070   -5.6086   28.1920 O   0  0  0  0  0  0  0  0  0  0  0  0
   10.4296   -5.1799   28.3140 C   0  0  0  0  0  0  0  0  0  0  0  0
    6.6017   -5.9004   26.9187 C   0  0  0  0  0  0  0  0  0  0  0  0
    2.4761   -6.9940   26.4111 N   0  0  0  0  0  0  0  0  0  0  0  0
    9.1353   -5.4053   27.8239 C   0  0  0  0  0  0  0  0  0  0  0  0
    0.9922   -9.3232   16.5995 O   0  0  0  0  0  0  0  0  0  0  0  0
    1.5232   -7.6869   27.1182 C   0  0  0  0  0  0  0  0  0  0  0  0
    8.6878   -6.6715   27.7262 N   0  0  0  0  0  0  0  0  0  0  0  0
    6.9911   -8.2423   27.1808 C   0  0  0  0  0  0  0  0  0  0  0  0
    3.8436   -7.2758   16.0578 C   0  0  0  0  0  0  0  0  0  0  0  0
    3.1882   -9.7190   17.2566 C   0  0  0  0  0  0  0  0  0  0  0  0
    5.3488   -6.1737   26.5092 C   0  0  0  0  0  0  0  0  0  0  0  0
    7.4567   -6.9464   27.2858 C   0  0  0  0  0  0  0  0  0  0  0  0
    0.1921   -5.7592   27.1123 C   0  0  0  0  0  0  0  0  0  0  0  0
    3.5517   -7.7407   25.9711 C   0  0  0  0  0  0  0  0  0  0  0  0
  1  4  4  0
  1 22  4  0
  2 20  4  0
  2 27  4  0
  3 12  4  0
  3 23  4  0
  4 25  4  0
  4 28  1  0
  5  8  4  0
  5 17  4  0
  6  7  4  0
  6 16  4  0
  7 18  4  0
  8 27  4  0
  9 13  4  0
  9 23  4  0
 10 11  1  0
 11 14  2  0
 11 27  1  0
 12 19  1  0
 12 24  4  0
 13 24  4  0
 15 18  1  0
 16 25  4  0
 16 26  4  0
 17 20  4  0
 17 28  1  0
 18 21  4  0
 21 26  4  0
 22 26  4  0
M  END
$$$$

 Created by Python create_sdf_string function

 28 30  0  0  0  0  0  0  0  0999 V2000
    5.7174   -8.4529   26.7190 C   0  0  0  0  0  0  0  0  0  0  0  0
    0.3974   -7.0711   27.5149 C   0  0  0  0  0  0  0  0  0  0  0  0
    2.5338   -7.6891   16.0102 C   0  0  0  0  0  0  0  0  0  0  0  0
    4.8690   -7.4380   26.4151 C   0  0  0  0  0  0  0  0  0  0  0  0
    2.3021   -5.6726   26.0378 C   0  0  0  0  0  0  0  0  0  0  0  0
    7.0880   -4.6163   27.0010 C   0  0  0  0  0  0  0  0  0  0  0  0
    8.3117   -4.3698   27.4436 C   0  0  0  0  0  0  0  0  0  0  0  0
    1.1339   -5.0515   26.3541 C   0  0  0  0  0  0  0  0  0  0  0  0
    4.8080   -8.0362   16.7101 C   0  0  0  0  0  0  0  0  0  0  0  0
   -1.2173   -3.9294   26.9717 O   0  0  0  0  0  0  0  0  0  0  0  0
   -1.0025   -5.0942   27.4586 C   0  0  0  0  0  0  0  0  0  0  0  0
    2.2474   -8.9123   16.6273 C   0  0  0  0  0  0  0  0  0  0  0  0
    4.4957   -9.2636   17.3041 C   0  0  0  0  0  0  0  0  0  0  0  0
   -1.8070   -5.6086   28.1920 O   0  0  0  0  0  0  0  0  0  0  0  0
   10.4296   -5.1799   28.3140 C   0  0  0  0  0  0  0  0  0  0  0  0
    6.6017   -5.9004   26.9187 C   0  0  0  0  0  0  0  0  0  0  0  0
    2.4761   -6.9940   26.4111 N   0  0  0  0  0  0  0  0  0  0  0  0
    9.1353   -5.4053   27.8239 C   0  0  0  0  0  0  0  0  0  0  0  0
    0.9922   -9.3232   16.5995 O   0  0  0  0  0  0  0  0  0  0  0  0
    1.5232   -7.6869   27.1182 C   0  0  0  0  0  0  0  0  0  0  0  0
    8.6878   -6.6715   27.7262 N   0  0  0  0  0  0  0  0  0  0  0  0
    6.9911   -8.2423   27.1808 C   0  0  0  0  0  0  0  0  0  0  0  0
    3.8436   -7.2758   16.0578 C   0  0  0  0  0  0  0  0  0  0  0  0
    3.1882   -9.7190   17.2566 C   0  0  0  0  0  0  0  0  0  0  0  0
    5.3488   -6.1737   26.5092 C   0  0  0  0  0  0  0  0  0  0  0  0
    7.4567   -6.9464   27.2858 C   0  0  0  0  0  0  0  0  0  0  0  0
    0.1921   -5.7592   27.1123 C   0  0  0  0  0  0  0  0  0  0  0  0
    3.5517   -7.7407   25.9711 C   0  0  0  0  0  0  0  0  0  0  0  0
  1  4  4  0
  1 22  4  0
  2 20  4  0
  2 27  4  0
  3 12  4  0
  3 23  4  0
  4 25  4  0
  4 28  1  0
  5  8  4  0
  5 17  4  0
  6  7  4  0
  6 16  4  0
  7 18  4  0
  8 27  4  0
  9 13  4  0
  9 23  4  0
 10 11  1  0
 11 14  2  0
 11 27  1  0
 12 19  1  0
 12 24  4  0
 13 24  4  0
 15 18  1  0
 16 25  4  0
 16 26  4  0
 17 20  4  0
 17 28  1  0
 18 21  4  0
 21 26  4  0
 22 26  4  0
M  END
$$$$

 Created by Python create_sdf_string function

 28 30  0  0  0  0  0  0  0  0999 V2000
    5.7174   -8.4529   26.7190 C   0  0  0  0  0  0  0  0  0  0  0  0
    0.3974   -7.0711   27.5149 C   0  0  0  0  0  0  0  0  0  0  0  0
    2.5338   -7.6891   16.0102 C   0  0  0  0  0  0  0  0  0  0  0  0
    4.8690   -7.4380   26.4151 C   0  0  0  0  0  0  0  0  0  0  0  0
    2.3021   -5.6726   26.0378 C   0  0  0  0  0  0  0  0  0  0  0  0
    7.0880   -4.6163   27.0010 C   0  0  0  0  0  0  0  0  0  0  0  0
    8.3117   -4.3698   27.4436 C   0  0  0  0  0  0  0  0  0  0  0  0
    1.1339   -5.0515   26.3541 C   0  0  0  0  0  0  0  0  0  0  0  0
    4.8080   -8.0362   16.7101 C   0  0  0  0  0  0  0  0  0  0  0  0
   -1.2173   -3.9294   26.9717 O   0  0  0  0  0  0  0  0  0  0  0  0
   -1.0025   -5.0942   27.4586 C   0  0  0  0  0  0  0  0  0  0  0  0
    2.2474   -8.9123   16.6273 C   0  0  0  0  0  0  0  0  0  0  0  0
    4.4957   -9.2636   17.3041 C   0  0  0  0  0  0  0  0  0  0  0  0
   -1.8070   -5.6086   28.1920 O   0  0  0  0  0  0  0  0  0  0  0  0
   10.4296   -5.1799   28.3140 C   0  0  0  0  0  0  0  0  0  0  0  0
    6.6017   -5.9004   26.9187 C   0  0  0  0  0  0  0  0  0  0  0  0
    2.4761   -6.9940   26.4111 N   0  0  0  0  0  0  0  0  0  0  0  0
    9.1353   -5.4053   27.8239 C   0  0  0  0  0  0  0  0  0  0  0  0
    0.9922   -9.3232   16.5995 O   0  0  0  0  0  0  0  0  0  0  0  0
    1.5232   -7.6869   27.1182 C   0  0  0  0  0  0  0  0  0  0  0  0
    8.6878   -6.6715   27.7262 N   0  0  0  0  0  0  0  0  0  0  0  0
    6.9911   -8.2423   27.1808 C   0  0  0  0  0  0  0  0  0  0  0  0
    3.8436   -7.2758   16.0578 C   0  0  0  0  0  0  0  0  0  0  0  0
    3.1882   -9.7190   17.2566 C   0  0  0  0  0  0  0  0  0  0  0  0
    5.3488   -6.1737   26.5092 C   0  0  0  0  0  0  0  0  0  0  0  0
    7.4567   -6.9464   27.2858 C   0  0  0  0  0  0  0  0  0  0  0  0
    0.1921   -5.7592   27.1123 C   0  0  0  0  0  0  0  0  0  0  0  0
    3.5517   -7.7407   25.9711 C   0  0  0  0  0  0  0  0  0  0  0  0
  1  4  4  0
  1 22  4  0
  2 20  4  0
  2 27  4  0
  3 12  4  0
  3 23  4  0
  4 25  4  0
  4 28  1  0
  5  8  4  0
  5 17  4  0
  6  7  4  0
  6 16  4  0
  7 18  4  0
  8 27  4  0
  9 13  4  0
  9 23  4  0
 10 11  1  0
 11 14  2  0
 11 27  1  0
 12 19  1  0
 12 24  4  0
 13 24  4  0
 15 18  1  0
 16 25  4  0
 16 26  4  0
 17 20  4  0
 17 28  1  0
 18 21  4  0
 21 26  4  0
 22 26  4  0
M  END
$$$$

 Created by Python create_sdf_string function

 28 30  0  0  0  0  0  0  0  0999 V2000
    5.7174   -8.4529   26.7190 C   0  0  0  0  0  0  0  0  0  0  0  0
    0.3974   -7.0711   27.5149 C   0  0  0  0  0  0  0  0  0  0  0  0
    2.5338   -7.6891   16.0102 C   0  0  0  0  0  0  0  0  0  0  0  0
    4.8690   -7.4380   26.4151 C   0  0  0  0  0  0  0  0  0  0  0  0
    2.3021   -5.6726   26.0378 C   0  0  0  0  0  0  0  0  0  0  0  0
    7.0880   -4.6163   27.0010 C   0  0  0  0  0  0  0  0  0  0  0  0
    8.3117   -4.3698   27.4436 C   0  0  0  0  0  0  0  0  0  0  0  0
    1.1339   -5.0515   26.3541 C   0  0  0  0  0  0  0  0  0  0  0  0
    4.8080   -8.0362   16.7101 C   0  0  0  0  0  0  0  0  0  0  0  0
   -1.2173   -3.9294   26.9717 O   0  0  0  0  0  0  0  0  0  0  0  0
   -1.0025   -5.0942   27.4586 C   0  0  0  0  0  0  0  0  0  0  0  0
    2.2474   -8.9123   16.6273 C   0  0  0  0  0  0  0  0  0  0  0  0
    4.4957   -9.2636   17.3041 C   0  0  0  0  0  0  0  0  0  0  0  0
   -1.8070   -5.6086   28.1920 O   0  0  0  0  0  0  0  0  0  0  0  0
   10.4296   -5.1799   28.3140 C   0  0  0  0  0  0  0  0  0  0  0  0
    6.6017   -5.9004   26.9187 C   0  0  0  0  0  0  0  0  0  0  0  0
    2.4761   -6.9940   26.4111 N   0  0  0  0  0  0  0  0  0  0  0  0
    9.1353   -5.4053   27.8239 C   0  0  0  0  0  0  0  0  0  0  0  0
    0.9922   -9.3232   16.5995 O   0  0  0  0  0  0  0  0  0  0  0  0
    1.5232   -7.6869   27.1182 C   0  0  0  0  0  0  0  0  0  0  0  0
    8.6878   -6.6715   27.7262 N   0  0  0  0  0  0  0  0  0  0  0  0
    6.9911   -8.2423   27.1808 C   0  0  0  0  0  0  0  0  0  0  0  0
    3.8436   -7.2758   16.0578 C   0  0  0  0  0  0  0  0  0  0  0  0
    3.1882   -9.7190   17.2566 C   0  0  0  0  0  0  0  0  0  0  0  0
    5.3488   -6.1737   26.5092 C   0  0  0  0  0  0  0  0  0  0  0  0
    7.4567   -6.9464   27.2858 C   0  0  0  0  0  0  0  0  0  0  0  0
    0.1921   -5.7592   27.1123 C   0  0  0  0  0  0  0  0  0  0  0  0
    3.5517   -7.7407   25.9711 C   0  0  0  0  0  0  0  0  0  0  0  0
  1  4  4  0
  1 22  4  0
  2 20  4  0
  2 27  4  0
  3 12  4  0
  3 23  4  0
  4 25  4  0
  4 28  1  0
  5  8  4  0
  5 17  4  0
  6  7  4  0
  6 16  4  0
  7 18  4  0
  8 27  4  0
  9 13  4  0
  9 23  4  0
 10 11  1  0
 11 14  2  0
 11 27  1  0
 12 19  1  0
 12 24  4  0
 13 24  4  0
 15 18  1  0
 16 25  4  0
 16 26  4  0
 17 20  4  0
 17 28  1  0
 18 21  4  0
 21 26  4  0
 22 26  4  0
M  END
$$$$

 Created by Python create_sdf_string function

 28 30  0  0  0  0  0  0  0  0999 V2000
    5.7174   -8.4529   26.7190 C   0  0  0  0  0  0  0  0  0  0  0  0
    0.3974   -7.0711   27.5149 C   0  0  0  0  0  0  0  0  0  0  0  0
    2.5338   -7.6891   16.0102 C   0  0  0  0  0  0  0  0  0  0  0  0
    4.8690   -7.4380   26.4151 C   0  0  0  0  0  0  0  0  0  0  0  0
    2.3021   -5.6726   26.0378 C   0  0  0  0  0  0  0  0  0  0  0  0
    7.0880   -4.6163   27.0010 C   0  0  0  0  0  0  0  0  0  0  0  0
    8.3117   -4.3698   27.4436 C   0  0  0  0  0  0  0  0  0  0  0  0
    1.1339   -5.0515   26.3541 C   0  0  0  0  0  0  0  0  0  0  0  0
    4.8080   -8.0362   16.7101 C   0  0  0  0  0  0  0  0  0  0  0  0
   -1.2173   -3.9294   26.9717 O   0  0  0  0  0  0  0  0  0  0  0  0
   -1.0025   -5.0942   27.4586 C   0  0  0  0  0  0  0  0  0  0  0  0
    2.2474   -8.9123   16.6273 C   0  0  0  0  0  0  0  0  0  0  0  0
    4.4957   -9.2636   17.3041 C   0  0  0  0  0  0  0  0  0  0  0  0
   -1.8070   -5.6086   28.1920 O   0  0  0  0  0  0  0  0  0  0  0  0
   10.4296   -5.1799   28.3140 C   0  0  0  0  0  0  0  0  0  0  0  0
    6.6017   -5.9004   26.9187 C   0  0  0  0  0  0  0  0  0  0  0  0
    2.4761   -6.9940   26.4111 N   0  0  0  0  0  0  0  0  0  0  0  0
    9.1353   -5.4053   27.8239 C   0  0  0  0  0  0  0  0  0  0  0  0
    0.9922   -9.3232   16.5995 O   0  0  0  0  0  0  0  0  0  0  0  0
    1.5232   -7.6869   27.1182 C   0  0  0  0  0  0  0  0  0  0  0  0
    8.6878   -6.6715   27.7262 N   0  0  0  0  0  0  0  0  0  0  0  0
    6.9911   -8.2423   27.1808 C   0  0  0  0  0  0  0  0  0  0  0  0
    3.8436   -7.2758   16.0578 C   0  0  0  0  0  0  0  0  0  0  0  0
    3.1882   -9.7190   17.2566 C   0  0  0  0  0  0  0  0  0  0  0  0
    5.3488   -6.1737   26.5092 C   0  0  0  0  0  0  0  0  0  0  0  0
    7.4567   -6.9464   27.2858 C   0  0  0  0  0  0  0  0  0  0  0  0
    0.1921   -5.7592   27.1123 C   0  0  0  0  0  0  0  0  0  0  0  0
    3.5517   -7.7407   25.9711 C   0  0  0  0  0  0  0  0  0  0  0  0
  1  4  4  0
  1 22  4  0
  2 20  4  0
  2 27  4  0
  3 12  4  0
  3 23  4  0
  4 25  4  0
  4 28  1  0
  5  8  4  0
  5 17  4  0
  6  7  4  0
  6 16  4  0
  7 18  4  0
  8 27  4  0
  9 13  4  0
  9 23  4  0
 10 11  1  0
 11 14  2  0
 11 27  1  0
 12 19  1  0
 12 24  4  0
 13 24  4  0
 15 18  1  0
 16 25  4  0
 16 26  4  0
 17 20  4  0
 17 28  1  0
 18 21  4  0
 21 26  4  0
 22 26  4  0
M  END
$$$$

 Created by Python create_sdf_string function

 28 30  0  0  0  0  0  0  0  0999 V2000
    5.7174   -8.4529   26.7190 C   0  0  0  0  0  0  0  0  0  0  0  0
    0.3974   -7.0711   27.5149 C   0  0  0  0  0  0  0  0  0  0  0  0
    2.5338   -7.6891   16.0102 C   0  0  0  0  0  0  0  0  0  0  0  0
    4.8690   -7.4380   26.4151 C   0  0  0  0  0  0  0  0  0  0  0  0
    2.3021   -5.6726   26.0378 C   0  0  0  0  0  0  0  0  0  0  0  0
    7.0880   -4.6163   27.0010 C   0  0  0  0  0  0  0  0  0  0  0  0
    8.3117   -4.3698   27.4436 C   0  0  0  0  0  0  0  0  0  0  0  0
    1.1339   -5.0515   26.3541 C   0  0  0  0  0  0  0  0  0  0  0  0
    4.8080   -8.0362   16.7101 C   0  0  0  0  0  0  0  0  0  0  0  0
   -1.2173   -3.9294   26.9717 O   0  0  0  0  0  0  0  0  0  0  0  0
   -1.0025   -5.0942   27.4586 C   0  0  0  0  0  0  0  0  0  0  0  0
    2.2474   -8.9123   16.6273 C   0  0  0  0  0  0  0  0  0  0  0  0
    4.4957   -9.2636   17.3041 C   0  0  0  0  0  0  0  0  0  0  0  0
   -1.8070   -5.6086   28.1920 O   0  0  0  0  0  0  0  0  0  0  0  0
   10.4296   -5.1799   28.3140 C   0  0  0  0  0  0  0  0  0  0  0  0
    6.6017   -5.9004   26.9187 C   0  0  0  0  0  0  0  0  0  0  0  0
    2.4761   -6.9940   26.4111 N   0  0  0  0  0  0  0  0  0  0  0  0
    9.1353   -5.4053   27.8239 C   0  0  0  0  0  0  0  0  0  0  0  0
    0.9922   -9.3232   16.5995 O   0  0  0  0  0  0  0  0  0  0  0  0
    1.5232   -7.6869   27.1182 C   0  0  0  0  0  0  0  0  0  0  0  0
    8.6878   -6.6715   27.7262 N   0  0  0  0  0  0  0  0  0  0  0  0
    6.9911   -8.2423   27.1808 C   0  0  0  0  0  0  0  0  0  0  0  0
    3.8436   -7.2758   16.0578 C   0  0  0  0  0  0  0  0  0  0  0  0
    3.1882   -9.7190   17.2566 C   0  0  0  0  0  0  0  0  0  0  0  0
    5.3488   -6.1737   26.5092 C   0  0  0  0  0  0  0  0  0  0  0  0
    7.4567   -6.9464   27.2858 C   0  0  0  0  0  0  0  0  0  0  0  0
    0.1921   -5.7592   27.1123 C   0  0  0  0  0  0  0  0  0  0  0  0
    3.5517   -7.7407   25.9711 C   0  0  0  0  0  0  0  0  0  0  0  0
  1  4  4  0
  1 22  4  0
  2 20  4  0
  2 27  4  0
  3 12  4  0
  3 23  4  0
  4 25  4  0
  4 28  1  0
  5  8  4  0
  5 17  4  0
  6  7  4  0
  6 16  4  0
  7 18  4  0
  8 27  4  0
  9 13  4  0
  9 23  4  0
 10 11  1  0
 11 14  2  0
 11 27  1  0
 12 19  1  0
 12 24  4  0
 13 24  4  0
 15 18  1  0
 16 25  4  0
 16 26  4  0
 17 20  4  0
 17 28  1  0
 18 21  4  0
 21 26  4  0
 22 26  4  0
M  END
$$$$

 Created by Python create_sdf_string function

 28 30  0  0  0  0  0  0  0  0999 V2000
    5.7174   -8.4529   26.7190 C   0  0  0  0  0  0  0  0  0  0  0  0
    0.3974   -7.0711   27.5149 C   0  0  0  0  0  0  0  0  0  0  0  0
    2.5338   -7.6891   16.0102 C   0  0  0  0  0  0  0  0  0  0  0  0
    4.8690   -7.4380   26.4151 C   0  0  0  0  0  0  0  0  0  0  0  0
    2.3021   -5.6726   26.0378 C   0  0  0  0  0  0  0  0  0  0  0  0
    7.0880   -4.6163   27.0010 C   0  0  0  0  0  0  0  0  0  0  0  0
    8.3117   -4.3698   27.4436 C   0  0  0  0  0  0  0  0  0  0  0  0
    1.1339   -5.0515   26.3541 C   0  0  0  0  0  0  0  0  0  0  0  0
    4.8080   -8.0362   16.7101 C   0  0  0  0  0  0  0  0  0  0  0  0
   -1.2173   -3.9294   26.9717 O   0  0  0  0  0  0  0  0  0  0  0  0
   -1.0025   -5.0942   27.4586 C   0  0  0  0  0  0  0  0  0  0  0  0
    2.2474   -8.9123   16.6273 C   0  0  0  0  0  0  0  0  0  0  0  0
    4.4957   -9.2636   17.3041 C   0  0  0  0  0  0  0  0  0  0  0  0
   -1.8070   -5.6086   28.1920 O   0  0  0  0  0  0  0  0  0  0  0  0
   10.4296   -5.1799   28.3140 C   0  0  0  0  0  0  0  0  0  0  0  0
    6.6017   -5.9004   26.9187 C   0  0  0  0  0  0  0  0  0  0  0  0
    2.4761   -6.9940   26.4111 N   0  0  0  0  0  0  0  0  0  0  0  0
    9.1353   -5.4053   27.8239 C   0  0  0  0  0  0  0  0  0  0  0  0
    0.9922   -9.3232   16.5995 O   0  0  0  0  0  0  0  0  0  0  0  0
    1.5232   -7.6869   27.1182 C   0  0  0  0  0  0  0  0  0  0  0  0
    8.6878   -6.6715   27.7262 N   0  0  0  0  0  0  0  0  0  0  0  0
    6.9911   -8.2423   27.1808 C   0  0  0  0  0  0  0  0  0  0  0  0
    3.8436   -7.2758   16.0578 C   0  0  0  0  0  0  0  0  0  0  0  0
    3.1882   -9.7190   17.2566 C   0  0  0  0  0  0  0  0  0  0  0  0
    5.3488   -6.1737   26.5092 C   0  0  0  0  0  0  0  0  0  0  0  0
    7.4567   -6.9464   27.2858 C   0  0  0  0  0  0  0  0  0  0  0  0
    0.1921   -5.7592   27.1123 C   0  0  0  0  0  0  0  0  0  0  0  0
    3.5517   -7.7407   25.9711 C   0  0  0  0  0  0  0  0  0  0  0  0
  1  4  4  0
  1 22  4  0
  2 20  4  0
  2 27  4  0
  3 12  4  0
  3 23  4  0
  4 25  4  0
  4 28  1  0
  5  8  4  0
  5 17  4  0
  6  7  4  0
  6 16  4  0
  7 18  4  0
  8 27  4  0
  9 13  4  0
  9 23  4  0
 10 11  1  0
 11 14  2  0
 11 27  1  0
 12 19  1  0
 12 24  4  0
 13 24  4  0
 15 18  1  0
 16 25  4  0
 16 26  4  0
 17 20  4  0
 17 28  1  0
 18 21  4  0
 21 26  4  0
 22 26  4  0
M  END
$$$$

 Created by Python create_sdf_string function

 28 30  0  0  0  0  0  0  0  0999 V2000
    5.7174   -8.4529   26.7190 C   0  0  0  0  0  0  0  0  0  0  0  0
    0.3974   -7.0711   27.5149 C   0  0  0  0  0  0  0  0  0  0  0  0
    2.5338   -7.6891   16.0102 C   0  0  0  0  0  0  0  0  0  0  0  0
    4.8690   -7.4380   26.4151 C   0  0  0  0  0  0  0  0  0  0  0  0
    2.3021   -5.6726   26.0378 C   0  0  0  0  0  0  0  0  0  0  0  0
    7.0880   -4.6163   27.0010 C   0  0  0  0  0  0  0  0  0  0  0  0
    8.3117   -4.3698   27.4436 C   0  0  0  0  0  0  0  0  0  0  0  0
    1.1339   -5.0515   26.3541 C   0  0  0  0  0  0  0  0  0  0  0  0
    4.8080   -8.0362   16.7101 C   0  0  0  0  0  0  0  0  0  0  0  0
   -1.2173   -3.9294   26.9717 O   0  0  0  0  0  0  0  0  0  0  0  0
   -1.0025   -5.0942   27.4586 C   0  0  0  0  0  0  0  0  0  0  0  0
    2.2474   -8.9123   16.6273 C   0  0  0  0  0  0  0  0  0  0  0  0
    4.4957   -9.2636   17.3041 C   0  0  0  0  0  0  0  0  0  0  0  0
   -1.8070   -5.6086   28.1920 O   0  0  0  0  0  0  0  0  0  0  0  0
   10.4296   -5.1799   28.3140 C   0  0  0  0  0  0  0  0  0  0  0  0
    6.6017   -5.9004   26.9187 C   0  0  0  0  0  0  0  0  0  0  0  0
    2.4761   -6.9940   26.4111 N   0  0  0  0  0  0  0  0  0  0  0  0
    9.1353   -5.4053   27.8239 C   0  0  0  0  0  0  0  0  0  0  0  0
    0.9922   -9.3232   16.5995 O   0  0  0  0  0  0  0  0  0  0  0  0
    1.5232   -7.6869   27.1182 C   0  0  0  0  0  0  0  0  0  0  0  0
    8.6878   -6.6715   27.7262 N   0  0  0  0  0  0  0  0  0  0  0  0
    6.9911   -8.2423   27.1808 C   0  0  0  0  0  0  0  0  0  0  0  0
    3.8436   -7.2758   16.0578 C   0  0  0  0  0  0  0  0  0  0  0  0
    3.1882   -9.7190   17.2566 C   0  0  0  0  0  0  0  0  0  0  0  0
    5.3488   -6.1737   26.5092 C   0  0  0  0  0  0  0  0  0  0  0  0
    7.4567   -6.9464   27.2858 C   0  0  0  0  0  0  0  0  0  0  0  0
    0.1921   -5.7592   27.1123 C   0  0  0  0  0  0  0  0  0  0  0  0
    3.5517   -7.7407   25.9711 C   0  0  0  0  0  0  0  0  0  0  0  0
  1  4  4  0
  1 22  4  0
  2 20  4  0
  2 27  4  0
  3 12  4  0
  3 23  4  0
  4 25  4  0
  4 28  1  0
  5  8  4  0
  5 17  4  0
  6  7  4  0
  6 16  4  0
  7 18  4  0
  8 27  4  0
  9 13  4  0
  9 23  4  0
 10 11  1  0
 11 14  2  0
 11 27  1  0
 12 19  1  0
 12 24  4  0
 13 24  4  0
 15 18  1  0
 16 25  4  0
 16 26  4  0
 17 20  4  0
 17 28  1  0
 18 21  4  0
 21 26  4  0
 22 26  4  0
M  END
$$$$

 Created by Python create_sdf_string function

 28 30  0  0  0  0  0  0  0  0999 V2000
    5.7174   -8.4529   26.7190 C   0  0  0  0  0  0  0  0  0  0  0  0
    0.3974   -7.0711   27.5149 C   0  0  0  0  0  0  0  0  0  0  0  0
    2.5338   -7.6891   16.0102 C   0  0  0  0  0  0  0  0  0  0  0  0
    4.8690   -7.4380   26.4151 C   0  0  0  0  0  0  0  0  0  0  0  0
    2.3021   -5.6726   26.0378 C   0  0  0  0  0  0  0  0  0  0  0  0
    7.0880   -4.6163   27.0010 C   0  0  0  0  0  0  0  0  0  0  0  0
    8.3117   -4.3698   27.4436 C   0  0  0  0  0  0  0  0  0  0  0  0
    1.1339   -5.0515   26.3541 C   0  0  0  0  0  0  0  0  0  0  0  0
    4.8080   -8.0362   16.7101 C   0  0  0  0  0  0  0  0  0  0  0  0
   -1.2173   -3.9294   26.9717 O   0  0  0  0  0  0  0  0  0  0  0  0
   -1.0025   -5.0942   27.4586 C   0  0  0  0  0  0  0  0  0  0  0  0
    2.2474   -8.9123   16.6273 C   0  0  0  0  0  0  0  0  0  0  0  0
    4.4957   -9.2636   17.3041 C   0  0  0  0  0  0  0  0  0  0  0  0
   -1.8070   -5.6086   28.1920 O   0  0  0  0  0  0  0  0  0  0  0  0
   10.4296   -5.1799   28.3140 C   0  0  0  0  0  0  0  0  0  0  0  0
    6.6017   -5.9004   26.9187 C   0  0  0  0  0  0  0  0  0  0  0  0
    2.4761   -6.9940   26.4111 N   0  0  0  0  0  0  0  0  0  0  0  0
    9.1353   -5.4053   27.8239 C   0  0  0  0  0  0  0  0  0  0  0  0
    0.9922   -9.3232   16.5995 O   0  0  0  0  0  0  0  0  0  0  0  0
    1.5232   -7.6869   27.1182 C   0  0  0  0  0  0  0  0  0  0  0  0
    8.6878   -6.6715   27.7262 N   0  0  0  0  0  0  0  0  0  0  0  0
    6.9911   -8.2423   27.1808 C   0  0  0  0  0  0  0  0  0  0  0  0
    3.8436   -7.2758   16.0578 C   0  0  0  0  0  0  0  0  0  0  0  0
    3.1882   -9.7190   17.2566 C   0  0  0  0  0  0  0  0  0  0  0  0
    5.3488   -6.1737   26.5092 C   0  0  0  0  0  0  0  0  0  0  0  0
    7.4567   -6.9464   27.2858 C   0  0  0  0  0  0  0  0  0  0  0  0
    0.1921   -5.7592   27.1123 C   0  0  0  0  0  0  0  0  0  0  0  0
    3.5517   -7.7407   25.9711 C   0  0  0  0  0  0  0  0  0  0  0  0
  1  4  4  0
  1 22  4  0
  2 20  4  0
  2 27  4  0
  3 12  4  0
  3 23  4  0
  4 25  4  0
  4 28  1  0
  5  8  4  0
  5 17  4  0
  6  7  4  0
  6 16  4  0
  7 18  4  0
  8 27  4  0
  9 13  4  0
  9 23  4  0
 10 11  1  0
 11 14  2  0
 11 27  1  0
 12 19  1  0
 12 24  4  0
 13 24  4  0
 15 18  1  0
 16 25  4  0
 16 26  4  0
 17 20  4  0
 17 28  1  0
 18 21  4  0
 21 26  4  0
 22 26  4  0
M  END
$$$$

 Created by Python create_sdf_string function

 28 30  0  0  0  0  0  0  0  0999 V2000
    5.7174   -8.4529   26.7190 C   0  0  0  0  0  0  0  0  0  0  0  0
    0.3974   -7.0711   27.5149 C   0  0  0  0  0  0  0  0  0  0  0  0
    2.5338   -7.6891   16.0102 C   0  0  0  0  0  0  0  0  0  0  0  0
    4.8690   -7.4380   26.4151 C   0  0  0  0  0  0  0  0  0  0  0  0
    2.3021   -5.6726   26.0378 C   0  0  0  0  0  0  0  0  0  0  0  0
    7.0880   -4.6163   27.0010 C   0  0  0  0  0  0  0  0  0  0  0  0
    8.3117   -4.3698   27.4436 C   0  0  0  0  0  0  0  0  0  0  0  0
    1.1339   -5.0515   26.3541 C   0  0  0  0  0  0  0  0  0  0  0  0
    4.8080   -8.0362   16.7101 C   0  0  0  0  0  0  0  0  0  0  0  0
   -1.2173   -3.9294   26.9717 O   0  0  0  0  0  0  0  0  0  0  0  0
   -1.0025   -5.0942   27.4586 C   0  0  0  0  0  0  0  0  0  0  0  0
    2.2474   -8.9123   16.6273 C   0  0  0  0  0  0  0  0  0  0  0  0
    4.4957   -9.2636   17.3041 C   0  0  0  0  0  0  0  0  0  0  0  0
   -1.8070   -5.6086   28.1920 O   0  0  0  0  0  0  0  0  0  0  0  0
   10.4296   -5.1799   28.3140 C   0  0  0  0  0  0  0  0  0  0  0  0
    6.6017   -5.9004   26.9187 C   0  0  0  0  0  0  0  0  0  0  0  0
    2.4761   -6.9940   26.4111 N   0  0  0  0  0  0  0  0  0  0  0  0
    9.1353   -5.4053   27.8239 C   0  0  0  0  0  0  0  0  0  0  0  0
    0.9922   -9.3232   16.5995 O   0  0  0  0  0  0  0  0  0  0  0  0
    1.5232   -7.6869   27.1182 C   0  0  0  0  0  0  0  0  0  0  0  0
    8.6878   -6.6715   27.7262 N   0  0  0  0  0  0  0  0  0  0  0  0
    6.9911   -8.2423   27.1808 C   0  0  0  0  0  0  0  0  0  0  0  0
    3.8436   -7.2758   16.0578 C   0  0  0  0  0  0  0  0  0  0  0  0
    3.1882   -9.7190   17.2566 C   0  0  0  0  0  0  0  0  0  0  0  0
    5.3488   -6.1737   26.5092 C   0  0  0  0  0  0  0  0  0  0  0  0
    7.4567   -6.9464   27.2858 C   0  0  0  0  0  0  0  0  0  0  0  0
    0.1921   -5.7592   27.1123 C   0  0  0  0  0  0  0  0  0  0  0  0
    3.5517   -7.7407   25.9711 C   0  0  0  0  0  0  0  0  0  0  0  0
  1  4  4  0
  1 22  4  0
  2 20  4  0
  2 27  4  0
  3 12  4  0
  3 23  4  0
  4 25  4  0
  4 28  1  0
  5  8  4  0
  5 17  4  0
  6  7  4  0
  6 16  4  0
  7 18  4  0
  8 27  4  0
  9 13  4  0
  9 23  4  0
 10 11  1  0
 11 14  2  0
 11 27  1  0
 12 19  1  0
 12 24  4  0
 13 24  4  0
 15 18  1  0
 16 25  4  0
 16 26  4  0
 17 20  4  0
 17 28  1  0
 18 21  4  0
 21 26  4  0
 22 26  4  0
M  END
$$$$

 Created by Python create_sdf_string function

 28 30  0  0  0  0  0  0  0  0999 V2000
    5.7174   -8.4529   26.7190 C   0  0  0  0  0  0  0  0  0  0  0  0
    0.3974   -7.0711   27.5149 C   0  0  0  0  0  0  0  0  0  0  0  0
    2.5338   -7.6891   16.0102 C   0  0  0  0  0  0  0  0  0  0  0  0
    4.8690   -7.4380   26.4151 C   0  0  0  0  0  0  0  0  0  0  0  0
    2.3021   -5.6726   26.0378 C   0  0  0  0  0  0  0  0  0  0  0  0
    7.0880   -4.6163   27.0010 C   0  0  0  0  0  0  0  0  0  0  0  0
    8.3117   -4.3698   27.4436 C   0  0  0  0  0  0  0  0  0  0  0  0
    1.1339   -5.0515   26.3541 C   0  0  0  0  0  0  0  0  0  0  0  0
    4.8080   -8.0362   16.7101 C   0  0  0  0  0  0  0  0  0  0  0  0
   -1.2173   -3.9294   26.9717 O   0  0  0  0  0  0  0  0  0  0  0  0
   -1.0025   -5.0942   27.4586 C   0  0  0  0  0  0  0  0  0  0  0  0
    2.2474   -8.9123   16.6273 C   0  0  0  0  0  0  0  0  0  0  0  0
    4.4957   -9.2636   17.3041 C   0  0  0  0  0  0  0  0  0  0  0  0
   -1.8070   -5.6086   28.1920 O   0  0  0  0  0  0  0  0  0  0  0  0
   10.4296   -5.1799   28.3140 C   0  0  0  0  0  0  0  0  0  0  0  0
    6.6017   -5.9004   26.9187 C   0  0  0  0  0  0  0  0  0  0  0  0
    2.4761   -6.9940   26.4111 N   0  0  0  0  0  0  0  0  0  0  0  0
    9.1353   -5.4053   27.8239 C   0  0  0  0  0  0  0  0  0  0  0  0
    0.9922   -9.3232   16.5995 O   0  0  0  0  0  0  0  0  0  0  0  0
    1.5232   -7.6869   27.1182 C   0  0  0  0  0  0  0  0  0  0  0  0
    8.6878   -6.6715   27.7262 N   0  0  0  0  0  0  0  0  0  0  0  0
    6.9911   -8.2423   27.1808 C   0  0  0  0  0  0  0  0  0  0  0  0
    3.8436   -7.2758   16.0578 C   0  0  0  0  0  0  0  0  0  0  0  0
    3.1882   -9.7190   17.2566 C   0  0  0  0  0  0  0  0  0  0  0  0
    5.3488   -6.1737   26.5092 C   0  0  0  0  0  0  0  0  0  0  0  0
    7.4567   -6.9464   27.2858 C   0  0  0  0  0  0  0  0  0  0  0  0
    0.1921   -5.7592   27.1123 C   0  0  0  0  0  0  0  0  0  0  0  0
    3.5517   -7.7407   25.9711 C   0  0  0  0  0  0  0  0  0  0  0  0
  1  4  4  0
  1 22  4  0
  2 20  4  0
  2 27  4  0
  3 12  4  0
  3 23  4  0
  4 25  4  0
  4 28  1  0
  5  8  4  0
  5 17  4  0
  6  7  4  0
  6 16  4  0
  7 18  4  0
  8 27  4  0
  9 13  4  0
  9 23  4  0
 10 11  1  0
 11 14  2  0
 11 27  1  0
 12 19  1  0
 12 24  4  0
 13 24  4  0
 15 18  1  0
 16 25  4  0
 16 26  4  0
 17 20  4  0
 17 28  1  0
 18 21  4  0
 21 26  4  0
 22 26  4  0
M  END
$$$$

 Created by Python create_sdf_string function

 28 30  0  0  0  0  0  0  0  0999 V2000
    5.7174   -8.4529   26.7190 C   0  0  0  0  0  0  0  0  0  0  0  0
    0.3974   -7.0711   27.5149 C   0  0  0  0  0  0  0  0  0  0  0  0
    2.5338   -7.6891   16.0102 C   0  0  0  0  0  0  0  0  0  0  0  0
    4.8690   -7.4380   26.4151 C   0  0  0  0  0  0  0  0  0  0  0  0
    2.3021   -5.6726   26.0378 C   0  0  0  0  0  0  0  0  0  0  0  0
    7.0880   -4.6163   27.0010 C   0  0  0  0  0  0  0  0  0  0  0  0
    8.3117   -4.3698   27.4436 C   0  0  0  0  0  0  0  0  0  0  0  0
    1.1339   -5.0515   26.3541 C   0  0  0  0  0  0  0  0  0  0  0  0
    4.8080   -8.0362   16.7101 C   0  0  0  0  0  0  0  0  0  0  0  0
   -1.2173   -3.9294   26.9717 O   0  0  0  0  0  0  0  0  0  0  0  0
   -1.0025   -5.0942   27.4586 C   0  0  0  0  0  0  0  0  0  0  0  0
    2.2474   -8.9123   16.6273 C   0  0  0  0  0  0  0  0  0  0  0  0
    4.4957   -9.2636   17.3041 C   0  0  0  0  0  0  0  0  0  0  0  0
   -1.8070   -5.6086   28.1920 O   0  0  0  0  0  0  0  0  0  0  0  0
   10.4296   -5.1799   28.3140 C   0  0  0  0  0  0  0  0  0  0  0  0
    6.6017   -5.9004   26.9187 C   0  0  0  0  0  0  0  0  0  0  0  0
    2.4761   -6.9940   26.4111 N   0  0  0  0  0  0  0  0  0  0  0  0
    9.1353   -5.4053   27.8239 C   0  0  0  0  0  0  0  0  0  0  0  0
    0.9922   -9.3232   16.5995 O   0  0  0  0  0  0  0  0  0  0  0  0
    1.5232   -7.6869   27.1182 C   0  0  0  0  0  0  0  0  0  0  0  0
    8.6878   -6.6715   27.7262 N   0  0  0  0  0  0  0  0  0  0  0  0
    6.9911   -8.2423   27.1808 C   0  0  0  0  0  0  0  0  0  0  0  0
    3.8436   -7.2758   16.0578 C   0  0  0  0  0  0  0  0  0  0  0  0
    3.1882   -9.7190   17.2566 C   0  0  0  0  0  0  0  0  0  0  0  0
    5.3488   -6.1737   26.5092 C   0  0  0  0  0  0  0  0  0  0  0  0
    7.4567   -6.9464   27.2858 C   0  0  0  0  0  0  0  0  0  0  0  0
    0.1921   -5.7592   27.1123 C   0  0  0  0  0  0  0  0  0  0  0  0
    3.5517   -7.7407   25.9711 C   0  0  0  0  0  0  0  0  0  0  0  0
  1  4  4  0
  1 22  4  0
  2 20  4  0
  2 27  4  0
  3 12  4  0
  3 23  4  0
  4 25  4  0
  4 28  1  0
  5  8  4  0
  5 17  4  0
  6  7  4  0
  6 16  4  0
  7 18  4  0
  8 27  4  0
  9 13  4  0
  9 23  4  0
 10 11  1  0
 11 14  2  0
 11 27  1  0
 12 19  1  0
 12 24  4  0
 13 24  4  0
 15 18  1  0
 16 25  4  0
 16 26  4  0
 17 20  4  0
 17 28  1  0
 18 21  4  0
 21 26  4  0
 22 26  4  0
M  END
$$$$

 Created by Python create_sdf_string function

 28 30  0  0  0  0  0  0  0  0999 V2000
    5.7174   -8.4529   26.7190 C   0  0  0  0  0  0  0  0  0  0  0  0
    0.3974   -7.0711   27.5149 C   0  0  0  0  0  0  0  0  0  0  0  0
    2.5338   -7.6891   16.0102 C   0  0  0  0  0  0  0  0  0  0  0  0
    4.8690   -7.4380   26.4151 C   0  0  0  0  0  0  0  0  0  0  0  0
    2.3021   -5.6726   26.0378 C   0  0  0  0  0  0  0  0  0  0  0  0
    7.0880   -4.6163   27.0010 C   0  0  0  0  0  0  0  0  0  0  0  0
    8.3117   -4.3698   27.4436 C   0  0  0  0  0  0  0  0  0  0  0  0
    1.1339   -5.0515   26.3541 C   0  0  0  0  0  0  0  0  0  0  0  0
    4.8080   -8.0362   16.7101 C   0  0  0  0  0  0  0  0  0  0  0  0
   -1.2173   -3.9294   26.9717 O   0  0  0  0  0  0  0  0  0  0  0  0
   -1.0025   -5.0942   27.4586 C   0  0  0  0  0  0  0  0  0  0  0  0
    2.2474   -8.9123   16.6273 C   0  0  0  0  0  0  0  0  0  0  0  0
    4.4957   -9.2636   17.3041 C   0  0  0  0  0  0  0  0  0  0  0  0
   -1.8070   -5.6086   28.1920 O   0  0  0  0  0  0  0  0  0  0  0  0
   10.4296   -5.1799   28.3140 C   0  0  0  0  0  0  0  0  0  0  0  0
    6.6017   -5.9004   26.9187 C   0  0  0  0  0  0  0  0  0  0  0  0
    2.4761   -6.9940   26.4111 N   0  0  0  0  0  0  0  0  0  0  0  0
    9.1353   -5.4053   27.8239 C   0  0  0  0  0  0  0  0  0  0  0  0
    0.9922   -9.3232   16.5995 O   0  0  0  0  0  0  0  0  0  0  0  0
    1.5232   -7.6869   27.1182 C   0  0  0  0  0  0  0  0  0  0  0  0
    8.6878   -6.6715   27.7262 N   0  0  0  0  0  0  0  0  0  0  0  0
    6.9911   -8.2423   27.1808 C   0  0  0  0  0  0  0  0  0  0  0  0
    3.8436   -7.2758   16.0578 C   0  0  0  0  0  0  0  0  0  0  0  0
    3.1882   -9.7190   17.2566 C   0  0  0  0  0  0  0  0  0  0  0  0
    5.3488   -6.1737   26.5092 C   0  0  0  0  0  0  0  0  0  0  0  0
    7.4567   -6.9464   27.2858 C   0  0  0  0  0  0  0  0  0  0  0  0
    0.1921   -5.7592   27.1123 C   0  0  0  0  0  0  0  0  0  0  0  0
    3.5517   -7.7407   25.9711 C   0  0  0  0  0  0  0  0  0  0  0  0
  1  4  4  0
  1 22  4  0
  2 20  4  0
  2 27  4  0
  3 12  4  0
  3 23  4  0
  4 25  4  0
  4 28  1  0
  5  8  4  0
  5 17  4  0
  6  7  4  0
  6 16  4  0
  7 18  4  0
  8 27  4  0
  9 13  4  0
  9 23  4  0
 10 11  1  0
 11 14  2  0
 11 27  1  0
 12 19  1  0
 12 24  4  0
 13 24  4  0
 15 18  1  0
 16 25  4  0
 16 26  4  0
 17 20  4  0
 17 28  1  0
 18 21  4  0
 21 26  4  0
 22 26  4  0
M  END
$$$$

 Created by Python create_sdf_string function

 28 30  0  0  0  0  0  0  0  0999 V2000
    5.7174   -8.4529   26.7190 C   0  0  0  0  0  0  0  0  0  0  0  0
    0.3974   -7.0711   27.5149 C   0  0  0  0  0  0  0  0  0  0  0  0
    2.5338   -7.6891   16.0102 C   0  0  0  0  0  0  0  0  0  0  0  0
    4.8690   -7.4380   26.4151 C   0  0  0  0  0  0  0  0  0  0  0  0
    2.3021   -5.6726   26.0378 C   0  0  0  0  0  0  0  0  0  0  0  0
    7.0880   -4.6163   27.0010 C   0  0  0  0  0  0  0  0  0  0  0  0
    8.3117   -4.3698   27.4436 C   0  0  0  0  0  0  0  0  0  0  0  0
    1.1339   -5.0515   26.3541 C   0  0  0  0  0  0  0  0  0  0  0  0
    4.8080   -8.0362   16.7101 C   0  0  0  0  0  0  0  0  0  0  0  0
   -1.2173   -3.9294   26.9717 O   0  0  0  0  0  0  0  0  0  0  0  0
   -1.0025   -5.0942   27.4586 C   0  0  0  0  0  0  0  0  0  0  0  0
    2.2474   -8.9123   16.6273 C   0  0  0  0  0  0  0  0  0  0  0  0
    4.4957   -9.2636   17.3041 C   0  0  0  0  0  0  0  0  0  0  0  0
   -1.8070   -5.6086   28.1920 O   0  0  0  0  0  0  0  0  0  0  0  0
   10.4296   -5.1799   28.3140 C   0  0  0  0  0  0  0  0  0  0  0  0
    6.6017   -5.9004   26.9187 C   0  0  0  0  0  0  0  0  0  0  0  0
    2.4761   -6.9940   26.4111 N   0  0  0  0  0  0  0  0  0  0  0  0
    9.1353   -5.4053   27.8239 C   0  0  0  0  0  0  0  0  0  0  0  0
    0.9922   -9.3232   16.5995 O   0  0  0  0  0  0  0  0  0  0  0  0
    1.5232   -7.6869   27.1182 C   0  0  0  0  0  0  0  0  0  0  0  0
    8.6878   -6.6715   27.7262 N   0  0  0  0  0  0  0  0  0  0  0  0
    6.9911   -8.2423   27.1808 C   0  0  0  0  0  0  0  0  0  0  0  0
    3.8436   -7.2758   16.0578 C   0  0  0  0  0  0  0  0  0  0  0  0
    3.1882   -9.7190   17.2566 C   0  0  0  0  0  0  0  0  0  0  0  0
    5.3488   -6.1737   26.5092 C   0  0  0  0  0  0  0  0  0  0  0  0
    7.4567   -6.9464   27.2858 C   0  0  0  0  0  0  0  0  0  0  0  0
    0.1921   -5.7592   27.1123 C   0  0  0  0  0  0  0  0  0  0  0  0
    3.5517   -7.7407   25.9711 C   0  0  0  0  0  0  0  0  0  0  0  0
  1  4  4  0
  1 22  4  0
  2 20  4  0
  2 27  4  0
  3 12  4  0
  3 23  4  0
  4 25  4  0
  4 28  1  0
  5  8  4  0
  5 17  4  0
  6  7  4  0
  6 16  4  0
  7 18  4  0
  8 27  4  0
  9 13  4  0
  9 23  4  0
 10 11  1  0
 11 14  2  0
 11 27  1  0
 12 19  1  0
 12 24  4  0
 13 24  4  0
 15 18  1  0
 16 25  4  0
 16 26  4  0
 17 20  4  0
 17 28  1  0
 18 21  4  0
 21 26  4  0
 22 26  4  0
M  END
$$$$

 Created by Python create_sdf_string function

 28 30  0  0  0  0  0  0  0  0999 V2000
    5.7174   -8.4529   26.7190 C   0  0  0  0  0  0  0  0  0  0  0  0
    0.3974   -7.0711   27.5149 C   0  0  0  0  0  0  0  0  0  0  0  0
    2.5338   -7.6891   16.0102 C   0  0  0  0  0  0  0  0  0  0  0  0
    4.8690   -7.4380   26.4151 C   0  0  0  0  0  0  0  0  0  0  0  0
    2.3021   -5.6726   26.0378 C   0  0  0  0  0  0  0  0  0  0  0  0
    7.0880   -4.6163   27.0010 C   0  0  0  0  0  0  0  0  0  0  0  0
    8.3117   -4.3698   27.4436 C   0  0  0  0  0  0  0  0  0  0  0  0
    1.1339   -5.0515   26.3541 C   0  0  0  0  0  0  0  0  0  0  0  0
    4.8080   -8.0362   16.7101 C   0  0  0  0  0  0  0  0  0  0  0  0
   -1.2173   -3.9294   26.9717 O   0  0  0  0  0  0  0  0  0  0  0  0
   -1.0025   -5.0942   27.4586 C   0  0  0  0  0  0  0  0  0  0  0  0
    2.2474   -8.9123   16.6273 C   0  0  0  0  0  0  0  0  0  0  0  0
    4.4957   -9.2636   17.3041 C   0  0  0  0  0  0  0  0  0  0  0  0
   -1.8070   -5.6086   28.1920 O   0  0  0  0  0  0  0  0  0  0  0  0
   10.4296   -5.1799   28.3140 C   0  0  0  0  0  0  0  0  0  0  0  0
    6.6017   -5.9004   26.9187 C   0  0  0  0  0  0  0  0  0  0  0  0
    2.4761   -6.9940   26.4111 N   0  0  0  0  0  0  0  0  0  0  0  0
    9.1353   -5.4053   27.8239 C   0  0  0  0  0  0  0  0  0  0  0  0
    0.9922   -9.3232   16.5995 O   0  0  0  0  0  0  0  0  0  0  0  0
    1.5232   -7.6869   27.1182 C   0  0  0  0  0  0  0  0  0  0  0  0
    8.6878   -6.6715   27.7262 N   0  0  0  0  0  0  0  0  0  0  0  0
    6.9911   -8.2423   27.1808 C   0  0  0  0  0  0  0  0  0  0  0  0
    3.8436   -7.2758   16.0578 C   0  0  0  0  0  0  0  0  0  0  0  0
    3.1882   -9.7190   17.2566 C   0  0  0  0  0  0  0  0  0  0  0  0
    5.3488   -6.1737   26.5092 C   0  0  0  0  0  0  0  0  0  0  0  0
    7.4567   -6.9464   27.2858 C   0  0  0  0  0  0  0  0  0  0  0  0
    0.1921   -5.7592   27.1123 C   0  0  0  0  0  0  0  0  0  0  0  0
    3.5517   -7.7407   25.9711 C   0  0  0  0  0  0  0  0  0  0  0  0
  1  4  4  0
  1 22  4  0
  2 20  4  0
  2 27  4  0
  3 12  4  0
  3 23  4  0
  4 25  4  0
  4 28  1  0
  5  8  4  0
  5 17  4  0
  6  7  4  0
  6 16  4  0
  7 18  4  0
  8 27  4  0
  9 13  4  0
  9 23  4  0
 10 11  1  0
 11 14  2  0
 11 27  1  0
 12 19  1  0
 12 24  4  0
 13 24  4  0
 15 18  1  0
 16 25  4  0
 16 26  4  0
 17 20  4  0
 17 28  1  0
 18 21  4  0
 21 26  4  0
 22 26  4  0
M  END
$$$$

 Created by Python create_sdf_string function

 28 30  0  0  0  0  0  0  0  0999 V2000
    5.7174   -8.4529   26.7190 C   0  0  0  0  0  0  0  0  0  0  0  0
    0.3974   -7.0711   27.5149 C   0  0  0  0  0  0  0  0  0  0  0  0
    2.5338   -7.6891   16.0102 C   0  0  0  0  0  0  0  0  0  0  0  0
    4.8690   -7.4380   26.4151 C   0  0  0  0  0  0  0  0  0  0  0  0
    2.3021   -5.6726   26.0378 C   0  0  0  0  0  0  0  0  0  0  0  0
    7.0880   -4.6163   27.0010 C   0  0  0  0  0  0  0  0  0  0  0  0
    8.3117   -4.3698   27.4436 C   0  0  0  0  0  0  0  0  0  0  0  0
    1.1339   -5.0515   26.3541 C   0  0  0  0  0  0  0  0  0  0  0  0
    4.8080   -8.0362   16.7101 C   0  0  0  0  0  0  0  0  0  0  0  0
   -1.2173   -3.9294   26.9717 O   0  0  0  0  0  0  0  0  0  0  0  0
   -1.0025   -5.0942   27.4586 C   0  0  0  0  0  0  0  0  0  0  0  0
    2.2474   -8.9123   16.6273 C   0  0  0  0  0  0  0  0  0  0  0  0
    4.4957   -9.2636   17.3041 C   0  0  0  0  0  0  0  0  0  0  0  0
   -1.8070   -5.6086   28.1920 O   0  0  0  0  0  0  0  0  0  0  0  0
   10.4296   -5.1799   28.3140 C   0  0  0  0  0  0  0  0  0  0  0  0
    6.6017   -5.9004   26.9187 C   0  0  0  0  0  0  0  0  0  0  0  0
    2.4761   -6.9940   26.4111 N   0  0  0  0  0  0  0  0  0  0  0  0
    9.1353   -5.4053   27.8239 C   0  0  0  0  0  0  0  0  0  0  0  0
    0.9922   -9.3232   16.5995 O   0  0  0  0  0  0  0  0  0  0  0  0
    1.5232   -7.6869   27.1182 C   0  0  0  0  0  0  0  0  0  0  0  0
    8.6878   -6.6715   27.7262 N   0  0  0  0  0  0  0  0  0  0  0  0
    6.9911   -8.2423   27.1808 C   0  0  0  0  0  0  0  0  0  0  0  0
    3.8436   -7.2758   16.0578 C   0  0  0  0  0  0  0  0  0  0  0  0
    3.1882   -9.7190   17.2566 C   0  0  0  0  0  0  0  0  0  0  0  0
    5.3488   -6.1737   26.5092 C   0  0  0  0  0  0  0  0  0  0  0  0
    7.4567   -6.9464   27.2858 C   0  0  0  0  0  0  0  0  0  0  0  0
    0.1921   -5.7592   27.1123 C   0  0  0  0  0  0  0  0  0  0  0  0
    3.5517   -7.7407   25.9711 C   0  0  0  0  0  0  0  0  0  0  0  0
  1  4  4  0
  1 22  4  0
  2 20  4  0
  2 27  4  0
  3 12  4  0
  3 23  4  0
  4 25  4  0
  4 28  1  0
  5  8  4  0
  5 17  4  0
  6  7  4  0
  6 16  4  0
  7 18  4  0
  8 27  4  0
  9 13  4  0
  9 23  4  0
 10 11  1  0
 11 14  2  0
 11 27  1  0
 12 19  1  0
 12 24  4  0
 13 24  4  0
 15 18  1  0
 16 25  4  0
 16 26  4  0
 17 20  4  0
 17 28  1  0
 18 21  4  0
 21 26  4  0
 22 26  4  0
M  END
$$$$

 Created by Python create_sdf_string function

 28 30  0  0  0  0  0  0  0  0999 V2000
    5.7174   -8.4529   26.7190 C   0  0  0  0  0  0  0  0  0  0  0  0
    0.3974   -7.0711   27.5149 C   0  0  0  0  0  0  0  0  0  0  0  0
    2.5338   -7.6891   16.0102 C   0  0  0  0  0  0  0  0  0  0  0  0
    4.8690   -7.4380   26.4151 C   0  0  0  0  0  0  0  0  0  0  0  0
    2.3021   -5.6726   26.0378 C   0  0  0  0  0  0  0  0  0  0  0  0
    7.0880   -4.6163   27.0010 C   0  0  0  0  0  0  0  0  0  0  0  0
    8.3117   -4.3698   27.4436 C   0  0  0  0  0  0  0  0  0  0  0  0
    1.1339   -5.0515   26.3541 C   0  0  0  0  0  0  0  0  0  0  0  0
    4.8080   -8.0362   16.7101 C   0  0  0  0  0  0  0  0  0  0  0  0
   -1.2173   -3.9294   26.9717 O   0  0  0  0  0  0  0  0  0  0  0  0
   -1.0025   -5.0942   27.4586 C   0  0  0  0  0  0  0  0  0  0  0  0
    2.2474   -8.9123   16.6273 C   0  0  0  0  0  0  0  0  0  0  0  0
    4.4957   -9.2636   17.3041 C   0  0  0  0  0  0  0  0  0  0  0  0
   -1.8070   -5.6086   28.1920 O   0  0  0  0  0  0  0  0  0  0  0  0
   10.4296   -5.1799   28.3140 C   0  0  0  0  0  0  0  0  0  0  0  0
    6.6017   -5.9004   26.9187 C   0  0  0  0  0  0  0  0  0  0  0  0
    2.4761   -6.9940   26.4111 N   0  0  0  0  0  0  0  0  0  0  0  0
    9.1353   -5.4053   27.8239 C   0  0  0  0  0  0  0  0  0  0  0  0
    0.9922   -9.3232   16.5995 O   0  0  0  0  0  0  0  0  0  0  0  0
    1.5232   -7.6869   27.1182 C   0  0  0  0  0  0  0  0  0  0  0  0
    8.6878   -6.6715   27.7262 N   0  0  0  0  0  0  0  0  0  0  0  0
    6.9911   -8.2423   27.1808 C   0  0  0  0  0  0  0  0  0  0  0  0
    3.8436   -7.2758   16.0578 C   0  0  0  0  0  0  0  0  0  0  0  0
    3.1882   -9.7190   17.2566 C   0  0  0  0  0  0  0  0  0  0  0  0
    5.3488   -6.1737   26.5092 C   0  0  0  0  0  0  0  0  0  0  0  0
    7.4567   -6.9464   27.2858 C   0  0  0  0  0  0  0  0  0  0  0  0
    0.1921   -5.7592   27.1123 C   0  0  0  0  0  0  0  0  0  0  0  0
    3.5517   -7.7407   25.9711 C   0  0  0  0  0  0  0  0  0  0  0  0
  1  4  4  0
  1 22  4  0
  2 20  4  0
  2 27  4  0
  3 12  4  0
  3 23  4  0
  4 25  4  0
  4 28  1  0
  5  8  4  0
  5 17  4  0
  6  7  4  0
  6 16  4  0
  7 18  4  0
  8 27  4  0
  9 13  4  0
  9 23  4  0
 10 11  1  0
 11 14  2  0
 11 27  1  0
 12 19  1  0
 12 24  4  0
 13 24  4  0
 15 18  1  0
 16 25  4  0
 16 26  4  0
 17 20  4  0
 17 28  1  0
 18 21  4  0
 21 26  4  0
 22 26  4  0
M  END
$$$$

 Created by Python create_sdf_string function

 28 30  0  0  0  0  0  0  0  0999 V2000
    5.7174   -8.4529   26.7190 C   0  0  0  0  0  0  0  0  0  0  0  0
    0.3974   -7.0711   27.5149 C   0  0  0  0  0  0  0  0  0  0  0  0
    2.5338   -7.6891   16.0102 C   0  0  0  0  0  0  0  0  0  0  0  0
    4.8690   -7.4380   26.4151 C   0  0  0  0  0  0  0  0  0  0  0  0
    2.3021   -5.6726   26.0378 C   0  0  0  0  0  0  0  0  0  0  0  0
    7.0880   -4.6163   27.0010 C   0  0  0  0  0  0  0  0  0  0  0  0
    8.3117   -4.3698   27.4436 C   0  0  0  0  0  0  0  0  0  0  0  0
    1.1339   -5.0515   26.3541 C   0  0  0  0  0  0  0  0  0  0  0  0
    4.8080   -8.0362   16.7101 C   0  0  0  0  0  0  0  0  0  0  0  0
   -1.2173   -3.9294   26.9717 O   0  0  0  0  0  0  0  0  0  0  0  0
   -1.0025   -5.0942   27.4586 C   0  0  0  0  0  0  0  0  0  0  0  0
    2.2474   -8.9123   16.6273 C   0  0  0  0  0  0  0  0  0  0  0  0
    4.4957   -9.2636   17.3041 C   0  0  0  0  0  0  0  0  0  0  0  0
   -1.8070   -5.6086   28.1920 O   0  0  0  0  0  0  0  0  0  0  0  0
   10.4296   -5.1799   28.3140 C   0  0  0  0  0  0  0  0  0  0  0  0
    6.6017   -5.9004   26.9187 C   0  0  0  0  0  0  0  0  0  0  0  0
    2.4761   -6.9940   26.4111 N   0  0  0  0  0  0  0  0  0  0  0  0
    9.1353   -5.4053   27.8239 C   0  0  0  0  0  0  0  0  0  0  0  0
    0.9922   -9.3232   16.5995 O   0  0  0  0  0  0  0  0  0  0  0  0
    1.5232   -7.6869   27.1182 C   0  0  0  0  0  0  0  0  0  0  0  0
    8.6878   -6.6715   27.7262 N   0  0  0  0  0  0  0  0  0  0  0  0
    6.9911   -8.2423   27.1808 C   0  0  0  0  0  0  0  0  0  0  0  0
    3.8436   -7.2758   16.0578 C   0  0  0  0  0  0  0  0  0  0  0  0
    3.1882   -9.7190   17.2566 C   0  0  0  0  0  0  0  0  0  0  0  0
    5.3488   -6.1737   26.5092 C   0  0  0  0  0  0  0  0  0  0  0  0
    7.4567   -6.9464   27.2858 C   0  0  0  0  0  0  0  0  0  0  0  0
    0.1921   -5.7592   27.1123 C   0  0  0  0  0  0  0  0  0  0  0  0
    3.5517   -7.7407   25.9711 C   0  0  0  0  0  0  0  0  0  0  0  0
  1  4  4  0
  1 22  4  0
  2 20  4  0
  2 27  4  0
  3 12  4  0
  3 23  4  0
  4 25  4  0
  4 28  1  0
  5  8  4  0
  5 17  4  0
  6  7  4  0
  6 16  4  0
  7 18  4  0
  8 27  4  0
  9 13  4  0
  9 23  4  0
 10 11  1  0
 11 14  2  0
 11 27  1  0
 12 19  1  0
 12 24  4  0
 13 24  4  0
 15 18  1  0
 16 25  4  0
 16 26  4  0
 17 20  4  0
 17 28  1  0
 18 21  4  0
 21 26  4  0
 22 26  4  0
M  END
$$$$

 Created by Python create_sdf_string function

 28 30  0  0  0  0  0  0  0  0999 V2000
    5.7174   -8.4529   26.7190 C   0  0  0  0  0  0  0  0  0  0  0  0
    0.3974   -7.0711   27.5149 C   0  0  0  0  0  0  0  0  0  0  0  0
    2.5338   -7.6891   16.0102 C   0  0  0  0  0  0  0  0  0  0  0  0
    4.8690   -7.4380   26.4151 C   0  0  0  0  0  0  0  0  0  0  0  0
    2.3021   -5.6726   26.0378 C   0  0  0  0  0  0  0  0  0  0  0  0
    7.0880   -4.6163   27.0010 C   0  0  0  0  0  0  0  0  0  0  0  0
    8.3117   -4.3698   27.4436 C   0  0  0  0  0  0  0  0  0  0  0  0
    1.1339   -5.0515   26.3541 C   0  0  0  0  0  0  0  0  0  0  0  0
    4.8080   -8.0362   16.7101 C   0  0  0  0  0  0  0  0  0  0  0  0
   -1.2173   -3.9294   26.9717 O   0  0  0  0  0  0  0  0  0  0  0  0
   -1.0025   -5.0942   27.4586 C   0  0  0  0  0  0  0  0  0  0  0  0
    2.2474   -8.9123   16.6273 C   0  0  0  0  0  0  0  0  0  0  0  0
    4.4957   -9.2636   17.3041 C   0  0  0  0  0  0  0  0  0  0  0  0
   -1.8070   -5.6086   28.1920 O   0  0  0  0  0  0  0  0  0  0  0  0
   10.4296   -5.1799   28.3140 C   0  0  0  0  0  0  0  0  0  0  0  0
    6.6017   -5.9004   26.9187 C   0  0  0  0  0  0  0  0  0  0  0  0
    2.4761   -6.9940   26.4111 N   0  0  0  0  0  0  0  0  0  0  0  0
    9.1353   -5.4053   27.8239 C   0  0  0  0  0  0  0  0  0  0  0  0
    0.9922   -9.3232   16.5995 O   0  0  0  0  0  0  0  0  0  0  0  0
    1.5232   -7.6869   27.1182 C   0  0  0  0  0  0  0  0  0  0  0  0
    8.6878   -6.6715   27.7262 N   0  0  0  0  0  0  0  0  0  0  0  0
    6.9911   -8.2423   27.1808 C   0  0  0  0  0  0  0  0  0  0  0  0
    3.8436   -7.2758   16.0578 C   0  0  0  0  0  0  0  0  0  0  0  0
    3.1882   -9.7190   17.2566 C   0  0  0  0  0  0  0  0  0  0  0  0
    5.3488   -6.1737   26.5092 C   0  0  0  0  0  0  0  0  0  0  0  0
    7.4567   -6.9464   27.2858 C   0  0  0  0  0  0  0  0  0  0  0  0
    0.1921   -5.7592   27.1123 C   0  0  0  0  0  0  0  0  0  0  0  0
    3.5517   -7.7407   25.9711 C   0  0  0  0  0  0  0  0  0  0  0  0
  1  4  4  0
  1 22  4  0
  2 20  4  0
  2 27  4  0
  3 12  4  0
  3 23  4  0
  4 25  4  0
  4 28  1  0
  5  8  4  0
  5 17  4  0
  6  7  4  0
  6 16  4  0
  7 18  4  0
  8 27  4  0
  9 13  4  0
  9 23  4  0
 10 11  1  0
 11 14  2  0
 11 27  1  0
 12 19  1  0
 12 24  4  0
 13 24  4  0
 15 18  1  0
 16 25  4  0
 16 26  4  0
 17 20  4  0
 17 28  1  0
 18 21  4  0
 21 26  4  0
 22 26  4  0
M  END
$$$$

 Created by Python create_sdf_string function

 28 30  0  0  0  0  0  0  0  0999 V2000
    5.7174   -8.4529   26.7190 C   0  0  0  0  0  0  0  0  0  0  0  0
    0.3974   -7.0711   27.5149 C   0  0  0  0  0  0  0  0  0  0  0  0
    2.5338   -7.6891   16.0102 C   0  0  0  0  0  0  0  0  0  0  0  0
    4.8690   -7.4380   26.4151 C   0  0  0  0  0  0  0  0  0  0  0  0
    2.3021   -5.6726   26.0378 C   0  0  0  0  0  0  0  0  0  0  0  0
    7.0880   -4.6163   27.0010 C   0  0  0  0  0  0  0  0  0  0  0  0
    8.3117   -4.3698   27.4436 C   0  0  0  0  0  0  0  0  0  0  0  0
    1.1339   -5.0515   26.3541 C   0  0  0  0  0  0  0  0  0  0  0  0
    4.8080   -8.0362   16.7101 C   0  0  0  0  0  0  0  0  0  0  0  0
   -1.2173   -3.9294   26.9717 O   0  0  0  0  0  0  0  0  0  0  0  0
   -1.0025   -5.0942   27.4586 C   0  0  0  0  0  0  0  0  0  0  0  0
    2.2474   -8.9123   16.6273 C   0  0  0  0  0  0  0  0  0  0  0  0
    4.4957   -9.2636   17.3041 C   0  0  0  0  0  0  0  0  0  0  0  0
   -1.8070   -5.6086   28.1920 O   0  0  0  0  0  0  0  0  0  0  0  0
   10.4296   -5.1799   28.3140 C   0  0  0  0  0  0  0  0  0  0  0  0
    6.6017   -5.9004   26.9187 C   0  0  0  0  0  0  0  0  0  0  0  0
    2.4761   -6.9940   26.4111 N   0  0  0  0  0  0  0  0  0  0  0  0
    9.1353   -5.4053   27.8239 C   0  0  0  0  0  0  0  0  0  0  0  0
    0.9922   -9.3232   16.5995 O   0  0  0  0  0  0  0  0  0  0  0  0
    1.5232   -7.6869   27.1182 C   0  0  0  0  0  0  0  0  0  0  0  0
    8.6878   -6.6715   27.7262 N   0  0  0  0  0  0  0  0  0  0  0  0
    6.9911   -8.2423   27.1808 C   0  0  0  0  0  0  0  0  0  0  0  0
    3.8436   -7.2758   16.0578 C   0  0  0  0  0  0  0  0  0  0  0  0
    3.1882   -9.7190   17.2566 C   0  0  0  0  0  0  0  0  0  0  0  0
    5.3488   -6.1737   26.5092 C   0  0  0  0  0  0  0  0  0  0  0  0
    7.4567   -6.9464   27.2858 C   0  0  0  0  0  0  0  0  0  0  0  0
    0.1921   -5.7592   27.1123 C   0  0  0  0  0  0  0  0  0  0  0  0
    3.5517   -7.7407   25.9711 C   0  0  0  0  0  0  0  0  0  0  0  0
  1  4  4  0
  1 22  4  0
  2 20  4  0
  2 27  4  0
  3 12  4  0
  3 23  4  0
  4 25  4  0
  4 28  1  0
  5  8  4  0
  5 17  4  0
  6  7  4  0
  6 16  4  0
  7 18  4  0
  8 27  4  0
  9 13  4  0
  9 23  4  0
 10 11  1  0
 11 14  2  0
 11 27  1  0
 12 19  1  0
 12 24  4  0
 13 24  4  0
 15 18  1  0
 16 25  4  0
 16 26  4  0
 17 20  4  0
 17 28  1  0
 18 21  4  0
 21 26  4  0
 22 26  4  0
M  END
$$$$

 Created by Python create_sdf_string function

 28 30  0  0  0  0  0  0  0  0999 V2000
    5.7174   -8.4529   26.7190 C   0  0  0  0  0  0  0  0  0  0  0  0
    0.3974   -7.0711   27.5149 C   0  0  0  0  0  0  0  0  0  0  0  0
    2.5338   -7.6891   16.0102 C   0  0  0  0  0  0  0  0  0  0  0  0
    4.8690   -7.4380   26.4151 C   0  0  0  0  0  0  0  0  0  0  0  0
    2.3021   -5.6726   26.0378 C   0  0  0  0  0  0  0  0  0  0  0  0
    7.0880   -4.6163   27.0010 C   0  0  0  0  0  0  0  0  0  0  0  0
    8.3117   -4.3698   27.4436 C   0  0  0  0  0  0  0  0  0  0  0  0
    1.1339   -5.0515   26.3541 C   0  0  0  0  0  0  0  0  0  0  0  0
    4.8080   -8.0362   16.7101 C   0  0  0  0  0  0  0  0  0  0  0  0
   -1.2173   -3.9294   26.9717 O   0  0  0  0  0  0  0  0  0  0  0  0
   -1.0025   -5.0942   27.4586 C   0  0  0  0  0  0  0  0  0  0  0  0
    2.2474   -8.9123   16.6273 C   0  0  0  0  0  0  0  0  0  0  0  0
    4.4957   -9.2636   17.3041 C   0  0  0  0  0  0  0  0  0  0  0  0
   -1.8070   -5.6086   28.1920 O   0  0  0  0  0  0  0  0  0  0  0  0
   10.4296   -5.1799   28.3140 C   0  0  0  0  0  0  0  0  0  0  0  0
    6.6017   -5.9004   26.9187 C   0  0  0  0  0  0  0  0  0  0  0  0
    2.4761   -6.9940   26.4111 N   0  0  0  0  0  0  0  0  0  0  0  0
    9.1353   -5.4053   27.8239 C   0  0  0  0  0  0  0  0  0  0  0  0
    0.9922   -9.3232   16.5995 O   0  0  0  0  0  0  0  0  0  0  0  0
    1.5232   -7.6869   27.1182 C   0  0  0  0  0  0  0  0  0  0  0  0
    8.6878   -6.6715   27.7262 N   0  0  0  0  0  0  0  0  0  0  0  0
    6.9911   -8.2423   27.1808 C   0  0  0  0  0  0  0  0  0  0  0  0
    3.8436   -7.2758   16.0578 C   0  0  0  0  0  0  0  0  0  0  0  0
    3.1882   -9.7190   17.2566 C   0  0  0  0  0  0  0  0  0  0  0  0
    5.3488   -6.1737   26.5092 C   0  0  0  0  0  0  0  0  0  0  0  0
    7.4567   -6.9464   27.2858 C   0  0  0  0  0  0  0  0  0  0  0  0
    0.1921   -5.7592   27.1123 C   0  0  0  0  0  0  0  0  0  0  0  0
    3.5517   -7.7407   25.9711 C   0  0  0  0  0  0  0  0  0  0  0  0
  1  4  4  0
  1 22  4  0
  2 20  4  0
  2 27  4  0
  3 12  4  0
  3 23  4  0
  4 25  4  0
  4 28  1  0
  5  8  4  0
  5 17  4  0
  6  7  4  0
  6 16  4  0
  7 18  4  0
  8 27  4  0
  9 13  4  0
  9 23  4  0
 10 11  1  0
 11 14  2  0
 11 27  1  0
 12 19  1  0
 12 24  4  0
 13 24  4  0
 15 18  1  0
 16 25  4  0
 16 26  4  0
 17 20  4  0
 17 28  1  0
 18 21  4  0
 21 26  4  0
 22 26  4  0
M  END
$$$$

 Created by Python create_sdf_string function

 28 30  0  0  0  0  0  0  0  0999 V2000
    5.7174   -8.4529   26.7190 C   0  0  0  0  0  0  0  0  0  0  0  0
    0.3974   -7.0711   27.5149 C   0  0  0  0  0  0  0  0  0  0  0  0
    2.5338   -7.6891   16.0102 C   0  0  0  0  0  0  0  0  0  0  0  0
    4.8690   -7.4380   26.4151 C   0  0  0  0  0  0  0  0  0  0  0  0
    2.3021   -5.6726   26.0378 C   0  0  0  0  0  0  0  0  0  0  0  0
    7.0880   -4.6163   27.0010 C   0  0  0  0  0  0  0  0  0  0  0  0
    8.3117   -4.3698   27.4436 C   0  0  0  0  0  0  0  0  0  0  0  0
    1.1339   -5.0515   26.3541 C   0  0  0  0  0  0  0  0  0  0  0  0
    4.8080   -8.0362   16.7101 C   0  0  0  0  0  0  0  0  0  0  0  0
   -1.2173   -3.9294   26.9717 O   0  0  0  0  0  0  0  0  0  0  0  0
   -1.0025   -5.0942   27.4586 C   0  0  0  0  0  0  0  0  0  0  0  0
    2.2474   -8.9123   16.6273 C   0  0  0  0  0  0  0  0  0  0  0  0
    4.4957   -9.2636   17.3041 C   0  0  0  0  0  0  0  0  0  0  0  0
   -1.8070   -5.6086   28.1920 O   0  0  0  0  0  0  0  0  0  0  0  0
   10.4296   -5.1799   28.3140 C   0  0  0  0  0  0  0  0  0  0  0  0
    6.6017   -5.9004   26.9187 C   0  0  0  0  0  0  0  0  0  0  0  0
    2.4761   -6.9940   26.4111 N   0  0  0  0  0  0  0  0  0  0  0  0
    9.1353   -5.4053   27.8239 C   0  0  0  0  0  0  0  0  0  0  0  0
    0.9922   -9.3232   16.5995 O   0  0  0  0  0  0  0  0  0  0  0  0
    1.5232   -7.6869   27.1182 C   0  0  0  0  0  0  0  0  0  0  0  0
    8.6878   -6.6715   27.7262 N   0  0  0  0  0  0  0  0  0  0  0  0
    6.9911   -8.2423   27.1808 C   0  0  0  0  0  0  0  0  0  0  0  0
    3.8436   -7.2758   16.0578 C   0  0  0  0  0  0  0  0  0  0  0  0
    3.1882   -9.7190   17.2566 C   0  0  0  0  0  0  0  0  0  0  0  0
    5.3488   -6.1737   26.5092 C   0  0  0  0  0  0  0  0  0  0  0  0
    7.4567   -6.9464   27.2858 C   0  0  0  0  0  0  0  0  0  0  0  0
    0.1921   -5.7592   27.1123 C   0  0  0  0  0  0  0  0  0  0  0  0
    3.5517   -7.7407   25.9711 C   0  0  0  0  0  0  0  0  0  0  0  0
  1  4  4  0
  1 22  4  0
  2 20  4  0
  2 27  4  0
  3 12  4  0
  3 23  4  0
  4 25  4  0
  4 28  1  0
  5  8  4  0
  5 17  4  0
  6  7  4  0
  6 16  4  0
  7 18  4  0
  8 27  4  0
  9 13  4  0
  9 23  4  0
 10 11  1  0
 11 14  2  0
 11 27  1  0
 12 19  1  0
 12 24  4  0
 13 24  4  0
 15 18  1  0
 16 25  4  0
 16 26  4  0
 17 20  4  0
 17 28  1  0
 18 21  4  0
 21 26  4  0
 22 26  4  0
M  END
$$$$

 Created by Python create_sdf_string function

 28 30  0  0  0  0  0  0  0  0999 V2000
    5.7174   -8.4529   26.7190 C   0  0  0  0  0  0  0  0  0  0  0  0
    0.3974   -7.0711   27.5149 C   0  0  0  0  0  0  0  0  0  0  0  0
    2.5338   -7.6891   16.0102 C   0  0  0  0  0  0  0  0  0  0  0  0
    4.8690   -7.4380   26.4151 C   0  0  0  0  0  0  0  0  0  0  0  0
    2.3021   -5.6726   26.0378 C   0  0  0  0  0  0  0  0  0  0  0  0
    7.0880   -4.6163   27.0010 C   0  0  0  0  0  0  0  0  0  0  0  0
    8.3117   -4.3698   27.4436 C   0  0  0  0  0  0  0  0  0  0  0  0
    1.1339   -5.0515   26.3541 C   0  0  0  0  0  0  0  0  0  0  0  0
    4.8080   -8.0362   16.7101 C   0  0  0  0  0  0  0  0  0  0  0  0
   -1.2173   -3.9294   26.9717 O   0  0  0  0  0  0  0  0  0  0  0  0
   -1.0025   -5.0942   27.4586 C   0  0  0  0  0  0  0  0  0  0  0  0
    2.2474   -8.9123   16.6273 C   0  0  0  0  0  0  0  0  0  0  0  0
    4.4957   -9.2636   17.3041 C   0  0  0  0  0  0  0  0  0  0  0  0
   -1.8070   -5.6086   28.1920 O   0  0  0  0  0  0  0  0  0  0  0  0
   10.4296   -5.1799   28.3140 C   0  0  0  0  0  0  0  0  0  0  0  0
    6.6017   -5.9004   26.9187 C   0  0  0  0  0  0  0  0  0  0  0  0
    2.4761   -6.9940   26.4111 N   0  0  0  0  0  0  0  0  0  0  0  0
    9.1353   -5.4053   27.8239 C   0  0  0  0  0  0  0  0  0  0  0  0
    0.9922   -9.3232   16.5995 O   0  0  0  0  0  0  0  0  0  0  0  0
    1.5232   -7.6869   27.1182 C   0  0  0  0  0  0  0  0  0  0  0  0
    8.6878   -6.6715   27.7262 N   0  0  0  0  0  0  0  0  0  0  0  0
    6.9911   -8.2423   27.1808 C   0  0  0  0  0  0  0  0  0  0  0  0
    3.8436   -7.2758   16.0578 C   0  0  0  0  0  0  0  0  0  0  0  0
    3.1882   -9.7190   17.2566 C   0  0  0  0  0  0  0  0  0  0  0  0
    5.3488   -6.1737   26.5092 C   0  0  0  0  0  0  0  0  0  0  0  0
    7.4567   -6.9464   27.2858 C   0  0  0  0  0  0  0  0  0  0  0  0
    0.1921   -5.7592   27.1123 C   0  0  0  0  0  0  0  0  0  0  0  0
    3.5517   -7.7407   25.9711 C   0  0  0  0  0  0  0  0  0  0  0  0
  1  4  4  0
  1 22  4  0
  2 20  4  0
  2 27  4  0
  3 12  4  0
  3 23  4  0
  4 25  4  0
  4 28  1  0
  5  8  4  0
  5 17  4  0
  6  7  4  0
  6 16  4  0
  7 18  4  0
  8 27  4  0
  9 13  4  0
  9 23  4  0
 10 11  1  0
 11 14  2  0
 11 27  1  0
 12 19  1  0
 12 24  4  0
 13 24  4  0
 15 18  1  0
 16 25  4  0
 16 26  4  0
 17 20  4  0
 17 28  1  0
 18 21  4  0
 21 26  4  0
 22 26  4  0
M  END
$$$$

 Created by Python create_sdf_string function

 28 30  0  0  0  0  0  0  0  0999 V2000
    5.7174   -8.4529   26.7190 C   0  0  0  0  0  0  0  0  0  0  0  0
    0.3974   -7.0711   27.5149 C   0  0  0  0  0  0  0  0  0  0  0  0
    2.5338   -7.6891   16.0102 C   0  0  0  0  0  0  0  0  0  0  0  0
    4.8690   -7.4380   26.4151 C   0  0  0  0  0  0  0  0  0  0  0  0
    2.3021   -5.6726   26.0378 C   0  0  0  0  0  0  0  0  0  0  0  0
    7.0880   -4.6163   27.0010 C   0  0  0  0  0  0  0  0  0  0  0  0
    8.3117   -4.3698   27.4436 C   0  0  0  0  0  0  0  0  0  0  0  0
    1.1339   -5.0515   26.3541 C   0  0  0  0  0  0  0  0  0  0  0  0
    4.8080   -8.0362   16.7101 C   0  0  0  0  0  0  0  0  0  0  0  0
   -1.2173   -3.9294   26.9717 O   0  0  0  0  0  0  0  0  0  0  0  0
   -1.0025   -5.0942   27.4586 C   0  0  0  0  0  0  0  0  0  0  0  0
    2.2474   -8.9123   16.6273 C   0  0  0  0  0  0  0  0  0  0  0  0
    4.4957   -9.2636   17.3041 C   0  0  0  0  0  0  0  0  0  0  0  0
   -1.8070   -5.6086   28.1920 O   0  0  0  0  0  0  0  0  0  0  0  0
   10.4296   -5.1799   28.3140 C   0  0  0  0  0  0  0  0  0  0  0  0
    6.6017   -5.9004   26.9187 C   0  0  0  0  0  0  0  0  0  0  0  0
    2.4761   -6.9940   26.4111 N   0  0  0  0  0  0  0  0  0  0  0  0
    9.1353   -5.4053   27.8239 C   0  0  0  0  0  0  0  0  0  0  0  0
    0.9922   -9.3232   16.5995 O   0  0  0  0  0  0  0  0  0  0  0  0
    1.5232   -7.6869   27.1182 C   0  0  0  0  0  0  0  0  0  0  0  0
    8.6878   -6.6715   27.7262 N   0  0  0  0  0  0  0  0  0  0  0  0
    6.9911   -8.2423   27.1808 C   0  0  0  0  0  0  0  0  0  0  0  0
    3.8436   -7.2758   16.0578 C   0  0  0  0  0  0  0  0  0  0  0  0
    3.1882   -9.7190   17.2566 C   0  0  0  0  0  0  0  0  0  0  0  0
    5.3488   -6.1737   26.5092 C   0  0  0  0  0  0  0  0  0  0  0  0
    7.4567   -6.9464   27.2858 C   0  0  0  0  0  0  0  0  0  0  0  0
    0.1921   -5.7592   27.1123 C   0  0  0  0  0  0  0  0  0  0  0  0
    3.5517   -7.7407   25.9711 C   0  0  0  0  0  0  0  0  0  0  0  0
  1  4  4  0
  1 22  4  0
  2 20  4  0
  2 27  4  0
  3 12  4  0
  3 23  4  0
  4 25  4  0
  4 28  1  0
  5  8  4  0
  5 17  4  0
  6  7  4  0
  6 16  4  0
  7 18  4  0
  8 27  4  0
  9 13  4  0
  9 23  4  0
 10 11  1  0
 11 14  2  0
 11 27  1  0
 12 19  1  0
 12 24  4  0
 13 24  4  0
 15 18  1  0
 16 25  4  0
 16 26  4  0
 17 20  4  0
 17 28  1  0
 18 21  4  0
 21 26  4  0
 22 26  4  0
M  END
$$$$

 Created by Python create_sdf_string function

 28 30  0  0  0  0  0  0  0  0999 V2000
    5.7174   -8.4529   26.7190 C   0  0  0  0  0  0  0  0  0  0  0  0
    0.3974   -7.0711   27.5149 C   0  0  0  0  0  0  0  0  0  0  0  0
    2.5338   -7.6891   16.0102 C   0  0  0  0  0  0  0  0  0  0  0  0
    4.8690   -7.4380   26.4151 C   0  0  0  0  0  0  0  0  0  0  0  0
    2.3021   -5.6726   26.0378 C   0  0  0  0  0  0  0  0  0  0  0  0
    7.0880   -4.6163   27.0010 C   0  0  0  0  0  0  0  0  0  0  0  0
    8.3117   -4.3698   27.4436 C   0  0  0  0  0  0  0  0  0  0  0  0
    1.1339   -5.0515   26.3541 C   0  0  0  0  0  0  0  0  0  0  0  0
    4.8080   -8.0362   16.7101 C   0  0  0  0  0  0  0  0  0  0  0  0
   -1.2173   -3.9294   26.9717 O   0  0  0  0  0  0  0  0  0  0  0  0
   -1.0025   -5.0942   27.4586 C   0  0  0  0  0  0  0  0  0  0  0  0
    2.2474   -8.9123   16.6273 C   0  0  0  0  0  0  0  0  0  0  0  0
    4.4957   -9.2636   17.3041 C   0  0  0  0  0  0  0  0  0  0  0  0
   -1.8070   -5.6086   28.1920 O   0  0  0  0  0  0  0  0  0  0  0  0
   10.4296   -5.1799   28.3140 C   0  0  0  0  0  0  0  0  0  0  0  0
    6.6017   -5.9004   26.9187 C   0  0  0  0  0  0  0  0  0  0  0  0
    2.4761   -6.9940   26.4111 N   0  0  0  0  0  0  0  0  0  0  0  0
    9.1353   -5.4053   27.8239 C   0  0  0  0  0  0  0  0  0  0  0  0
    0.9922   -9.3232   16.5995 O   0  0  0  0  0  0  0  0  0  0  0  0
    1.5232   -7.6869   27.1182 C   0  0  0  0  0  0  0  0  0  0  0  0
    8.6878   -6.6715   27.7262 N   0  0  0  0  0  0  0  0  0  0  0  0
    6.9911   -8.2423   27.1808 C   0  0  0  0  0  0  0  0  0  0  0  0
    3.8436   -7.2758   16.0578 C   0  0  0  0  0  0  0  0  0  0  0  0
    3.1882   -9.7190   17.2566 C   0  0  0  0  0  0  0  0  0  0  0  0
    5.3488   -6.1737   26.5092 C   0  0  0  0  0  0  0  0  0  0  0  0
    7.4567   -6.9464   27.2858 C   0  0  0  0  0  0  0  0  0  0  0  0
    0.1921   -5.7592   27.1123 C   0  0  0  0  0  0  0  0  0  0  0  0
    3.5517   -7.7407   25.9711 C   0  0  0  0  0  0  0  0  0  0  0  0
  1  4  4  0
  1 22  4  0
  2 20  4  0
  2 27  4  0
  3 12  4  0
  3 23  4  0
  4 25  4  0
  4 28  1  0
  5  8  4  0
  5 17  4  0
  6  7  4  0
  6 16  4  0
  7 18  4  0
  8 27  4  0
  9 13  4  0
  9 23  4  0
 10 11  1  0
 11 14  2  0
 11 27  1  0
 12 19  1  0
 12 24  4  0
 13 24  4  0
 15 18  1  0
 16 25  4  0
 16 26  4  0
 17 20  4  0
 17 28  1  0
 18 21  4  0
 21 26  4  0
 22 26  4  0
M  END
$$$$

 Created by Python create_sdf_string function

 28 30  0  0  0  0  0  0  0  0999 V2000
    5.7174   -8.4529   26.7190 C   0  0  0  0  0  0  0  0  0  0  0  0
    0.3974   -7.0711   27.5149 C   0  0  0  0  0  0  0  0  0  0  0  0
    2.5338   -7.6891   16.0102 C   0  0  0  0  0  0  0  0  0  0  0  0
    4.8690   -7.4380   26.4151 C   0  0  0  0  0  0  0  0  0  0  0  0
    2.3021   -5.6726   26.0378 C   0  0  0  0  0  0  0  0  0  0  0  0
    7.0880   -4.6163   27.0010 C   0  0  0  0  0  0  0  0  0  0  0  0
    8.3117   -4.3698   27.4436 C   0  0  0  0  0  0  0  0  0  0  0  0
    1.1339   -5.0515   26.3541 C   0  0  0  0  0  0  0  0  0  0  0  0
    4.8080   -8.0362   16.7101 C   0  0  0  0  0  0  0  0  0  0  0  0
   -1.2173   -3.9294   26.9717 O   0  0  0  0  0  0  0  0  0  0  0  0
   -1.0025   -5.0942   27.4586 C   0  0  0  0  0  0  0  0  0  0  0  0
    2.2474   -8.9123   16.6273 C   0  0  0  0  0  0  0  0  0  0  0  0
    4.4957   -9.2636   17.3041 C   0  0  0  0  0  0  0  0  0  0  0  0
   -1.8070   -5.6086   28.1920 O   0  0  0  0  0  0  0  0  0  0  0  0
   10.4296   -5.1799   28.3140 C   0  0  0  0  0  0  0  0  0  0  0  0
    6.6017   -5.9004   26.9187 C   0  0  0  0  0  0  0  0  0  0  0  0
    2.4761   -6.9940   26.4111 N   0  0  0  0  0  0  0  0  0  0  0  0
    9.1353   -5.4053   27.8239 C   0  0  0  0  0  0  0  0  0  0  0  0
    0.9922   -9.3232   16.5995 O   0  0  0  0  0  0  0  0  0  0  0  0
    1.5232   -7.6869   27.1182 C   0  0  0  0  0  0  0  0  0  0  0  0
    8.6878   -6.6715   27.7262 N   0  0  0  0  0  0  0  0  0  0  0  0
    6.9911   -8.2423   27.1808 C   0  0  0  0  0  0  0  0  0  0  0  0
    3.8436   -7.2758   16.0578 C   0  0  0  0  0  0  0  0  0  0  0  0
    3.1882   -9.7190   17.2566 C   0  0  0  0  0  0  0  0  0  0  0  0
    5.3488   -6.1737   26.5092 C   0  0  0  0  0  0  0  0  0  0  0  0
    7.4567   -6.9464   27.2858 C   0  0  0  0  0  0  0  0  0  0  0  0
    0.1921   -5.7592   27.1123 C   0  0  0  0  0  0  0  0  0  0  0  0
    3.5517   -7.7407   25.9711 C   0  0  0  0  0  0  0  0  0  0  0  0
  1  4  4  0
  1 22  4  0
  2 20  4  0
  2 27  4  0
  3 12  4  0
  3 23  4  0
  4 25  4  0
  4 28  1  0
  5  8  4  0
  5 17  4  0
  6  7  4  0
  6 16  4  0
  7 18  4  0
  8 27  4  0
  9 13  4  0
  9 23  4  0
 10 11  1  0
 11 14  2  0
 11 27  1  0
 12 19  1  0
 12 24  4  0
 13 24  4  0
 15 18  1  0
 16 25  4  0
 16 26  4  0
 17 20  4  0
 17 28  1  0
 18 21  4  0
 21 26  4  0
 22 26  4  0
M  END
$$$$

 Created by Python create_sdf_string function

 28 30  0  0  0  0  0  0  0  0999 V2000
    5.7174   -8.4529   26.7190 C   0  0  0  0  0  0  0  0  0  0  0  0
    0.3974   -7.0711   27.5149 C   0  0  0  0  0  0  0  0  0  0  0  0
    2.5338   -7.6891   16.0102 C   0  0  0  0  0  0  0  0  0  0  0  0
    4.8690   -7.4380   26.4151 C   0  0  0  0  0  0  0  0  0  0  0  0
    2.3021   -5.6726   26.0378 C   0  0  0  0  0  0  0  0  0  0  0  0
    7.0880   -4.6163   27.0010 C   0  0  0  0  0  0  0  0  0  0  0  0
    8.3117   -4.3698   27.4436 C   0  0  0  0  0  0  0  0  0  0  0  0
    1.1339   -5.0515   26.3541 C   0  0  0  0  0  0  0  0  0  0  0  0
    4.8080   -8.0362   16.7101 C   0  0  0  0  0  0  0  0  0  0  0  0
   -1.2173   -3.9294   26.9717 O   0  0  0  0  0  0  0  0  0  0  0  0
   -1.0025   -5.0942   27.4586 C   0  0  0  0  0  0  0  0  0  0  0  0
    2.2474   -8.9123   16.6273 C   0  0  0  0  0  0  0  0  0  0  0  0
    4.4957   -9.2636   17.3041 C   0  0  0  0  0  0  0  0  0  0  0  0
   -1.8070   -5.6086   28.1920 O   0  0  0  0  0  0  0  0  0  0  0  0
   10.4296   -5.1799   28.3140 C   0  0  0  0  0  0  0  0  0  0  0  0
    6.6017   -5.9004   26.9187 C   0  0  0  0  0  0  0  0  0  0  0  0
    2.4761   -6.9940   26.4111 N   0  0  0  0  0  0  0  0  0  0  0  0
    9.1353   -5.4053   27.8239 C   0  0  0  0  0  0  0  0  0  0  0  0
    0.9922   -9.3232   16.5995 O   0  0  0  0  0  0  0  0  0  0  0  0
    1.5232   -7.6869   27.1182 C   0  0  0  0  0  0  0  0  0  0  0  0
    8.6878   -6.6715   27.7262 N   0  0  0  0  0  0  0  0  0  0  0  0
    6.9911   -8.2423   27.1808 C   0  0  0  0  0  0  0  0  0  0  0  0
    3.8436   -7.2758   16.0578 C   0  0  0  0  0  0  0  0  0  0  0  0
    3.1882   -9.7190   17.2566 C   0  0  0  0  0  0  0  0  0  0  0  0
    5.3488   -6.1737   26.5092 C   0  0  0  0  0  0  0  0  0  0  0  0
    7.4567   -6.9464   27.2858 C   0  0  0  0  0  0  0  0  0  0  0  0
    0.1921   -5.7592   27.1123 C   0  0  0  0  0  0  0  0  0  0  0  0
    3.5517   -7.7407   25.9711 C   0  0  0  0  0  0  0  0  0  0  0  0
  1  4  4  0
  1 22  4  0
  2 20  4  0
  2 27  4  0
  3 12  4  0
  3 23  4  0
  4 25  4  0
  4 28  1  0
  5  8  4  0
  5 17  4  0
  6  7  4  0
  6 16  4  0
  7 18  4  0
  8 27  4  0
  9 13  4  0
  9 23  4  0
 10 11  1  0
 11 14  2  0
 11 27  1  0
 12 19  1  0
 12 24  4  0
 13 24  4  0
 15 18  1  0
 16 25  4  0
 16 26  4  0
 17 20  4  0
 17 28  1  0
 18 21  4  0
 21 26  4  0
 22 26  4  0
M  END
$$$$

 Created by Python create_sdf_string function

 28 30  0  0  0  0  0  0  0  0999 V2000
    5.7174   -8.4529   26.7190 C   0  0  0  0  0  0  0  0  0  0  0  0
    0.3974   -7.0711   27.5149 C   0  0  0  0  0  0  0  0  0  0  0  0
    2.5338   -7.6891   16.0102 C   0  0  0  0  0  0  0  0  0  0  0  0
    4.8690   -7.4380   26.4151 C   0  0  0  0  0  0  0  0  0  0  0  0
    2.3021   -5.6726   26.0378 C   0  0  0  0  0  0  0  0  0  0  0  0
    7.0880   -4.6163   27.0010 C   0  0  0  0  0  0  0  0  0  0  0  0
    8.3117   -4.3698   27.4436 C   0  0  0  0  0  0  0  0  0  0  0  0
    1.1339   -5.0515   26.3541 C   0  0  0  0  0  0  0  0  0  0  0  0
    4.8080   -8.0362   16.7101 C   0  0  0  0  0  0  0  0  0  0  0  0
   -1.2173   -3.9294   26.9717 O   0  0  0  0  0  0  0  0  0  0  0  0
   -1.0025   -5.0942   27.4586 C   0  0  0  0  0  0  0  0  0  0  0  0
    2.2474   -8.9123   16.6273 C   0  0  0  0  0  0  0  0  0  0  0  0
    4.4957   -9.2636   17.3041 C   0  0  0  0  0  0  0  0  0  0  0  0
   -1.8070   -5.6086   28.1920 O   0  0  0  0  0  0  0  0  0  0  0  0
   10.4296   -5.1799   28.3140 C   0  0  0  0  0  0  0  0  0  0  0  0
    6.6017   -5.9004   26.9187 C   0  0  0  0  0  0  0  0  0  0  0  0
    2.4761   -6.9940   26.4111 N   0  0  0  0  0  0  0  0  0  0  0  0
    9.1353   -5.4053   27.8239 C   0  0  0  0  0  0  0  0  0  0  0  0
    0.9922   -9.3232   16.5995 O   0  0  0  0  0  0  0  0  0  0  0  0
    1.5232   -7.6869   27.1182 C   0  0  0  0  0  0  0  0  0  0  0  0
    8.6878   -6.6715   27.7262 N   0  0  0  0  0  0  0  0  0  0  0  0
    6.9911   -8.2423   27.1808 C   0  0  0  0  0  0  0  0  0  0  0  0
    3.8436   -7.2758   16.0578 C   0  0  0  0  0  0  0  0  0  0  0  0
    3.1882   -9.7190   17.2566 C   0  0  0  0  0  0  0  0  0  0  0  0
    5.3488   -6.1737   26.5092 C   0  0  0  0  0  0  0  0  0  0  0  0
    7.4567   -6.9464   27.2858 C   0  0  0  0  0  0  0  0  0  0  0  0
    0.1921   -5.7592   27.1123 C   0  0  0  0  0  0  0  0  0  0  0  0
    3.5517   -7.7407   25.9711 C   0  0  0  0  0  0  0  0  0  0  0  0
  1  4  4  0
  1 22  4  0
  2 20  4  0
  2 27  4  0
  3 12  4  0
  3 23  4  0
  4 25  4  0
  4 28  1  0
  5  8  4  0
  5 17  4  0
  6  7  4  0
  6 16  4  0
  7 18  4  0
  8 27  4  0
  9 13  4  0
  9 23  4  0
 10 11  1  0
 11 14  2  0
 11 27  1  0
 12 19  1  0
 12 24  4  0
 13 24  4  0
 15 18  1  0
 16 25  4  0
 16 26  4  0
 17 20  4  0
 17 28  1  0
 18 21  4  0
 21 26  4  0
 22 26  4  0
M  END
$$$$

 Created by Python create_sdf_string function

 28 30  0  0  0  0  0  0  0  0999 V2000
    5.7174   -8.4529   26.7190 C   0  0  0  0  0  0  0  0  0  0  0  0
    0.3974   -7.0711   27.5149 C   0  0  0  0  0  0  0  0  0  0  0  0
    2.5338   -7.6891   16.0102 C   0  0  0  0  0  0  0  0  0  0  0  0
    4.8690   -7.4380   26.4151 C   0  0  0  0  0  0  0  0  0  0  0  0
    2.3021   -5.6726   26.0378 C   0  0  0  0  0  0  0  0  0  0  0  0
    7.0880   -4.6163   27.0010 C   0  0  0  0  0  0  0  0  0  0  0  0
    8.3117   -4.3698   27.4436 C   0  0  0  0  0  0  0  0  0  0  0  0
    1.1339   -5.0515   26.3541 C   0  0  0  0  0  0  0  0  0  0  0  0
    4.8080   -8.0362   16.7101 C   0  0  0  0  0  0  0  0  0  0  0  0
   -1.2173   -3.9294   26.9717 O   0  0  0  0  0  0  0  0  0  0  0  0
   -1.0025   -5.0942   27.4586 C   0  0  0  0  0  0  0  0  0  0  0  0
    2.2474   -8.9123   16.6273 C   0  0  0  0  0  0  0  0  0  0  0  0
    4.4957   -9.2636   17.3041 C   0  0  0  0  0  0  0  0  0  0  0  0
   -1.8070   -5.6086   28.1920 O   0  0  0  0  0  0  0  0  0  0  0  0
   10.4296   -5.1799   28.3140 C   0  0  0  0  0  0  0  0  0  0  0  0
    6.6017   -5.9004   26.9187 C   0  0  0  0  0  0  0  0  0  0  0  0
    2.4761   -6.9940   26.4111 N   0  0  0  0  0  0  0  0  0  0  0  0
    9.1353   -5.4053   27.8239 C   0  0  0  0  0  0  0  0  0  0  0  0
    0.9922   -9.3232   16.5995 O   0  0  0  0  0  0  0  0  0  0  0  0
    1.5232   -7.6869   27.1182 C   0  0  0  0  0  0  0  0  0  0  0  0
    8.6878   -6.6715   27.7262 N   0  0  0  0  0  0  0  0  0  0  0  0
    6.9911   -8.2423   27.1808 C   0  0  0  0  0  0  0  0  0  0  0  0
    3.8436   -7.2758   16.0578 C   0  0  0  0  0  0  0  0  0  0  0  0
    3.1882   -9.7190   17.2566 C   0  0  0  0  0  0  0  0  0  0  0  0
    5.3488   -6.1737   26.5092 C   0  0  0  0  0  0  0  0  0  0  0  0
    7.4567   -6.9464   27.2858 C   0  0  0  0  0  0  0  0  0  0  0  0
    0.1921   -5.7592   27.1123 C   0  0  0  0  0  0  0  0  0  0  0  0
    3.5517   -7.7407   25.9711 C   0  0  0  0  0  0  0  0  0  0  0  0
  1  4  4  0
  1 22  4  0
  2 20  4  0
  2 27  4  0
  3 12  4  0
  3 23  4  0
  4 25  4  0
  4 28  1  0
  5  8  4  0
  5 17  4  0
  6  7  4  0
  6 16  4  0
  7 18  4  0
  8 27  4  0
  9 13  4  0
  9 23  4  0
 10 11  1  0
 11 14  2  0
 11 27  1  0
 12 19  1  0
 12 24  4  0
 13 24  4  0
 15 18  1  0
 16 25  4  0
 16 26  4  0
 17 20  4  0
 17 28  1  0
 18 21  4  0
 21 26  4  0
 22 26  4  0
M  END
$$$$

 Created by Python create_sdf_string function

 28 30  0  0  0  0  0  0  0  0999 V2000
    5.7174   -8.4529   26.7190 C   0  0  0  0  0  0  0  0  0  0  0  0
    0.3974   -7.0711   27.5149 C   0  0  0  0  0  0  0  0  0  0  0  0
    2.5338   -7.6891   16.0102 C   0  0  0  0  0  0  0  0  0  0  0  0
    4.8690   -7.4380   26.4151 C   0  0  0  0  0  0  0  0  0  0  0  0
    2.3021   -5.6726   26.0378 C   0  0  0  0  0  0  0  0  0  0  0  0
    7.0880   -4.6163   27.0010 C   0  0  0  0  0  0  0  0  0  0  0  0
    8.3117   -4.3698   27.4436 C   0  0  0  0  0  0  0  0  0  0  0  0
    1.1339   -5.0515   26.3541 C   0  0  0  0  0  0  0  0  0  0  0  0
    4.8080   -8.0362   16.7101 C   0  0  0  0  0  0  0  0  0  0  0  0
   -1.2173   -3.9294   26.9717 O   0  0  0  0  0  0  0  0  0  0  0  0
   -1.0025   -5.0942   27.4586 C   0  0  0  0  0  0  0  0  0  0  0  0
    2.2474   -8.9123   16.6273 C   0  0  0  0  0  0  0  0  0  0  0  0
    4.4957   -9.2636   17.3041 C   0  0  0  0  0  0  0  0  0  0  0  0
   -1.8070   -5.6086   28.1920 O   0  0  0  0  0  0  0  0  0  0  0  0
   10.4296   -5.1799   28.3140 C   0  0  0  0  0  0  0  0  0  0  0  0
    6.6017   -5.9004   26.9187 C   0  0  0  0  0  0  0  0  0  0  0  0
    2.4761   -6.9940   26.4111 N   0  0  0  0  0  0  0  0  0  0  0  0
    9.1353   -5.4053   27.8239 C   0  0  0  0  0  0  0  0  0  0  0  0
    0.9922   -9.3232   16.5995 O   0  0  0  0  0  0  0  0  0  0  0  0
    1.5232   -7.6869   27.1182 C   0  0  0  0  0  0  0  0  0  0  0  0
    8.6878   -6.6715   27.7262 N   0  0  0  0  0  0  0  0  0  0  0  0
    6.9911   -8.2423   27.1808 C   0  0  0  0  0  0  0  0  0  0  0  0
    3.8436   -7.2758   16.0578 C   0  0  0  0  0  0  0  0  0  0  0  0
    3.1882   -9.7190   17.2566 C   0  0  0  0  0  0  0  0  0  0  0  0
    5.3488   -6.1737   26.5092 C   0  0  0  0  0  0  0  0  0  0  0  0
    7.4567   -6.9464   27.2858 C   0  0  0  0  0  0  0  0  0  0  0  0
    0.1921   -5.7592   27.1123 C   0  0  0  0  0  0  0  0  0  0  0  0
    3.5517   -7.7407   25.9711 C   0  0  0  0  0  0  0  0  0  0  0  0
  1  4  4  0
  1 22  4  0
  2 20  4  0
  2 27  4  0
  3 12  4  0
  3 23  4  0
  4 25  4  0
  4 28  1  0
  5  8  4  0
  5 17  4  0
  6  7  4  0
  6 16  4  0
  7 18  4  0
  8 27  4  0
  9 13  4  0
  9 23  4  0
 10 11  1  0
 11 14  2  0
 11 27  1  0
 12 19  1  0
 12 24  4  0
 13 24  4  0
 15 18  1  0
 16 25  4  0
 16 26  4  0
 17 20  4  0
 17 28  1  0
 18 21  4  0
 21 26  4  0
 22 26  4  0
M  END
$$$$

 Created by Python create_sdf_string function

 28 30  0  0  0  0  0  0  0  0999 V2000
    5.7174   -8.4529   26.7190 C   0  0  0  0  0  0  0  0  0  0  0  0
    0.3974   -7.0711   27.5149 C   0  0  0  0  0  0  0  0  0  0  0  0
    2.5338   -7.6891   16.0102 C   0  0  0  0  0  0  0  0  0  0  0  0
    4.8690   -7.4380   26.4151 C   0  0  0  0  0  0  0  0  0  0  0  0
    2.3021   -5.6726   26.0378 C   0  0  0  0  0  0  0  0  0  0  0  0
    7.0880   -4.6163   27.0010 C   0  0  0  0  0  0  0  0  0  0  0  0
    8.3117   -4.3698   27.4436 C   0  0  0  0  0  0  0  0  0  0  0  0
    1.1339   -5.0515   26.3541 C   0  0  0  0  0  0  0  0  0  0  0  0
    4.8080   -8.0362   16.7101 C   0  0  0  0  0  0  0  0  0  0  0  0
   -1.2173   -3.9294   26.9717 O   0  0  0  0  0  0  0  0  0  0  0  0
   -1.0025   -5.0942   27.4586 C   0  0  0  0  0  0  0  0  0  0  0  0
    2.2474   -8.9123   16.6273 C   0  0  0  0  0  0  0  0  0  0  0  0
    4.4957   -9.2636   17.3041 C   0  0  0  0  0  0  0  0  0  0  0  0
   -1.8070   -5.6086   28.1920 O   0  0  0  0  0  0  0  0  0  0  0  0
   10.4296   -5.1799   28.3140 C   0  0  0  0  0  0  0  0  0  0  0  0
    6.6017   -5.9004   26.9187 C   0  0  0  0  0  0  0  0  0  0  0  0
    2.4761   -6.9940   26.4111 N   0  0  0  0  0  0  0  0  0  0  0  0
    9.1353   -5.4053   27.8239 C   0  0  0  0  0  0  0  0  0  0  0  0
    0.9922   -9.3232   16.5995 O   0  0  0  0  0  0  0  0  0  0  0  0
    1.5232   -7.6869   27.1182 C   0  0  0  0  0  0  0  0  0  0  0  0
    8.6878   -6.6715   27.7262 N   0  0  0  0  0  0  0  0  0  0  0  0
    6.9911   -8.2423   27.1808 C   0  0  0  0  0  0  0  0  0  0  0  0
    3.8436   -7.2758   16.0578 C   0  0  0  0  0  0  0  0  0  0  0  0
    3.1882   -9.7190   17.2566 C   0  0  0  0  0  0  0  0  0  0  0  0
    5.3488   -6.1737   26.5092 C   0  0  0  0  0  0  0  0  0  0  0  0
    7.4567   -6.9464   27.2858 C   0  0  0  0  0  0  0  0  0  0  0  0
    0.1921   -5.7592   27.1123 C   0  0  0  0  0  0  0  0  0  0  0  0
    3.5517   -7.7407   25.9711 C   0  0  0  0  0  0  0  0  0  0  0  0
  1  4  4  0
  1 22  4  0
  2 20  4  0
  2 27  4  0
  3 12  4  0
  3 23  4  0
  4 25  4  0
  4 28  1  0
  5  8  4  0
  5 17  4  0
  6  7  4  0
  6 16  4  0
  7 18  4  0
  8 27  4  0
  9 13  4  0
  9 23  4  0
 10 11  1  0
 11 14  2  0
 11 27  1  0
 12 19  1  0
 12 24  4  0
 13 24  4  0
 15 18  1  0
 16 25  4  0
 16 26  4  0
 17 20  4  0
 17 28  1  0
 18 21  4  0
 21 26  4  0
 22 26  4  0
M  END
$$$$

 Created by Python create_sdf_string function

 28 30  0  0  0  0  0  0  0  0999 V2000
    5.7174   -8.4529   26.7190 C   0  0  0  0  0  0  0  0  0  0  0  0
    0.3974   -7.0711   27.5149 C   0  0  0  0  0  0  0  0  0  0  0  0
    2.5338   -7.6891   16.0102 C   0  0  0  0  0  0  0  0  0  0  0  0
    4.8690   -7.4380   26.4151 C   0  0  0  0  0  0  0  0  0  0  0  0
    2.3021   -5.6726   26.0378 C   0  0  0  0  0  0  0  0  0  0  0  0
    7.0880   -4.6163   27.0010 C   0  0  0  0  0  0  0  0  0  0  0  0
    8.3117   -4.3698   27.4436 C   0  0  0  0  0  0  0  0  0  0  0  0
    1.1339   -5.0515   26.3541 C   0  0  0  0  0  0  0  0  0  0  0  0
    4.8080   -8.0362   16.7101 C   0  0  0  0  0  0  0  0  0  0  0  0
   -1.2173   -3.9294   26.9717 O   0  0  0  0  0  0  0  0  0  0  0  0
   -1.0025   -5.0942   27.4586 C   0  0  0  0  0  0  0  0  0  0  0  0
    2.2474   -8.9123   16.6273 C   0  0  0  0  0  0  0  0  0  0  0  0
    4.4957   -9.2636   17.3041 C   0  0  0  0  0  0  0  0  0  0  0  0
   -1.8070   -5.6086   28.1920 O   0  0  0  0  0  0  0  0  0  0  0  0
   10.4296   -5.1799   28.3140 C   0  0  0  0  0  0  0  0  0  0  0  0
    6.6017   -5.9004   26.9187 C   0  0  0  0  0  0  0  0  0  0  0  0
    2.4761   -6.9940   26.4111 N   0  0  0  0  0  0  0  0  0  0  0  0
    9.1353   -5.4053   27.8239 C   0  0  0  0  0  0  0  0  0  0  0  0
    0.9922   -9.3232   16.5995 O   0  0  0  0  0  0  0  0  0  0  0  0
    1.5232   -7.6869   27.1182 C   0  0  0  0  0  0  0  0  0  0  0  0
    8.6878   -6.6715   27.7262 N   0  0  0  0  0  0  0  0  0  0  0  0
    6.9911   -8.2423   27.1808 C   0  0  0  0  0  0  0  0  0  0  0  0
    3.8436   -7.2758   16.0578 C   0  0  0  0  0  0  0  0  0  0  0  0
    3.1882   -9.7190   17.2566 C   0  0  0  0  0  0  0  0  0  0  0  0
    5.3488   -6.1737   26.5092 C   0  0  0  0  0  0  0  0  0  0  0  0
    7.4567   -6.9464   27.2858 C   0  0  0  0  0  0  0  0  0  0  0  0
    0.1921   -5.7592   27.1123 C   0  0  0  0  0  0  0  0  0  0  0  0
    3.5517   -7.7407   25.9711 C   0  0  0  0  0  0  0  0  0  0  0  0
  1  4  4  0
  1 22  4  0
  2 20  4  0
  2 27  4  0
  3 12  4  0
  3 23  4  0
  4 25  4  0
  4 28  1  0
  5  8  4  0
  5 17  4  0
  6  7  4  0
  6 16  4  0
  7 18  4  0
  8 27  4  0
  9 13  4  0
  9 23  4  0
 10 11  1  0
 11 14  2  0
 11 27  1  0
 12 19  1  0
 12 24  4  0
 13 24  4  0
 15 18  1  0
 16 25  4  0
 16 26  4  0
 17 20  4  0
 17 28  1  0
 18 21  4  0
 21 26  4  0
 22 26  4  0
M  END
$$$$

 Created by Python create_sdf_string function

 28 30  0  0  0  0  0  0  0  0999 V2000
    5.7174   -8.4529   26.7190 C   0  0  0  0  0  0  0  0  0  0  0  0
    0.3974   -7.0711   27.5149 C   0  0  0  0  0  0  0  0  0  0  0  0
    2.5338   -7.6891   16.0102 C   0  0  0  0  0  0  0  0  0  0  0  0
    4.8690   -7.4380   26.4151 C   0  0  0  0  0  0  0  0  0  0  0  0
    2.3021   -5.6726   26.0378 C   0  0  0  0  0  0  0  0  0  0  0  0
    7.0880   -4.6163   27.0010 C   0  0  0  0  0  0  0  0  0  0  0  0
    8.3117   -4.3698   27.4436 C   0  0  0  0  0  0  0  0  0  0  0  0
    1.1339   -5.0515   26.3541 C   0  0  0  0  0  0  0  0  0  0  0  0
    4.8080   -8.0362   16.7101 C   0  0  0  0  0  0  0  0  0  0  0  0
   -1.2173   -3.9294   26.9717 O   0  0  0  0  0  0  0  0  0  0  0  0
   -1.0025   -5.0942   27.4586 C   0  0  0  0  0  0  0  0  0  0  0  0
    2.2474   -8.9123   16.6273 C   0  0  0  0  0  0  0  0  0  0  0  0
    4.4957   -9.2636   17.3041 C   0  0  0  0  0  0  0  0  0  0  0  0
   -1.8070   -5.6086   28.1920 O   0  0  0  0  0  0  0  0  0  0  0  0
   10.4296   -5.1799   28.3140 C   0  0  0  0  0  0  0  0  0  0  0  0
    6.6017   -5.9004   26.9187 C   0  0  0  0  0  0  0  0  0  0  0  0
    2.4761   -6.9940   26.4111 N   0  0  0  0  0  0  0  0  0  0  0  0
    9.1353   -5.4053   27.8239 C   0  0  0  0  0  0  0  0  0  0  0  0
    0.9922   -9.3232   16.5995 O   0  0  0  0  0  0  0  0  0  0  0  0
    1.5232   -7.6869   27.1182 C   0  0  0  0  0  0  0  0  0  0  0  0
    8.6878   -6.6715   27.7262 N   0  0  0  0  0  0  0  0  0  0  0  0
    6.9911   -8.2423   27.1808 C   0  0  0  0  0  0  0  0  0  0  0  0
    3.8436   -7.2758   16.0578 C   0  0  0  0  0  0  0  0  0  0  0  0
    3.1882   -9.7190   17.2566 C   0  0  0  0  0  0  0  0  0  0  0  0
    5.3488   -6.1737   26.5092 C   0  0  0  0  0  0  0  0  0  0  0  0
    7.4567   -6.9464   27.2858 C   0  0  0  0  0  0  0  0  0  0  0  0
    0.1921   -5.7592   27.1123 C   0  0  0  0  0  0  0  0  0  0  0  0
    3.5517   -7.7407   25.9711 C   0  0  0  0  0  0  0  0  0  0  0  0
  1  4  4  0
  1 22  4  0
  2 20  4  0
  2 27  4  0
  3 12  4  0
  3 23  4  0
  4 25  4  0
  4 28  1  0
  5  8  4  0
  5 17  4  0
  6  7  4  0
  6 16  4  0
  7 18  4  0
  8 27  4  0
  9 13  4  0
  9 23  4  0
 10 11  1  0
 11 14  2  0
 11 27  1  0
 12 19  1  0
 12 24  4  0
 13 24  4  0
 15 18  1  0
 16 25  4  0
 16 26  4  0
 17 20  4  0
 17 28  1  0
 18 21  4  0
 21 26  4  0
 22 26  4  0
M  END
$$$$

 Created by Python create_sdf_string function

 28 30  0  0  0  0  0  0  0  0999 V2000
    5.7174   -8.4529   26.7190 C   0  0  0  0  0  0  0  0  0  0  0  0
    0.3974   -7.0711   27.5149 C   0  0  0  0  0  0  0  0  0  0  0  0
    2.5338   -7.6891   16.0102 C   0  0  0  0  0  0  0  0  0  0  0  0
    4.8690   -7.4380   26.4151 C   0  0  0  0  0  0  0  0  0  0  0  0
    2.3021   -5.6726   26.0378 C   0  0  0  0  0  0  0  0  0  0  0  0
    7.0880   -4.6163   27.0010 C   0  0  0  0  0  0  0  0  0  0  0  0
    8.3117   -4.3698   27.4436 C   0  0  0  0  0  0  0  0  0  0  0  0
    1.1339   -5.0515   26.3541 C   0  0  0  0  0  0  0  0  0  0  0  0
    4.8080   -8.0362   16.7101 C   0  0  0  0  0  0  0  0  0  0  0  0
   -1.2173   -3.9294   26.9717 O   0  0  0  0  0  0  0  0  0  0  0  0
   -1.0025   -5.0942   27.4586 C   0  0  0  0  0  0  0  0  0  0  0  0
    2.2474   -8.9123   16.6273 C   0  0  0  0  0  0  0  0  0  0  0  0
    4.4957   -9.2636   17.3041 C   0  0  0  0  0  0  0  0  0  0  0  0
   -1.8070   -5.6086   28.1920 O   0  0  0  0  0  0  0  0  0  0  0  0
   10.4296   -5.1799   28.3140 C   0  0  0  0  0  0  0  0  0  0  0  0
    6.6017   -5.9004   26.9187 C   0  0  0  0  0  0  0  0  0  0  0  0
    2.4761   -6.9940   26.4111 N   0  0  0  0  0  0  0  0  0  0  0  0
    9.1353   -5.4053   27.8239 C   0  0  0  0  0  0  0  0  0  0  0  0
    0.9922   -9.3232   16.5995 O   0  0  0  0  0  0  0  0  0  0  0  0
    1.5232   -7.6869   27.1182 C   0  0  0  0  0  0  0  0  0  0  0  0
    8.6878   -6.6715   27.7262 N   0  0  0  0  0  0  0  0  0  0  0  0
    6.9911   -8.2423   27.1808 C   0  0  0  0  0  0  0  0  0  0  0  0
    3.8436   -7.2758   16.0578 C   0  0  0  0  0  0  0  0  0  0  0  0
    3.1882   -9.7190   17.2566 C   0  0  0  0  0  0  0  0  0  0  0  0
    5.3488   -6.1737   26.5092 C   0  0  0  0  0  0  0  0  0  0  0  0
    7.4567   -6.9464   27.2858 C   0  0  0  0  0  0  0  0  0  0  0  0
    0.1921   -5.7592   27.1123 C   0  0  0  0  0  0  0  0  0  0  0  0
    3.5517   -7.7407   25.9711 C   0  0  0  0  0  0  0  0  0  0  0  0
  1  4  4  0
  1 22  4  0
  2 20  4  0
  2 27  4  0
  3 12  4  0
  3 23  4  0
  4 25  4  0
  4 28  1  0
  5  8  4  0
  5 17  4  0
  6  7  4  0
  6 16  4  0
  7 18  4  0
  8 27  4  0
  9 13  4  0
  9 23  4  0
 10 11  1  0
 11 14  2  0
 11 27  1  0
 12 19  1  0
 12 24  4  0
 13 24  4  0
 15 18  1  0
 16 25  4  0
 16 26  4  0
 17 20  4  0
 17 28  1  0
 18 21  4  0
 21 26  4  0
 22 26  4  0
M  END
$$$$

 Created by Python create_sdf_string function

 28 30  0  0  0  0  0  0  0  0999 V2000
    5.7174   -8.4529   26.7190 C   0  0  0  0  0  0  0  0  0  0  0  0
    0.3974   -7.0711   27.5149 C   0  0  0  0  0  0  0  0  0  0  0  0
    2.5338   -7.6891   16.0102 C   0  0  0  0  0  0  0  0  0  0  0  0
    4.8690   -7.4380   26.4151 C   0  0  0  0  0  0  0  0  0  0  0  0
    2.3021   -5.6726   26.0378 C   0  0  0  0  0  0  0  0  0  0  0  0
    7.0880   -4.6163   27.0010 C   0  0  0  0  0  0  0  0  0  0  0  0
    8.3117   -4.3698   27.4436 C   0  0  0  0  0  0  0  0  0  0  0  0
    1.1339   -5.0515   26.3541 C   0  0  0  0  0  0  0  0  0  0  0  0
    4.8080   -8.0362   16.7101 C   0  0  0  0  0  0  0  0  0  0  0  0
   -1.2173   -3.9294   26.9717 O   0  0  0  0  0  0  0  0  0  0  0  0
   -1.0025   -5.0942   27.4586 C   0  0  0  0  0  0  0  0  0  0  0  0
    2.2474   -8.9123   16.6273 C   0  0  0  0  0  0  0  0  0  0  0  0
    4.4957   -9.2636   17.3041 C   0  0  0  0  0  0  0  0  0  0  0  0
   -1.8070   -5.6086   28.1920 O   0  0  0  0  0  0  0  0  0  0  0  0
   10.4296   -5.1799   28.3140 C   0  0  0  0  0  0  0  0  0  0  0  0
    6.6017   -5.9004   26.9187 C   0  0  0  0  0  0  0  0  0  0  0  0
    2.4761   -6.9940   26.4111 N   0  0  0  0  0  0  0  0  0  0  0  0
    9.1353   -5.4053   27.8239 C   0  0  0  0  0  0  0  0  0  0  0  0
    0.9922   -9.3232   16.5995 O   0  0  0  0  0  0  0  0  0  0  0  0
    1.5232   -7.6869   27.1182 C   0  0  0  0  0  0  0  0  0  0  0  0
    8.6878   -6.6715   27.7262 N   0  0  0  0  0  0  0  0  0  0  0  0
    6.9911   -8.2423   27.1808 C   0  0  0  0  0  0  0  0  0  0  0  0
    3.8436   -7.2758   16.0578 C   0  0  0  0  0  0  0  0  0  0  0  0
    3.1882   -9.7190   17.2566 C   0  0  0  0  0  0  0  0  0  0  0  0
    5.3488   -6.1737   26.5092 C   0  0  0  0  0  0  0  0  0  0  0  0
    7.4567   -6.9464   27.2858 C   0  0  0  0  0  0  0  0  0  0  0  0
    0.1921   -5.7592   27.1123 C   0  0  0  0  0  0  0  0  0  0  0  0
    3.5517   -7.7407   25.9711 C   0  0  0  0  0  0  0  0  0  0  0  0
  1  4  4  0
  1 22  4  0
  2 20  4  0
  2 27  4  0
  3 12  4  0
  3 23  4  0
  4 25  4  0
  4 28  1  0
  5  8  4  0
  5 17  4  0
  6  7  4  0
  6 16  4  0
  7 18  4  0
  8 27  4  0
  9 13  4  0
  9 23  4  0
 10 11  1  0
 11 14  2  0
 11 27  1  0
 12 19  1  0
 12 24  4  0
 13 24  4  0
 15 18  1  0
 16 25  4  0
 16 26  4  0
 17 20  4  0
 17 28  1  0
 18 21  4  0
 21 26  4  0
 22 26  4  0
M  END
$$$$

 Created by Python create_sdf_string function

 28 30  0  0  0  0  0  0  0  0999 V2000
    5.7174   -8.4529   26.7190 C   0  0  0  0  0  0  0  0  0  0  0  0
    0.3974   -7.0711   27.5149 C   0  0  0  0  0  0  0  0  0  0  0  0
    2.5338   -7.6891   16.0102 C   0  0  0  0  0  0  0  0  0  0  0  0
    4.8690   -7.4380   26.4151 C   0  0  0  0  0  0  0  0  0  0  0  0
    2.3021   -5.6726   26.0378 C   0  0  0  0  0  0  0  0  0  0  0  0
    7.0880   -4.6163   27.0010 C   0  0  0  0  0  0  0  0  0  0  0  0
    8.3117   -4.3698   27.4436 C   0  0  0  0  0  0  0  0  0  0  0  0
    1.1339   -5.0515   26.3541 C   0  0  0  0  0  0  0  0  0  0  0  0
    4.8080   -8.0362   16.7101 C   0  0  0  0  0  0  0  0  0  0  0  0
   -1.2173   -3.9294   26.9717 O   0  0  0  0  0  0  0  0  0  0  0  0
   -1.0025   -5.0942   27.4586 C   0  0  0  0  0  0  0  0  0  0  0  0
    2.2474   -8.9123   16.6273 C   0  0  0  0  0  0  0  0  0  0  0  0
    4.4957   -9.2636   17.3041 C   0  0  0  0  0  0  0  0  0  0  0  0
   -1.8070   -5.6086   28.1920 O   0  0  0  0  0  0  0  0  0  0  0  0
   10.4296   -5.1799   28.3140 C   0  0  0  0  0  0  0  0  0  0  0  0
    6.6017   -5.9004   26.9187 C   0  0  0  0  0  0  0  0  0  0  0  0
    2.4761   -6.9940   26.4111 N   0  0  0  0  0  0  0  0  0  0  0  0
    9.1353   -5.4053   27.8239 C   0  0  0  0  0  0  0  0  0  0  0  0
    0.9922   -9.3232   16.5995 O   0  0  0  0  0  0  0  0  0  0  0  0
    1.5232   -7.6869   27.1182 C   0  0  0  0  0  0  0  0  0  0  0  0
    8.6878   -6.6715   27.7262 N   0  0  0  0  0  0  0  0  0  0  0  0
    6.9911   -8.2423   27.1808 C   0  0  0  0  0  0  0  0  0  0  0  0
    3.8436   -7.2758   16.0578 C   0  0  0  0  0  0  0  0  0  0  0  0
    3.1882   -9.7190   17.2566 C   0  0  0  0  0  0  0  0  0  0  0  0
    5.3488   -6.1737   26.5092 C   0  0  0  0  0  0  0  0  0  0  0  0
    7.4567   -6.9464   27.2858 C   0  0  0  0  0  0  0  0  0  0  0  0
    0.1921   -5.7592   27.1123 C   0  0  0  0  0  0  0  0  0  0  0  0
    3.5517   -7.7407   25.9711 C   0  0  0  0  0  0  0  0  0  0  0  0
  1  4  4  0
  1 22  4  0
  2 20  4  0
  2 27  4  0
  3 12  4  0
  3 23  4  0
  4 25  4  0
  4 28  1  0
  5  8  4  0
  5 17  4  0
  6  7  4  0
  6 16  4  0
  7 18  4  0
  8 27  4  0
  9 13  4  0
  9 23  4  0
 10 11  1  0
 11 14  2  0
 11 27  1  0
 12 19  1  0
 12 24  4  0
 13 24  4  0
 15 18  1  0
 16 25  4  0
 16 26  4  0
 17 20  4  0
 17 28  1  0
 18 21  4  0
 21 26  4  0
 22 26  4  0
M  END
$$$$

 Created by Python create_sdf_string function

 28 30  0  0  0  0  0  0  0  0999 V2000
    5.7174   -8.4529   26.7190 C   0  0  0  0  0  0  0  0  0  0  0  0
    0.3974   -7.0711   27.5149 C   0  0  0  0  0  0  0  0  0  0  0  0
    2.5338   -7.6891   16.0102 C   0  0  0  0  0  0  0  0  0  0  0  0
    4.8690   -7.4380   26.4151 C   0  0  0  0  0  0  0  0  0  0  0  0
    2.3021   -5.6726   26.0378 C   0  0  0  0  0  0  0  0  0  0  0  0
    7.0880   -4.6163   27.0010 C   0  0  0  0  0  0  0  0  0  0  0  0
    8.3117   -4.3698   27.4436 C   0  0  0  0  0  0  0  0  0  0  0  0
    1.1339   -5.0515   26.3541 C   0  0  0  0  0  0  0  0  0  0  0  0
    4.8080   -8.0362   16.7101 C   0  0  0  0  0  0  0  0  0  0  0  0
   -1.2173   -3.9294   26.9717 O   0  0  0  0  0  0  0  0  0  0  0  0
   -1.0025   -5.0942   27.4586 C   0  0  0  0  0  0  0  0  0  0  0  0
    2.2474   -8.9123   16.6273 C   0  0  0  0  0  0  0  0  0  0  0  0
    4.4957   -9.2636   17.3041 C   0  0  0  0  0  0  0  0  0  0  0  0
   -1.8070   -5.6086   28.1920 O   0  0  0  0  0  0  0  0  0  0  0  0
   10.4296   -5.1799   28.3140 C   0  0  0  0  0  0  0  0  0  0  0  0
    6.6017   -5.9004   26.9187 C   0  0  0  0  0  0  0  0  0  0  0  0
    2.4761   -6.9940   26.4111 N   0  0  0  0  0  0  0  0  0  0  0  0
    9.1353   -5.4053   27.8239 C   0  0  0  0  0  0  0  0  0  0  0  0
    0.9922   -9.3232   16.5995 O   0  0  0  0  0  0  0  0  0  0  0  0
    1.5232   -7.6869   27.1182 C   0  0  0  0  0  0  0  0  0  0  0  0
    8.6878   -6.6715   27.7262 N   0  0  0  0  0  0  0  0  0  0  0  0
    6.9911   -8.2423   27.1808 C   0  0  0  0  0  0  0  0  0  0  0  0
    3.8436   -7.2758   16.0578 C   0  0  0  0  0  0  0  0  0  0  0  0
    3.1882   -9.7190   17.2566 C   0  0  0  0  0  0  0  0  0  0  0  0
    5.3488   -6.1737   26.5092 C   0  0  0  0  0  0  0  0  0  0  0  0
    7.4567   -6.9464   27.2858 C   0  0  0  0  0  0  0  0  0  0  0  0
    0.1921   -5.7592   27.1123 C   0  0  0  0  0  0  0  0  0  0  0  0
    3.5517   -7.7407   25.9711 C   0  0  0  0  0  0  0  0  0  0  0  0
  1  4  4  0
  1 22  4  0
  2 20  4  0
  2 27  4  0
  3 12  4  0
  3 23  4  0
  4 25  4  0
  4 28  1  0
  5  8  4  0
  5 17  4  0
  6  7  4  0
  6 16  4  0
  7 18  4  0
  8 27  4  0
  9 13  4  0
  9 23  4  0
 10 11  1  0
 11 14  2  0
 11 27  1  0
 12 19  1  0
 12 24  4  0
 13 24  4  0
 15 18  1  0
 16 25  4  0
 16 26  4  0
 17 20  4  0
 17 28  1  0
 18 21  4  0
 21 26  4  0
 22 26  4  0
M  END
$$$$

 Created by Python create_sdf_string function

 28 30  0  0  0  0  0  0  0  0999 V2000
    5.7174   -8.4529   26.7190 C   0  0  0  0  0  0  0  0  0  0  0  0
    0.3974   -7.0711   27.5149 C   0  0  0  0  0  0  0  0  0  0  0  0
    2.5338   -7.6891   16.0102 C   0  0  0  0  0  0  0  0  0  0  0  0
    4.8690   -7.4380   26.4151 C   0  0  0  0  0  0  0  0  0  0  0  0
    2.3021   -5.6726   26.0378 C   0  0  0  0  0  0  0  0  0  0  0  0
    7.0880   -4.6163   27.0010 C   0  0  0  0  0  0  0  0  0  0  0  0
    8.3117   -4.3698   27.4436 C   0  0  0  0  0  0  0  0  0  0  0  0
    1.1339   -5.0515   26.3541 C   0  0  0  0  0  0  0  0  0  0  0  0
    4.8080   -8.0362   16.7101 C   0  0  0  0  0  0  0  0  0  0  0  0
   -1.2173   -3.9294   26.9717 O   0  0  0  0  0  0  0  0  0  0  0  0
   -1.0025   -5.0942   27.4586 C   0  0  0  0  0  0  0  0  0  0  0  0
    2.2474   -8.9123   16.6273 C   0  0  0  0  0  0  0  0  0  0  0  0
    4.4957   -9.2636   17.3041 C   0  0  0  0  0  0  0  0  0  0  0  0
   -1.8070   -5.6086   28.1920 O   0  0  0  0  0  0  0  0  0  0  0  0
   10.4296   -5.1799   28.3140 C   0  0  0  0  0  0  0  0  0  0  0  0
    6.6017   -5.9004   26.9187 C   0  0  0  0  0  0  0  0  0  0  0  0
    2.4761   -6.9940   26.4111 N   0  0  0  0  0  0  0  0  0  0  0  0
    9.1353   -5.4053   27.8239 C   0  0  0  0  0  0  0  0  0  0  0  0
    0.9922   -9.3232   16.5995 O   0  0  0  0  0  0  0  0  0  0  0  0
    1.5232   -7.6869   27.1182 C   0  0  0  0  0  0  0  0  0  0  0  0
    8.6878   -6.6715   27.7262 N   0  0  0  0  0  0  0  0  0  0  0  0
    6.9911   -8.2423   27.1808 C   0  0  0  0  0  0  0  0  0  0  0  0
    3.8436   -7.2758   16.0578 C   0  0  0  0  0  0  0  0  0  0  0  0
    3.1882   -9.7190   17.2566 C   0  0  0  0  0  0  0  0  0  0  0  0
    5.3488   -6.1737   26.5092 C   0  0  0  0  0  0  0  0  0  0  0  0
    7.4567   -6.9464   27.2858 C   0  0  0  0  0  0  0  0  0  0  0  0
    0.1921   -5.7592   27.1123 C   0  0  0  0  0  0  0  0  0  0  0  0
    3.5517   -7.7407   25.9711 C   0  0  0  0  0  0  0  0  0  0  0  0
  1  4  4  0
  1 22  4  0
  2 20  4  0
  2 27  4  0
  3 12  4  0
  3 23  4  0
  4 25  4  0
  4 28  1  0
  5  8  4  0
  5 17  4  0
  6  7  4  0
  6 16  4  0
  7 18  4  0
  8 27  4  0
  9 13  4  0
  9 23  4  0
 10 11  1  0
 11 14  2  0
 11 27  1  0
 12 19  1  0
 12 24  4  0
 13 24  4  0
 15 18  1  0
 16 25  4  0
 16 26  4  0
 17 20  4  0
 17 28  1  0
 18 21  4  0
 21 26  4  0
 22 26  4  0
M  END
$$$$

 Created by Python create_sdf_string function

 28 30  0  0  0  0  0  0  0  0999 V2000
    5.7174   -8.4529   26.7190 C   0  0  0  0  0  0  0  0  0  0  0  0
    0.3974   -7.0711   27.5149 C   0  0  0  0  0  0  0  0  0  0  0  0
    2.5338   -7.6891   16.0102 C   0  0  0  0  0  0  0  0  0  0  0  0
    4.8690   -7.4380   26.4151 C   0  0  0  0  0  0  0  0  0  0  0  0
    2.3021   -5.6726   26.0378 C   0  0  0  0  0  0  0  0  0  0  0  0
    7.0880   -4.6163   27.0010 C   0  0  0  0  0  0  0  0  0  0  0  0
    8.3117   -4.3698   27.4436 C   0  0  0  0  0  0  0  0  0  0  0  0
    1.1339   -5.0515   26.3541 C   0  0  0  0  0  0  0  0  0  0  0  0
    4.8080   -8.0362   16.7101 C   0  0  0  0  0  0  0  0  0  0  0  0
   -1.2173   -3.9294   26.9717 O   0  0  0  0  0  0  0  0  0  0  0  0
   -1.0025   -5.0942   27.4586 C   0  0  0  0  0  0  0  0  0  0  0  0
    2.2474   -8.9123   16.6273 C   0  0  0  0  0  0  0  0  0  0  0  0
    4.4957   -9.2636   17.3041 C   0  0  0  0  0  0  0  0  0  0  0  0
   -1.8070   -5.6086   28.1920 O   0  0  0  0  0  0  0  0  0  0  0  0
   10.4296   -5.1799   28.3140 C   0  0  0  0  0  0  0  0  0  0  0  0
    6.6017   -5.9004   26.9187 C   0  0  0  0  0  0  0  0  0  0  0  0
    2.4761   -6.9940   26.4111 N   0  0  0  0  0  0  0  0  0  0  0  0
    9.1353   -5.4053   27.8239 C   0  0  0  0  0  0  0  0  0  0  0  0
    0.9922   -9.3232   16.5995 O   0  0  0  0  0  0  0  0  0  0  0  0
    1.5232   -7.6869   27.1182 C   0  0  0  0  0  0  0  0  0  0  0  0
    8.6878   -6.6715   27.7262 N   0  0  0  0  0  0  0  0  0  0  0  0
    6.9911   -8.2423   27.1808 C   0  0  0  0  0  0  0  0  0  0  0  0
    3.8436   -7.2758   16.0578 C   0  0  0  0  0  0  0  0  0  0  0  0
    3.1882   -9.7190   17.2566 C   0  0  0  0  0  0  0  0  0  0  0  0
    5.3488   -6.1737   26.5092 C   0  0  0  0  0  0  0  0  0  0  0  0
    7.4567   -6.9464   27.2858 C   0  0  0  0  0  0  0  0  0  0  0  0
    0.1921   -5.7592   27.1123 C   0  0  0  0  0  0  0  0  0  0  0  0
    3.5517   -7.7407   25.9711 C   0  0  0  0  0  0  0  0  0  0  0  0
  1  4  4  0
  1 22  4  0
  2 20  4  0
  2 27  4  0
  3 12  4  0
  3 23  4  0
  4 25  4  0
  4 28  1  0
  5  8  4  0
  5 17  4  0
  6  7  4  0
  6 16  4  0
  7 18  4  0
  8 27  4  0
  9 13  4  0
  9 23  4  0
 10 11  1  0
 11 14  2  0
 11 27  1  0
 12 19  1  0
 12 24  4  0
 13 24  4  0
 15 18  1  0
 16 25  4  0
 16 26  4  0
 17 20  4  0
 17 28  1  0
 18 21  4  0
 21 26  4  0
 22 26  4  0
M  END
$$$$

 Created by Python create_sdf_string function

 28 30  0  0  0  0  0  0  0  0999 V2000
    5.7174   -8.4529   26.7190 C   0  0  0  0  0  0  0  0  0  0  0  0
    0.3974   -7.0711   27.5149 C   0  0  0  0  0  0  0  0  0  0  0  0
    2.5338   -7.6891   16.0102 C   0  0  0  0  0  0  0  0  0  0  0  0
    4.8690   -7.4380   26.4151 C   0  0  0  0  0  0  0  0  0  0  0  0
    2.3021   -5.6726   26.0378 C   0  0  0  0  0  0  0  0  0  0  0  0
    7.0880   -4.6163   27.0010 C   0  0  0  0  0  0  0  0  0  0  0  0
    8.3117   -4.3698   27.4436 C   0  0  0  0  0  0  0  0  0  0  0  0
    1.1339   -5.0515   26.3541 C   0  0  0  0  0  0  0  0  0  0  0  0
    4.8080   -8.0362   16.7101 C   0  0  0  0  0  0  0  0  0  0  0  0
   -1.2173   -3.9294   26.9717 O   0  0  0  0  0  0  0  0  0  0  0  0
   -1.0025   -5.0942   27.4586 C   0  0  0  0  0  0  0  0  0  0  0  0
    2.2474   -8.9123   16.6273 C   0  0  0  0  0  0  0  0  0  0  0  0
    4.4957   -9.2636   17.3041 C   0  0  0  0  0  0  0  0  0  0  0  0
   -1.8070   -5.6086   28.1920 O   0  0  0  0  0  0  0  0  0  0  0  0
   10.4296   -5.1799   28.3140 C   0  0  0  0  0  0  0  0  0  0  0  0
    6.6017   -5.9004   26.9187 C   0  0  0  0  0  0  0  0  0  0  0  0
    2.4761   -6.9940   26.4111 N   0  0  0  0  0  0  0  0  0  0  0  0
    9.1353   -5.4053   27.8239 C   0  0  0  0  0  0  0  0  0  0  0  0
    0.9922   -9.3232   16.5995 O   0  0  0  0  0  0  0  0  0  0  0  0
    1.5232   -7.6869   27.1182 C   0  0  0  0  0  0  0  0  0  0  0  0
    8.6878   -6.6715   27.7262 N   0  0  0  0  0  0  0  0  0  0  0  0
    6.9911   -8.2423   27.1808 C   0  0  0  0  0  0  0  0  0  0  0  0
    3.8436   -7.2758   16.0578 C   0  0  0  0  0  0  0  0  0  0  0  0
    3.1882   -9.7190   17.2566 C   0  0  0  0  0  0  0  0  0  0  0  0
    5.3488   -6.1737   26.5092 C   0  0  0  0  0  0  0  0  0  0  0  0
    7.4567   -6.9464   27.2858 C   0  0  0  0  0  0  0  0  0  0  0  0
    0.1921   -5.7592   27.1123 C   0  0  0  0  0  0  0  0  0  0  0  0
    3.5517   -7.7407   25.9711 C   0  0  0  0  0  0  0  0  0  0  0  0
  1  4  4  0
  1 22  4  0
  2 20  4  0
  2 27  4  0
  3 12  4  0
  3 23  4  0
  4 25  4  0
  4 28  1  0
  5  8  4  0
  5 17  4  0
  6  7  4  0
  6 16  4  0
  7 18  4  0
  8 27  4  0
  9 13  4  0
  9 23  4  0
 10 11  1  0
 11 14  2  0
 11 27  1  0
 12 19  1  0
 12 24  4  0
 13 24  4  0
 15 18  1  0
 16 25  4  0
 16 26  4  0
 17 20  4  0
 17 28  1  0
 18 21  4  0
 21 26  4  0
 22 26  4  0
M  END
$$$$

 Created by Python create_sdf_string function

 28 30  0  0  0  0  0  0  0  0999 V2000
    5.7174   -8.4529   26.7190 C   0  0  0  0  0  0  0  0  0  0  0  0
    0.3974   -7.0711   27.5149 C   0  0  0  0  0  0  0  0  0  0  0  0
    2.5338   -7.6891   16.0102 C   0  0  0  0  0  0  0  0  0  0  0  0
    4.8690   -7.4380   26.4151 C   0  0  0  0  0  0  0  0  0  0  0  0
    2.3021   -5.6726   26.0378 C   0  0  0  0  0  0  0  0  0  0  0  0
    7.0880   -4.6163   27.0010 C   0  0  0  0  0  0  0  0  0  0  0  0
    8.3117   -4.3698   27.4436 C   0  0  0  0  0  0  0  0  0  0  0  0
    1.1339   -5.0515   26.3541 C   0  0  0  0  0  0  0  0  0  0  0  0
    4.8080   -8.0362   16.7101 C   0  0  0  0  0  0  0  0  0  0  0  0
   -1.2173   -3.9294   26.9717 O   0  0  0  0  0  0  0  0  0  0  0  0
   -1.0025   -5.0942   27.4586 C   0  0  0  0  0  0  0  0  0  0  0  0
    2.2474   -8.9123   16.6273 C   0  0  0  0  0  0  0  0  0  0  0  0
    4.4957   -9.2636   17.3041 C   0  0  0  0  0  0  0  0  0  0  0  0
   -1.8070   -5.6086   28.1920 O   0  0  0  0  0  0  0  0  0  0  0  0
   10.4296   -5.1799   28.3140 C   0  0  0  0  0  0  0  0  0  0  0  0
    6.6017   -5.9004   26.9187 C   0  0  0  0  0  0  0  0  0  0  0  0
    2.4761   -6.9940   26.4111 N   0  0  0  0  0  0  0  0  0  0  0  0
    9.1353   -5.4053   27.8239 C   0  0  0  0  0  0  0  0  0  0  0  0
    0.9922   -9.3232   16.5995 O   0  0  0  0  0  0  0  0  0  0  0  0
    1.5232   -7.6869   27.1182 C   0  0  0  0  0  0  0  0  0  0  0  0
    8.6878   -6.6715   27.7262 N   0  0  0  0  0  0  0  0  0  0  0  0
    6.9911   -8.2423   27.1808 C   0  0  0  0  0  0  0  0  0  0  0  0
    3.8436   -7.2758   16.0578 C   0  0  0  0  0  0  0  0  0  0  0  0
    3.1882   -9.7190   17.2566 C   0  0  0  0  0  0  0  0  0  0  0  0
    5.3488   -6.1737   26.5092 C   0  0  0  0  0  0  0  0  0  0  0  0
    7.4567   -6.9464   27.2858 C   0  0  0  0  0  0  0  0  0  0  0  0
    0.1921   -5.7592   27.1123 C   0  0  0  0  0  0  0  0  0  0  0  0
    3.5517   -7.7407   25.9711 C   0  0  0  0  0  0  0  0  0  0  0  0
  1  4  4  0
  1 22  4  0
  2 20  4  0
  2 27  4  0
  3 12  4  0
  3 23  4  0
  4 25  4  0
  4 28  1  0
  5  8  4  0
  5 17  4  0
  6  7  4  0
  6 16  4  0
  7 18  4  0
  8 27  4  0
  9 13  4  0
  9 23  4  0
 10 11  1  0
 11 14  2  0
 11 27  1  0
 12 19  1  0
 12 24  4  0
 13 24  4  0
 15 18  1  0
 16 25  4  0
 16 26  4  0
 17 20  4  0
 17 28  1  0
 18 21  4  0
 21 26  4  0
 22 26  4  0
M  END
$$$$

 Created by Python create_sdf_string function

 28 30  0  0  0  0  0  0  0  0999 V2000
    5.7174   -8.4529   26.7190 C   0  0  0  0  0  0  0  0  0  0  0  0
    0.3974   -7.0711   27.5149 C   0  0  0  0  0  0  0  0  0  0  0  0
    2.5338   -7.6891   16.0102 C   0  0  0  0  0  0  0  0  0  0  0  0
    4.8690   -7.4380   26.4151 C   0  0  0  0  0  0  0  0  0  0  0  0
    2.3021   -5.6726   26.0378 C   0  0  0  0  0  0  0  0  0  0  0  0
    7.0880   -4.6163   27.0010 C   0  0  0  0  0  0  0  0  0  0  0  0
    8.3117   -4.3698   27.4436 C   0  0  0  0  0  0  0  0  0  0  0  0
    1.1339   -5.0515   26.3541 C   0  0  0  0  0  0  0  0  0  0  0  0
    4.8080   -8.0362   16.7101 C   0  0  0  0  0  0  0  0  0  0  0  0
   -1.2173   -3.9294   26.9717 O   0  0  0  0  0  0  0  0  0  0  0  0
   -1.0025   -5.0942   27.4586 C   0  0  0  0  0  0  0  0  0  0  0  0
    2.2474   -8.9123   16.6273 C   0  0  0  0  0  0  0  0  0  0  0  0
    4.4957   -9.2636   17.3041 C   0  0  0  0  0  0  0  0  0  0  0  0
   -1.8070   -5.6086   28.1920 O   0  0  0  0  0  0  0  0  0  0  0  0
   10.4296   -5.1799   28.3140 C   0  0  0  0  0  0  0  0  0  0  0  0
    6.6017   -5.9004   26.9187 C   0  0  0  0  0  0  0  0  0  0  0  0
    2.4761   -6.9940   26.4111 N   0  0  0  0  0  0  0  0  0  0  0  0
    9.1353   -5.4053   27.8239 C   0  0  0  0  0  0  0  0  0  0  0  0
    0.9922   -9.3232   16.5995 O   0  0  0  0  0  0  0  0  0  0  0  0
    1.5232   -7.6869   27.1182 C   0  0  0  0  0  0  0  0  0  0  0  0
    8.6878   -6.6715   27.7262 N   0  0  0  0  0  0  0  0  0  0  0  0
    6.9911   -8.2423   27.1808 C   0  0  0  0  0  0  0  0  0  0  0  0
    3.8436   -7.2758   16.0578 C   0  0  0  0  0  0  0  0  0  0  0  0
    3.1882   -9.7190   17.2566 C   0  0  0  0  0  0  0  0  0  0  0  0
    5.3488   -6.1737   26.5092 C   0  0  0  0  0  0  0  0  0  0  0  0
    7.4567   -6.9464   27.2858 C   0  0  0  0  0  0  0  0  0  0  0  0
    0.1921   -5.7592   27.1123 C   0  0  0  0  0  0  0  0  0  0  0  0
    3.5517   -7.7407   25.9711 C   0  0  0  0  0  0  0  0  0  0  0  0
  1  4  4  0
  1 22  4  0
  2 20  4  0
  2 27  4  0
  3 12  4  0
  3 23  4  0
  4 25  4  0
  4 28  1  0
  5  8  4  0
  5 17  4  0
  6  7  4  0
  6 16  4  0
  7 18  4  0
  8 27  4  0
  9 13  4  0
  9 23  4  0
 10 11  1  0
 11 14  2  0
 11 27  1  0
 12 19  1  0
 12 24  4  0
 13 24  4  0
 15 18  1  0
 16 25  4  0
 16 26  4  0
 17 20  4  0
 17 28  1  0
 18 21  4  0
 21 26  4  0
 22 26  4  0
M  END
$$$$

 Created by Python create_sdf_string function

 28 30  0  0  0  0  0  0  0  0999 V2000
    5.7174   -8.4529   26.7190 C   0  0  0  0  0  0  0  0  0  0  0  0
    0.3974   -7.0711   27.5149 C   0  0  0  0  0  0  0  0  0  0  0  0
    2.5338   -7.6891   16.0102 C   0  0  0  0  0  0  0  0  0  0  0  0
    4.8690   -7.4380   26.4151 C   0  0  0  0  0  0  0  0  0  0  0  0
    2.3021   -5.6726   26.0378 C   0  0  0  0  0  0  0  0  0  0  0  0
    7.0880   -4.6163   27.0010 C   0  0  0  0  0  0  0  0  0  0  0  0
    8.3117   -4.3698   27.4436 C   0  0  0  0  0  0  0  0  0  0  0  0
    1.1339   -5.0515   26.3541 C   0  0  0  0  0  0  0  0  0  0  0  0
    4.8080   -8.0362   16.7101 C   0  0  0  0  0  0  0  0  0  0  0  0
   -1.2173   -3.9294   26.9717 O   0  0  0  0  0  0  0  0  0  0  0  0
   -1.0025   -5.0942   27.4586 C   0  0  0  0  0  0  0  0  0  0  0  0
    2.2474   -8.9123   16.6273 C   0  0  0  0  0  0  0  0  0  0  0  0
    4.4957   -9.2636   17.3041 C   0  0  0  0  0  0  0  0  0  0  0  0
   -1.8070   -5.6086   28.1920 O   0  0  0  0  0  0  0  0  0  0  0  0
   10.4296   -5.1799   28.3140 C   0  0  0  0  0  0  0  0  0  0  0  0
    6.6017   -5.9004   26.9187 C   0  0  0  0  0  0  0  0  0  0  0  0
    2.4761   -6.9940   26.4111 N   0  0  0  0  0  0  0  0  0  0  0  0
    9.1353   -5.4053   27.8239 C   0  0  0  0  0  0  0  0  0  0  0  0
    0.9922   -9.3232   16.5995 O   0  0  0  0  0  0  0  0  0  0  0  0
    1.5232   -7.6869   27.1182 C   0  0  0  0  0  0  0  0  0  0  0  0
    8.6878   -6.6715   27.7262 N   0  0  0  0  0  0  0  0  0  0  0  0
    6.9911   -8.2423   27.1808 C   0  0  0  0  0  0  0  0  0  0  0  0
    3.8436   -7.2758   16.0578 C   0  0  0  0  0  0  0  0  0  0  0  0
    3.1882   -9.7190   17.2566 C   0  0  0  0  0  0  0  0  0  0  0  0
    5.3488   -6.1737   26.5092 C   0  0  0  0  0  0  0  0  0  0  0  0
    7.4567   -6.9464   27.2858 C   0  0  0  0  0  0  0  0  0  0  0  0
    0.1921   -5.7592   27.1123 C   0  0  0  0  0  0  0  0  0  0  0  0
    3.5517   -7.7407   25.9711 C   0  0  0  0  0  0  0  0  0  0  0  0
  1  4  4  0
  1 22  4  0
  2 20  4  0
  2 27  4  0
  3 12  4  0
  3 23  4  0
  4 25  4  0
  4 28  1  0
  5  8  4  0
  5 17  4  0
  6  7  4  0
  6 16  4  0
  7 18  4  0
  8 27  4  0
  9 13  4  0
  9 23  4  0
 10 11  1  0
 11 14  2  0
 11 27  1  0
 12 19  1  0
 12 24  4  0
 13 24  4  0
 15 18  1  0
 16 25  4  0
 16 26  4  0
 17 20  4  0
 17 28  1  0
 18 21  4  0
 21 26  4  0
 22 26  4  0
M  END
$$$$

 Created by Python create_sdf_string function

 28 30  0  0  0  0  0  0  0  0999 V2000
    5.7174   -8.4529   26.7190 C   0  0  0  0  0  0  0  0  0  0  0  0
    0.3974   -7.0711   27.5149 C   0  0  0  0  0  0  0  0  0  0  0  0
    2.5338   -7.6891   16.0102 C   0  0  0  0  0  0  0  0  0  0  0  0
    4.8690   -7.4380   26.4151 C   0  0  0  0  0  0  0  0  0  0  0  0
    2.3021   -5.6726   26.0378 C   0  0  0  0  0  0  0  0  0  0  0  0
    7.0880   -4.6163   27.0010 C   0  0  0  0  0  0  0  0  0  0  0  0
    8.3117   -4.3698   27.4436 C   0  0  0  0  0  0  0  0  0  0  0  0
    1.1339   -5.0515   26.3541 C   0  0  0  0  0  0  0  0  0  0  0  0
    4.8080   -8.0362   16.7101 C   0  0  0  0  0  0  0  0  0  0  0  0
   -1.2173   -3.9294   26.9717 O   0  0  0  0  0  0  0  0  0  0  0  0
   -1.0025   -5.0942   27.4586 C   0  0  0  0  0  0  0  0  0  0  0  0
    2.2474   -8.9123   16.6273 C   0  0  0  0  0  0  0  0  0  0  0  0
    4.4957   -9.2636   17.3041 C   0  0  0  0  0  0  0  0  0  0  0  0
   -1.8070   -5.6086   28.1920 O   0  0  0  0  0  0  0  0  0  0  0  0
   10.4296   -5.1799   28.3140 C   0  0  0  0  0  0  0  0  0  0  0  0
    6.6017   -5.9004   26.9187 C   0  0  0  0  0  0  0  0  0  0  0  0
    2.4761   -6.9940   26.4111 N   0  0  0  0  0  0  0  0  0  0  0  0
    9.1353   -5.4053   27.8239 C   0  0  0  0  0  0  0  0  0  0  0  0
    0.9922   -9.3232   16.5995 O   0  0  0  0  0  0  0  0  0  0  0  0
    1.5232   -7.6869   27.1182 C   0  0  0  0  0  0  0  0  0  0  0  0
    8.6878   -6.6715   27.7262 N   0  0  0  0  0  0  0  0  0  0  0  0
    6.9911   -8.2423   27.1808 C   0  0  0  0  0  0  0  0  0  0  0  0
    3.8436   -7.2758   16.0578 C   0  0  0  0  0  0  0  0  0  0  0  0
    3.1882   -9.7190   17.2566 C   0  0  0  0  0  0  0  0  0  0  0  0
    5.3488   -6.1737   26.5092 C   0  0  0  0  0  0  0  0  0  0  0  0
    7.4567   -6.9464   27.2858 C   0  0  0  0  0  0  0  0  0  0  0  0
    0.1921   -5.7592   27.1123 C   0  0  0  0  0  0  0  0  0  0  0  0
    3.5517   -7.7407   25.9711 C   0  0  0  0  0  0  0  0  0  0  0  0
  1  4  4  0
  1 22  4  0
  2 20  4  0
  2 27  4  0
  3 12  4  0
  3 23  4  0
  4 25  4  0
  4 28  1  0
  5  8  4  0
  5 17  4  0
  6  7  4  0
  6 16  4  0
  7 18  4  0
  8 27  4  0
  9 13  4  0
  9 23  4  0
 10 11  1  0
 11 14  2  0
 11 27  1  0
 12 19  1  0
 12 24  4  0
 13 24  4  0
 15 18  1  0
 16 25  4  0
 16 26  4  0
 17 20  4  0
 17 28  1  0
 18 21  4  0
 21 26  4  0
 22 26  4  0
M  END
$$$$

 Created by Python create_sdf_string function

 28 30  0  0  0  0  0  0  0  0999 V2000
    5.7174   -8.4529   26.7190 C   0  0  0  0  0  0  0  0  0  0  0  0
    0.3974   -7.0711   27.5149 C   0  0  0  0  0  0  0  0  0  0  0  0
    2.5338   -7.6891   16.0102 C   0  0  0  0  0  0  0  0  0  0  0  0
    4.8690   -7.4380   26.4151 C   0  0  0  0  0  0  0  0  0  0  0  0
    2.3021   -5.6726   26.0378 C   0  0  0  0  0  0  0  0  0  0  0  0
    7.0880   -4.6163   27.0010 C   0  0  0  0  0  0  0  0  0  0  0  0
    8.3117   -4.3698   27.4436 C   0  0  0  0  0  0  0  0  0  0  0  0
    1.1339   -5.0515   26.3541 C   0  0  0  0  0  0  0  0  0  0  0  0
    4.8080   -8.0362   16.7101 C   0  0  0  0  0  0  0  0  0  0  0  0
   -1.2173   -3.9294   26.9717 O   0  0  0  0  0  0  0  0  0  0  0  0
   -1.0025   -5.0942   27.4586 C   0  0  0  0  0  0  0  0  0  0  0  0
    2.2474   -8.9123   16.6273 C   0  0  0  0  0  0  0  0  0  0  0  0
    4.4957   -9.2636   17.3041 C   0  0  0  0  0  0  0  0  0  0  0  0
   -1.8070   -5.6086   28.1920 O   0  0  0  0  0  0  0  0  0  0  0  0
   10.4296   -5.1799   28.3140 C   0  0  0  0  0  0  0  0  0  0  0  0
    6.6017   -5.9004   26.9187 C   0  0  0  0  0  0  0  0  0  0  0  0
    2.4761   -6.9940   26.4111 N   0  0  0  0  0  0  0  0  0  0  0  0
    9.1353   -5.4053   27.8239 C   0  0  0  0  0  0  0  0  0  0  0  0
    0.9922   -9.3232   16.5995 O   0  0  0  0  0  0  0  0  0  0  0  0
    1.5232   -7.6869   27.1182 C   0  0  0  0  0  0  0  0  0  0  0  0
    8.6878   -6.6715   27.7262 N   0  0  0  0  0  0  0  0  0  0  0  0
    6.9911   -8.2423   27.1808 C   0  0  0  0  0  0  0  0  0  0  0  0
    3.8436   -7.2758   16.0578 C   0  0  0  0  0  0  0  0  0  0  0  0
    3.1882   -9.7190   17.2566 C   0  0  0  0  0  0  0  0  0  0  0  0
    5.3488   -6.1737   26.5092 C   0  0  0  0  0  0  0  0  0  0  0  0
    7.4567   -6.9464   27.2858 C   0  0  0  0  0  0  0  0  0  0  0  0
    0.1921   -5.7592   27.1123 C   0  0  0  0  0  0  0  0  0  0  0  0
    3.5517   -7.7407   25.9711 C   0  0  0  0  0  0  0  0  0  0  0  0
  1  4  4  0
  1 22  4  0
  2 20  4  0
  2 27  4  0
  3 12  4  0
  3 23  4  0
  4 25  4  0
  4 28  1  0
  5  8  4  0
  5 17  4  0
  6  7  4  0
  6 16  4  0
  7 18  4  0
  8 27  4  0
  9 13  4  0
  9 23  4  0
 10 11  1  0
 11 14  2  0
 11 27  1  0
 12 19  1  0
 12 24  4  0
 13 24  4  0
 15 18  1  0
 16 25  4  0
 16 26  4  0
 17 20  4  0
 17 28  1  0
 18 21  4  0
 21 26  4  0
 22 26  4  0
M  END
$$$$

 Created by Python create_sdf_string function

 28 30  0  0  0  0  0  0  0  0999 V2000
    5.7174   -8.4529   26.7190 C   0  0  0  0  0  0  0  0  0  0  0  0
    0.3974   -7.0711   27.5149 C   0  0  0  0  0  0  0  0  0  0  0  0
    2.5338   -7.6891   16.0102 C   0  0  0  0  0  0  0  0  0  0  0  0
    4.8690   -7.4380   26.4151 C   0  0  0  0  0  0  0  0  0  0  0  0
    2.3021   -5.6726   26.0378 C   0  0  0  0  0  0  0  0  0  0  0  0
    7.0880   -4.6163   27.0010 C   0  0  0  0  0  0  0  0  0  0  0  0
    8.3117   -4.3698   27.4436 C   0  0  0  0  0  0  0  0  0  0  0  0
    1.1339   -5.0515   26.3541 C   0  0  0  0  0  0  0  0  0  0  0  0
    4.8080   -8.0362   16.7101 C   0  0  0  0  0  0  0  0  0  0  0  0
   -1.2173   -3.9294   26.9717 O   0  0  0  0  0  0  0  0  0  0  0  0
   -1.0025   -5.0942   27.4586 C   0  0  0  0  0  0  0  0  0  0  0  0
    2.2474   -8.9123   16.6273 C   0  0  0  0  0  0  0  0  0  0  0  0
    4.4957   -9.2636   17.3041 C   0  0  0  0  0  0  0  0  0  0  0  0
   -1.8070   -5.6086   28.1920 O   0  0  0  0  0  0  0  0  0  0  0  0
   10.4296   -5.1799   28.3140 C   0  0  0  0  0  0  0  0  0  0  0  0
    6.6017   -5.9004   26.9187 C   0  0  0  0  0  0  0  0  0  0  0  0
    2.4761   -6.9940   26.4111 N   0  0  0  0  0  0  0  0  0  0  0  0
    9.1353   -5.4053   27.8239 C   0  0  0  0  0  0  0  0  0  0  0  0
    0.9922   -9.3232   16.5995 O   0  0  0  0  0  0  0  0  0  0  0  0
    1.5232   -7.6869   27.1182 C   0  0  0  0  0  0  0  0  0  0  0  0
    8.6878   -6.6715   27.7262 N   0  0  0  0  0  0  0  0  0  0  0  0
    6.9911   -8.2423   27.1808 C   0  0  0  0  0  0  0  0  0  0  0  0
    3.8436   -7.2758   16.0578 C   0  0  0  0  0  0  0  0  0  0  0  0
    3.1882   -9.7190   17.2566 C   0  0  0  0  0  0  0  0  0  0  0  0
    5.3488   -6.1737   26.5092 C   0  0  0  0  0  0  0  0  0  0  0  0
    7.4567   -6.9464   27.2858 C   0  0  0  0  0  0  0  0  0  0  0  0
    0.1921   -5.7592   27.1123 C   0  0  0  0  0  0  0  0  0  0  0  0
    3.5517   -7.7407   25.9711 C   0  0  0  0  0  0  0  0  0  0  0  0
  1  4  4  0
  1 22  4  0
  2 20  4  0
  2 27  4  0
  3 12  4  0
  3 23  4  0
  4 25  4  0
  4 28  1  0
  5  8  4  0
  5 17  4  0
  6  7  4  0
  6 16  4  0
  7 18  4  0
  8 27  4  0
  9 13  4  0
  9 23  4  0
 10 11  1  0
 11 14  2  0
 11 27  1  0
 12 19  1  0
 12 24  4  0
 13 24  4  0
 15 18  1  0
 16 25  4  0
 16 26  4  0
 17 20  4  0
 17 28  1  0
 18 21  4  0
 21 26  4  0
 22 26  4  0
M  END
$$$$

 Created by Python create_sdf_string function

 28 30  0  0  0  0  0  0  0  0999 V2000
    5.7174   -8.4529   26.7190 C   0  0  0  0  0  0  0  0  0  0  0  0
    0.3974   -7.0711   27.5149 C   0  0  0  0  0  0  0  0  0  0  0  0
    2.5338   -7.6891   16.0102 C   0  0  0  0  0  0  0  0  0  0  0  0
    4.8690   -7.4380   26.4151 C   0  0  0  0  0  0  0  0  0  0  0  0
    2.3021   -5.6726   26.0378 C   0  0  0  0  0  0  0  0  0  0  0  0
    7.0880   -4.6163   27.0010 C   0  0  0  0  0  0  0  0  0  0  0  0
    8.3117   -4.3698   27.4436 C   0  0  0  0  0  0  0  0  0  0  0  0
    1.1339   -5.0515   26.3541 C   0  0  0  0  0  0  0  0  0  0  0  0
    4.8080   -8.0362   16.7101 C   0  0  0  0  0  0  0  0  0  0  0  0
   -1.2173   -3.9294   26.9717 O   0  0  0  0  0  0  0  0  0  0  0  0
   -1.0025   -5.0942   27.4586 C   0  0  0  0  0  0  0  0  0  0  0  0
    2.2474   -8.9123   16.6273 C   0  0  0  0  0  0  0  0  0  0  0  0
    4.4957   -9.2636   17.3041 C   0  0  0  0  0  0  0  0  0  0  0  0
   -1.8070   -5.6086   28.1920 O   0  0  0  0  0  0  0  0  0  0  0  0
   10.4296   -5.1799   28.3140 C   0  0  0  0  0  0  0  0  0  0  0  0
    6.6017   -5.9004   26.9187 C   0  0  0  0  0  0  0  0  0  0  0  0
    2.4761   -6.9940   26.4111 N   0  0  0  0  0  0  0  0  0  0  0  0
    9.1353   -5.4053   27.8239 C   0  0  0  0  0  0  0  0  0  0  0  0
    0.9922   -9.3232   16.5995 O   0  0  0  0  0  0  0  0  0  0  0  0
    1.5232   -7.6869   27.1182 C   0  0  0  0  0  0  0  0  0  0  0  0
    8.6878   -6.6715   27.7262 N   0  0  0  0  0  0  0  0  0  0  0  0
    6.9911   -8.2423   27.1808 C   0  0  0  0  0  0  0  0  0  0  0  0
    3.8436   -7.2758   16.0578 C   0  0  0  0  0  0  0  0  0  0  0  0
    3.1882   -9.7190   17.2566 C   0  0  0  0  0  0  0  0  0  0  0  0
    5.3488   -6.1737   26.5092 C   0  0  0  0  0  0  0  0  0  0  0  0
    7.4567   -6.9464   27.2858 C   0  0  0  0  0  0  0  0  0  0  0  0
    0.1921   -5.7592   27.1123 C   0  0  0  0  0  0  0  0  0  0  0  0
    3.5517   -7.7407   25.9711 C   0  0  0  0  0  0  0  0  0  0  0  0
  1  4  4  0
  1 22  4  0
  2 20  4  0
  2 27  4  0
  3 12  4  0
  3 23  4  0
  4 25  4  0
  4 28  1  0
  5  8  4  0
  5 17  4  0
  6  7  4  0
  6 16  4  0
  7 18  4  0
  8 27  4  0
  9 13  4  0
  9 23  4  0
 10 11  1  0
 11 14  2  0
 11 27  1  0
 12 19  1  0
 12 24  4  0
 13 24  4  0
 15 18  1  0
 16 25  4  0
 16 26  4  0
 17 20  4  0
 17 28  1  0
 18 21  4  0
 21 26  4  0
 22 26  4  0
M  END
$$$$

 Created by Python create_sdf_string function

 28 30  0  0  0  0  0  0  0  0999 V2000
    5.7174   -8.4529   26.7190 C   0  0  0  0  0  0  0  0  0  0  0  0
    0.3974   -7.0711   27.5149 C   0  0  0  0  0  0  0  0  0  0  0  0
    2.5338   -7.6891   16.0102 C   0  0  0  0  0  0  0  0  0  0  0  0
    4.8690   -7.4380   26.4151 C   0  0  0  0  0  0  0  0  0  0  0  0
    2.3021   -5.6726   26.0378 C   0  0  0  0  0  0  0  0  0  0  0  0
    7.0880   -4.6163   27.0010 C   0  0  0  0  0  0  0  0  0  0  0  0
    8.3117   -4.3698   27.4436 C   0  0  0  0  0  0  0  0  0  0  0  0
    1.1339   -5.0515   26.3541 C   0  0  0  0  0  0  0  0  0  0  0  0
    4.8080   -8.0362   16.7101 C   0  0  0  0  0  0  0  0  0  0  0  0
   -1.2173   -3.9294   26.9717 O   0  0  0  0  0  0  0  0  0  0  0  0
   -1.0025   -5.0942   27.4586 C   0  0  0  0  0  0  0  0  0  0  0  0
    2.2474   -8.9123   16.6273 C   0  0  0  0  0  0  0  0  0  0  0  0
    4.4957   -9.2636   17.3041 C   0  0  0  0  0  0  0  0  0  0  0  0
   -1.8070   -5.6086   28.1920 O   0  0  0  0  0  0  0  0  0  0  0  0
   10.4296   -5.1799   28.3140 C   0  0  0  0  0  0  0  0  0  0  0  0
    6.6017   -5.9004   26.9187 C   0  0  0  0  0  0  0  0  0  0  0  0
    2.4761   -6.9940   26.4111 N   0  0  0  0  0  0  0  0  0  0  0  0
    9.1353   -5.4053   27.8239 C   0  0  0  0  0  0  0  0  0  0  0  0
    0.9922   -9.3232   16.5995 O   0  0  0  0  0  0  0  0  0  0  0  0
    1.5232   -7.6869   27.1182 C   0  0  0  0  0  0  0  0  0  0  0  0
    8.6878   -6.6715   27.7262 N   0  0  0  0  0  0  0  0  0  0  0  0
    6.9911   -8.2423   27.1808 C   0  0  0  0  0  0  0  0  0  0  0  0
    3.8436   -7.2758   16.0578 C   0  0  0  0  0  0  0  0  0  0  0  0
    3.1882   -9.7190   17.2566 C   0  0  0  0  0  0  0  0  0  0  0  0
    5.3488   -6.1737   26.5092 C   0  0  0  0  0  0  0  0  0  0  0  0
    7.4567   -6.9464   27.2858 C   0  0  0  0  0  0  0  0  0  0  0  0
    0.1921   -5.7592   27.1123 C   0  0  0  0  0  0  0  0  0  0  0  0
    3.5517   -7.7407   25.9711 C   0  0  0  0  0  0  0  0  0  0  0  0
  1  4  4  0
  1 22  4  0
  2 20  4  0
  2 27  4  0
  3 12  4  0
  3 23  4  0
  4 25  4  0
  4 28  1  0
  5  8  4  0
  5 17  4  0
  6  7  4  0
  6 16  4  0
  7 18  4  0
  8 27  4  0
  9 13  4  0
  9 23  4  0
 10 11  1  0
 11 14  2  0
 11 27  1  0
 12 19  1  0
 12 24  4  0
 13 24  4  0
 15 18  1  0
 16 25  4  0
 16 26  4  0
 17 20  4  0
 17 28  1  0
 18 21  4  0
 21 26  4  0
 22 26  4  0
M  END
$$$$

 Created by Python create_sdf_string function

 28 30  0  0  0  0  0  0  0  0999 V2000
    5.7174   -8.4529   26.7190 C   0  0  0  0  0  0  0  0  0  0  0  0
    0.3974   -7.0711   27.5149 C   0  0  0  0  0  0  0  0  0  0  0  0
    2.5338   -7.6891   16.0102 C   0  0  0  0  0  0  0  0  0  0  0  0
    4.8690   -7.4380   26.4151 C   0  0  0  0  0  0  0  0  0  0  0  0
    2.3021   -5.6726   26.0378 C   0  0  0  0  0  0  0  0  0  0  0  0
    7.0880   -4.6163   27.0010 C   0  0  0  0  0  0  0  0  0  0  0  0
    8.3117   -4.3698   27.4436 C   0  0  0  0  0  0  0  0  0  0  0  0
    1.1339   -5.0515   26.3541 C   0  0  0  0  0  0  0  0  0  0  0  0
    4.8080   -8.0362   16.7101 C   0  0  0  0  0  0  0  0  0  0  0  0
   -1.2173   -3.9294   26.9717 O   0  0  0  0  0  0  0  0  0  0  0  0
   -1.0025   -5.0942   27.4586 C   0  0  0  0  0  0  0  0  0  0  0  0
    2.2474   -8.9123   16.6273 C   0  0  0  0  0  0  0  0  0  0  0  0
    4.4957   -9.2636   17.3041 C   0  0  0  0  0  0  0  0  0  0  0  0
   -1.8070   -5.6086   28.1920 O   0  0  0  0  0  0  0  0  0  0  0  0
   10.4296   -5.1799   28.3140 C   0  0  0  0  0  0  0  0  0  0  0  0
    6.6017   -5.9004   26.9187 C   0  0  0  0  0  0  0  0  0  0  0  0
    2.4761   -6.9940   26.4111 N   0  0  0  0  0  0  0  0  0  0  0  0
    9.1353   -5.4053   27.8239 C   0  0  0  0  0  0  0  0  0  0  0  0
    0.9922   -9.3232   16.5995 O   0  0  0  0  0  0  0  0  0  0  0  0
    1.5232   -7.6869   27.1182 C   0  0  0  0  0  0  0  0  0  0  0  0
    8.6878   -6.6715   27.7262 N   0  0  0  0  0  0  0  0  0  0  0  0
    6.9911   -8.2423   27.1808 C   0  0  0  0  0  0  0  0  0  0  0  0
    3.8436   -7.2758   16.0578 C   0  0  0  0  0  0  0  0  0  0  0  0
    3.1882   -9.7190   17.2566 C   0  0  0  0  0  0  0  0  0  0  0  0
    5.3488   -6.1737   26.5092 C   0  0  0  0  0  0  0  0  0  0  0  0
    7.4567   -6.9464   27.2858 C   0  0  0  0  0  0  0  0  0  0  0  0
    0.1921   -5.7592   27.1123 C   0  0  0  0  0  0  0  0  0  0  0  0
    3.5517   -7.7407   25.9711 C   0  0  0  0  0  0  0  0  0  0  0  0
  1  4  4  0
  1 22  4  0
  2 20  4  0
  2 27  4  0
  3 12  4  0
  3 23  4  0
  4 25  4  0
  4 28  1  0
  5  8  4  0
  5 17  4  0
  6  7  4  0
  6 16  4  0
  7 18  4  0
  8 27  4  0
  9 13  4  0
  9 23  4  0
 10 11  1  0
 11 14  2  0
 11 27  1  0
 12 19  1  0
 12 24  4  0
 13 24  4  0
 15 18  1  0
 16 25  4  0
 16 26  4  0
 17 20  4  0
 17 28  1  0
 18 21  4  0
 21 26  4  0
 22 26  4  0
M  END
$$$$

 Created by Python create_sdf_string function

 28 30  0  0  0  0  0  0  0  0999 V2000
    5.7174   -8.4529   26.7190 C   0  0  0  0  0  0  0  0  0  0  0  0
    0.3974   -7.0711   27.5149 C   0  0  0  0  0  0  0  0  0  0  0  0
    2.5338   -7.6891   16.0102 C   0  0  0  0  0  0  0  0  0  0  0  0
    4.8690   -7.4380   26.4151 C   0  0  0  0  0  0  0  0  0  0  0  0
    2.3021   -5.6726   26.0378 C   0  0  0  0  0  0  0  0  0  0  0  0
    7.0880   -4.6163   27.0010 C   0  0  0  0  0  0  0  0  0  0  0  0
    8.3117   -4.3698   27.4436 C   0  0  0  0  0  0  0  0  0  0  0  0
    1.1339   -5.0515   26.3541 C   0  0  0  0  0  0  0  0  0  0  0  0
    4.8080   -8.0362   16.7101 C   0  0  0  0  0  0  0  0  0  0  0  0
   -1.2173   -3.9294   26.9717 O   0  0  0  0  0  0  0  0  0  0  0  0
   -1.0025   -5.0942   27.4586 C   0  0  0  0  0  0  0  0  0  0  0  0
    2.2474   -8.9123   16.6273 C   0  0  0  0  0  0  0  0  0  0  0  0
    4.4957   -9.2636   17.3041 C   0  0  0  0  0  0  0  0  0  0  0  0
   -1.8070   -5.6086   28.1920 O   0  0  0  0  0  0  0  0  0  0  0  0
   10.4296   -5.1799   28.3140 C   0  0  0  0  0  0  0  0  0  0  0  0
    6.6017   -5.9004   26.9187 C   0  0  0  0  0  0  0  0  0  0  0  0
    2.4761   -6.9940   26.4111 N   0  0  0  0  0  0  0  0  0  0  0  0
    9.1353   -5.4053   27.8239 C   0  0  0  0  0  0  0  0  0  0  0  0
    0.9922   -9.3232   16.5995 O   0  0  0  0  0  0  0  0  0  0  0  0
    1.5232   -7.6869   27.1182 C   0  0  0  0  0  0  0  0  0  0  0  0
    8.6878   -6.6715   27.7262 N   0  0  0  0  0  0  0  0  0  0  0  0
    6.9911   -8.2423   27.1808 C   0  0  0  0  0  0  0  0  0  0  0  0
    3.8436   -7.2758   16.0578 C   0  0  0  0  0  0  0  0  0  0  0  0
    3.1882   -9.7190   17.2566 C   0  0  0  0  0  0  0  0  0  0  0  0
    5.3488   -6.1737   26.5092 C   0  0  0  0  0  0  0  0  0  0  0  0
    7.4567   -6.9464   27.2858 C   0  0  0  0  0  0  0  0  0  0  0  0
    0.1921   -5.7592   27.1123 C   0  0  0  0  0  0  0  0  0  0  0  0
    3.5517   -7.7407   25.9711 C   0  0  0  0  0  0  0  0  0  0  0  0
  1  4  4  0
  1 22  4  0
  2 20  4  0
  2 27  4  0
  3 12  4  0
  3 23  4  0
  4 25  4  0
  4 28  1  0
  5  8  4  0
  5 17  4  0
  6  7  4  0
  6 16  4  0
  7 18  4  0
  8 27  4  0
  9 13  4  0
  9 23  4  0
 10 11  1  0
 11 14  2  0
 11 27  1  0
 12 19  1  0
 12 24  4  0
 13 24  4  0
 15 18  1  0
 16 25  4  0
 16 26  4  0
 17 20  4  0
 17 28  1  0
 18 21  4  0
 21 26  4  0
 22 26  4  0
M  END
$$$$

 Created by Python create_sdf_string function

 28 30  0  0  0  0  0  0  0  0999 V2000
    5.7174   -8.4529   26.7190 C   0  0  0  0  0  0  0  0  0  0  0  0
    0.3974   -7.0711   27.5149 C   0  0  0  0  0  0  0  0  0  0  0  0
    2.5338   -7.6891   16.0102 C   0  0  0  0  0  0  0  0  0  0  0  0
    4.8690   -7.4380   26.4151 C   0  0  0  0  0  0  0  0  0  0  0  0
    2.3021   -5.6726   26.0378 C   0  0  0  0  0  0  0  0  0  0  0  0
    7.0880   -4.6163   27.0010 C   0  0  0  0  0  0  0  0  0  0  0  0
    8.3117   -4.3698   27.4436 C   0  0  0  0  0  0  0  0  0  0  0  0
    1.1339   -5.0515   26.3541 C   0  0  0  0  0  0  0  0  0  0  0  0
    4.8080   -8.0362   16.7101 C   0  0  0  0  0  0  0  0  0  0  0  0
   -1.2173   -3.9294   26.9717 O   0  0  0  0  0  0  0  0  0  0  0  0
   -1.0025   -5.0942   27.4586 C   0  0  0  0  0  0  0  0  0  0  0  0
    2.2474   -8.9123   16.6273 C   0  0  0  0  0  0  0  0  0  0  0  0
    4.4957   -9.2636   17.3041 C   0  0  0  0  0  0  0  0  0  0  0  0
   -1.8070   -5.6086   28.1920 O   0  0  0  0  0  0  0  0  0  0  0  0
   10.4296   -5.1799   28.3140 C   0  0  0  0  0  0  0  0  0  0  0  0
    6.6017   -5.9004   26.9187 C   0  0  0  0  0  0  0  0  0  0  0  0
    2.4761   -6.9940   26.4111 N   0  0  0  0  0  0  0  0  0  0  0  0
    9.1353   -5.4053   27.8239 C   0  0  0  0  0  0  0  0  0  0  0  0
    0.9922   -9.3232   16.5995 O   0  0  0  0  0  0  0  0  0  0  0  0
    1.5232   -7.6869   27.1182 C   0  0  0  0  0  0  0  0  0  0  0  0
    8.6878   -6.6715   27.7262 N   0  0  0  0  0  0  0  0  0  0  0  0
    6.9911   -8.2423   27.1808 C   0  0  0  0  0  0  0  0  0  0  0  0
    3.8436   -7.2758   16.0578 C   0  0  0  0  0  0  0  0  0  0  0  0
    3.1882   -9.7190   17.2566 C   0  0  0  0  0  0  0  0  0  0  0  0
    5.3488   -6.1737   26.5092 C   0  0  0  0  0  0  0  0  0  0  0  0
    7.4567   -6.9464   27.2858 C   0  0  0  0  0  0  0  0  0  0  0  0
    0.1921   -5.7592   27.1123 C   0  0  0  0  0  0  0  0  0  0  0  0
    3.5517   -7.7407   25.9711 C   0  0  0  0  0  0  0  0  0  0  0  0
  1  4  4  0
  1 22  4  0
  2 20  4  0
  2 27  4  0
  3 12  4  0
  3 23  4  0
  4 25  4  0
  4 28  1  0
  5  8  4  0
  5 17  4  0
  6  7  4  0
  6 16  4  0
  7 18  4  0
  8 27  4  0
  9 13  4  0
  9 23  4  0
 10 11  1  0
 11 14  2  0
 11 27  1  0
 12 19  1  0
 12 24  4  0
 13 24  4  0
 15 18  1  0
 16 25  4  0
 16 26  4  0
 17 20  4  0
 17 28  1  0
 18 21  4  0
 21 26  4  0
 22 26  4  0
M  END
$$$$

 Created by Python create_sdf_string function

 28 30  0  0  0  0  0  0  0  0999 V2000
    5.7174   -8.4529   26.7190 C   0  0  0  0  0  0  0  0  0  0  0  0
    0.3974   -7.0711   27.5149 C   0  0  0  0  0  0  0  0  0  0  0  0
    2.5338   -7.6891   16.0102 C   0  0  0  0  0  0  0  0  0  0  0  0
    4.8690   -7.4380   26.4151 C   0  0  0  0  0  0  0  0  0  0  0  0
    2.3021   -5.6726   26.0378 C   0  0  0  0  0  0  0  0  0  0  0  0
    7.0880   -4.6163   27.0010 C   0  0  0  0  0  0  0  0  0  0  0  0
    8.3117   -4.3698   27.4436 C   0  0  0  0  0  0  0  0  0  0  0  0
    1.1339   -5.0515   26.3541 C   0  0  0  0  0  0  0  0  0  0  0  0
    4.8080   -8.0362   16.7101 C   0  0  0  0  0  0  0  0  0  0  0  0
   -1.2173   -3.9294   26.9717 O   0  0  0  0  0  0  0  0  0  0  0  0
   -1.0025   -5.0942   27.4586 C   0  0  0  0  0  0  0  0  0  0  0  0
    2.2474   -8.9123   16.6273 C   0  0  0  0  0  0  0  0  0  0  0  0
    4.4957   -9.2636   17.3041 C   0  0  0  0  0  0  0  0  0  0  0  0
   -1.8070   -5.6086   28.1920 O   0  0  0  0  0  0  0  0  0  0  0  0
   10.4296   -5.1799   28.3140 C   0  0  0  0  0  0  0  0  0  0  0  0
    6.6017   -5.9004   26.9187 C   0  0  0  0  0  0  0  0  0  0  0  0
    2.4761   -6.9940   26.4111 N   0  0  0  0  0  0  0  0  0  0  0  0
    9.1353   -5.4053   27.8239 C   0  0  0  0  0  0  0  0  0  0  0  0
    0.9922   -9.3232   16.5995 O   0  0  0  0  0  0  0  0  0  0  0  0
    1.5232   -7.6869   27.1182 C   0  0  0  0  0  0  0  0  0  0  0  0
    8.6878   -6.6715   27.7262 N   0  0  0  0  0  0  0  0  0  0  0  0
    6.9911   -8.2423   27.1808 C   0  0  0  0  0  0  0  0  0  0  0  0
    3.8436   -7.2758   16.0578 C   0  0  0  0  0  0  0  0  0  0  0  0
    3.1882   -9.7190   17.2566 C   0  0  0  0  0  0  0  0  0  0  0  0
    5.3488   -6.1737   26.5092 C   0  0  0  0  0  0  0  0  0  0  0  0
    7.4567   -6.9464   27.2858 C   0  0  0  0  0  0  0  0  0  0  0  0
    0.1921   -5.7592   27.1123 C   0  0  0  0  0  0  0  0  0  0  0  0
    3.5517   -7.7407   25.9711 C   0  0  0  0  0  0  0  0  0  0  0  0
  1  4  4  0
  1 22  4  0
  2 20  4  0
  2 27  4  0
  3 12  4  0
  3 23  4  0
  4 25  4  0
  4 28  1  0
  5  8  4  0
  5 17  4  0
  6  7  4  0
  6 16  4  0
  7 18  4  0
  8 27  4  0
  9 13  4  0
  9 23  4  0
 10 11  1  0
 11 14  2  0
 11 27  1  0
 12 19  1  0
 12 24  4  0
 13 24  4  0
 15 18  1  0
 16 25  4  0
 16 26  4  0
 17 20  4  0
 17 28  1  0
 18 21  4  0
 21 26  4  0
 22 26  4  0
M  END
$$$$

 Created by Python create_sdf_string function

 28 30  0  0  0  0  0  0  0  0999 V2000
    5.7174   -8.4529   26.7190 C   0  0  0  0  0  0  0  0  0  0  0  0
    0.3974   -7.0711   27.5149 C   0  0  0  0  0  0  0  0  0  0  0  0
    2.5338   -7.6891   16.0102 C   0  0  0  0  0  0  0  0  0  0  0  0
    4.8690   -7.4380   26.4151 C   0  0  0  0  0  0  0  0  0  0  0  0
    2.3021   -5.6726   26.0378 C   0  0  0  0  0  0  0  0  0  0  0  0
    7.0880   -4.6163   27.0010 C   0  0  0  0  0  0  0  0  0  0  0  0
    8.3117   -4.3698   27.4436 C   0  0  0  0  0  0  0  0  0  0  0  0
    1.1339   -5.0515   26.3541 C   0  0  0  0  0  0  0  0  0  0  0  0
    4.8080   -8.0362   16.7101 C   0  0  0  0  0  0  0  0  0  0  0  0
   -1.2173   -3.9294   26.9717 O   0  0  0  0  0  0  0  0  0  0  0  0
   -1.0025   -5.0942   27.4586 C   0  0  0  0  0  0  0  0  0  0  0  0
    2.2474   -8.9123   16.6273 C   0  0  0  0  0  0  0  0  0  0  0  0
    4.4957   -9.2636   17.3041 C   0  0  0  0  0  0  0  0  0  0  0  0
   -1.8070   -5.6086   28.1920 O   0  0  0  0  0  0  0  0  0  0  0  0
   10.4296   -5.1799   28.3140 C   0  0  0  0  0  0  0  0  0  0  0  0
    6.6017   -5.9004   26.9187 C   0  0  0  0  0  0  0  0  0  0  0  0
    2.4761   -6.9940   26.4111 N   0  0  0  0  0  0  0  0  0  0  0  0
    9.1353   -5.4053   27.8239 C   0  0  0  0  0  0  0  0  0  0  0  0
    0.9922   -9.3232   16.5995 O   0  0  0  0  0  0  0  0  0  0  0  0
    1.5232   -7.6869   27.1182 C   0  0  0  0  0  0  0  0  0  0  0  0
    8.6878   -6.6715   27.7262 N   0  0  0  0  0  0  0  0  0  0  0  0
    6.9911   -8.2423   27.1808 C   0  0  0  0  0  0  0  0  0  0  0  0
    3.8436   -7.2758   16.0578 C   0  0  0  0  0  0  0  0  0  0  0  0
    3.1882   -9.7190   17.2566 C   0  0  0  0  0  0  0  0  0  0  0  0
    5.3488   -6.1737   26.5092 C   0  0  0  0  0  0  0  0  0  0  0  0
    7.4567   -6.9464   27.2858 C   0  0  0  0  0  0  0  0  0  0  0  0
    0.1921   -5.7592   27.1123 C   0  0  0  0  0  0  0  0  0  0  0  0
    3.5517   -7.7407   25.9711 C   0  0  0  0  0  0  0  0  0  0  0  0
  1  4  4  0
  1 22  4  0
  2 20  4  0
  2 27  4  0
  3 12  4  0
  3 23  4  0
  4 25  4  0
  4 28  1  0
  5  8  4  0
  5 17  4  0
  6  7  4  0
  6 16  4  0
  7 18  4  0
  8 27  4  0
  9 13  4  0
  9 23  4  0
 10 11  1  0
 11 14  2  0
 11 27  1  0
 12 19  1  0
 12 24  4  0
 13 24  4  0
 15 18  1  0
 16 25  4  0
 16 26  4  0
 17 20  4  0
 17 28  1  0
 18 21  4  0
 21 26  4  0
 22 26  4  0
M  END
$$$$

 Created by Python create_sdf_string function

 28 30  0  0  0  0  0  0  0  0999 V2000
    5.7174   -8.4529   26.7190 C   0  0  0  0  0  0  0  0  0  0  0  0
    0.3974   -7.0711   27.5149 C   0  0  0  0  0  0  0  0  0  0  0  0
    2.5338   -7.6891   16.0102 C   0  0  0  0  0  0  0  0  0  0  0  0
    4.8690   -7.4380   26.4151 C   0  0  0  0  0  0  0  0  0  0  0  0
    2.3021   -5.6726   26.0378 C   0  0  0  0  0  0  0  0  0  0  0  0
    7.0880   -4.6163   27.0010 C   0  0  0  0  0  0  0  0  0  0  0  0
    8.3117   -4.3698   27.4436 C   0  0  0  0  0  0  0  0  0  0  0  0
    1.1339   -5.0515   26.3541 C   0  0  0  0  0  0  0  0  0  0  0  0
    4.8080   -8.0362   16.7101 C   0  0  0  0  0  0  0  0  0  0  0  0
   -1.2173   -3.9294   26.9717 O   0  0  0  0  0  0  0  0  0  0  0  0
   -1.0025   -5.0942   27.4586 C   0  0  0  0  0  0  0  0  0  0  0  0
    2.2474   -8.9123   16.6273 C   0  0  0  0  0  0  0  0  0  0  0  0
    4.4957   -9.2636   17.3041 C   0  0  0  0  0  0  0  0  0  0  0  0
   -1.8070   -5.6086   28.1920 O   0  0  0  0  0  0  0  0  0  0  0  0
   10.4296   -5.1799   28.3140 C   0  0  0  0  0  0  0  0  0  0  0  0
    6.6017   -5.9004   26.9187 C   0  0  0  0  0  0  0  0  0  0  0  0
    2.4761   -6.9940   26.4111 N   0  0  0  0  0  0  0  0  0  0  0  0
    9.1353   -5.4053   27.8239 C   0  0  0  0  0  0  0  0  0  0  0  0
    0.9922   -9.3232   16.5995 O   0  0  0  0  0  0  0  0  0  0  0  0
    1.5232   -7.6869   27.1182 C   0  0  0  0  0  0  0  0  0  0  0  0
    8.6878   -6.6715   27.7262 N   0  0  0  0  0  0  0  0  0  0  0  0
    6.9911   -8.2423   27.1808 C   0  0  0  0  0  0  0  0  0  0  0  0
    3.8436   -7.2758   16.0578 C   0  0  0  0  0  0  0  0  0  0  0  0
    3.1882   -9.7190   17.2566 C   0  0  0  0  0  0  0  0  0  0  0  0
    5.3488   -6.1737   26.5092 C   0  0  0  0  0  0  0  0  0  0  0  0
    7.4567   -6.9464   27.2858 C   0  0  0  0  0  0  0  0  0  0  0  0
    0.1921   -5.7592   27.1123 C   0  0  0  0  0  0  0  0  0  0  0  0
    3.5517   -7.7407   25.9711 C   0  0  0  0  0  0  0  0  0  0  0  0
  1  4  4  0
  1 22  4  0
  2 20  4  0
  2 27  4  0
  3 12  4  0
  3 23  4  0
  4 25  4  0
  4 28  1  0
  5  8  4  0
  5 17  4  0
  6  7  4  0
  6 16  4  0
  7 18  4  0
  8 27  4  0
  9 13  4  0
  9 23  4  0
 10 11  1  0
 11 14  2  0
 11 27  1  0
 12 19  1  0
 12 24  4  0
 13 24  4  0
 15 18  1  0
 16 25  4  0
 16 26  4  0
 17 20  4  0
 17 28  1  0
 18 21  4  0
 21 26  4  0
 22 26  4  0
M  END
$$$$

 Created by Python create_sdf_string function

 28 30  0  0  0  0  0  0  0  0999 V2000
    5.7174   -8.4529   26.7190 C   0  0  0  0  0  0  0  0  0  0  0  0
    0.3974   -7.0711   27.5149 C   0  0  0  0  0  0  0  0  0  0  0  0
    2.5338   -7.6891   16.0102 C   0  0  0  0  0  0  0  0  0  0  0  0
    4.8690   -7.4380   26.4151 C   0  0  0  0  0  0  0  0  0  0  0  0
    2.3021   -5.6726   26.0378 C   0  0  0  0  0  0  0  0  0  0  0  0
    7.0880   -4.6163   27.0010 C   0  0  0  0  0  0  0  0  0  0  0  0
    8.3117   -4.3698   27.4436 C   0  0  0  0  0  0  0  0  0  0  0  0
    1.1339   -5.0515   26.3541 C   0  0  0  0  0  0  0  0  0  0  0  0
    4.8080   -8.0362   16.7101 C   0  0  0  0  0  0  0  0  0  0  0  0
   -1.2173   -3.9294   26.9717 O   0  0  0  0  0  0  0  0  0  0  0  0
   -1.0025   -5.0942   27.4586 C   0  0  0  0  0  0  0  0  0  0  0  0
    2.2474   -8.9123   16.6273 C   0  0  0  0  0  0  0  0  0  0  0  0
    4.4957   -9.2636   17.3041 C   0  0  0  0  0  0  0  0  0  0  0  0
   -1.8070   -5.6086   28.1920 O   0  0  0  0  0  0  0  0  0  0  0  0
   10.4296   -5.1799   28.3140 C   0  0  0  0  0  0  0  0  0  0  0  0
    6.6017   -5.9004   26.9187 C   0  0  0  0  0  0  0  0  0  0  0  0
    2.4761   -6.9940   26.4111 N   0  0  0  0  0  0  0  0  0  0  0  0
    9.1353   -5.4053   27.8239 C   0  0  0  0  0  0  0  0  0  0  0  0
    0.9922   -9.3232   16.5995 O   0  0  0  0  0  0  0  0  0  0  0  0
    1.5232   -7.6869   27.1182 C   0  0  0  0  0  0  0  0  0  0  0  0
    8.6878   -6.6715   27.7262 N   0  0  0  0  0  0  0  0  0  0  0  0
    6.9911   -8.2423   27.1808 C   0  0  0  0  0  0  0  0  0  0  0  0
    3.8436   -7.2758   16.0578 C   0  0  0  0  0  0  0  0  0  0  0  0
    3.1882   -9.7190   17.2566 C   0  0  0  0  0  0  0  0  0  0  0  0
    5.3488   -6.1737   26.5092 C   0  0  0  0  0  0  0  0  0  0  0  0
    7.4567   -6.9464   27.2858 C   0  0  0  0  0  0  0  0  0  0  0  0
    0.1921   -5.7592   27.1123 C   0  0  0  0  0  0  0  0  0  0  0  0
    3.5517   -7.7407   25.9711 C   0  0  0  0  0  0  0  0  0  0  0  0
  1  4  4  0
  1 22  4  0
  2 20  4  0
  2 27  4  0
  3 12  4  0
  3 23  4  0
  4 25  4  0
  4 28  1  0
  5  8  4  0
  5 17  4  0
  6  7  4  0
  6 16  4  0
  7 18  4  0
  8 27  4  0
  9 13  4  0
  9 23  4  0
 10 11  1  0
 11 14  2  0
 11 27  1  0
 12 19  1  0
 12 24  4  0
 13 24  4  0
 15 18  1  0
 16 25  4  0
 16 26  4  0
 17 20  4  0
 17 28  1  0
 18 21  4  0
 21 26  4  0
 22 26  4  0
M  END
$$$$

 Created by Python create_sdf_string function

 28 30  0  0  0  0  0  0  0  0999 V2000
    5.7174   -8.4529   26.7190 C   0  0  0  0  0  0  0  0  0  0  0  0
    0.3974   -7.0711   27.5149 C   0  0  0  0  0  0  0  0  0  0  0  0
    2.5338   -7.6891   16.0102 C   0  0  0  0  0  0  0  0  0  0  0  0
    4.8690   -7.4380   26.4151 C   0  0  0  0  0  0  0  0  0  0  0  0
    2.3021   -5.6726   26.0378 C   0  0  0  0  0  0  0  0  0  0  0  0
    7.0880   -4.6163   27.0010 C   0  0  0  0  0  0  0  0  0  0  0  0
    8.3117   -4.3698   27.4436 C   0  0  0  0  0  0  0  0  0  0  0  0
    1.1339   -5.0515   26.3541 C   0  0  0  0  0  0  0  0  0  0  0  0
    4.8080   -8.0362   16.7101 C   0  0  0  0  0  0  0  0  0  0  0  0
   -1.2173   -3.9294   26.9717 O   0  0  0  0  0  0  0  0  0  0  0  0
   -1.0025   -5.0942   27.4586 C   0  0  0  0  0  0  0  0  0  0  0  0
    2.2474   -8.9123   16.6273 C   0  0  0  0  0  0  0  0  0  0  0  0
    4.4957   -9.2636   17.3041 C   0  0  0  0  0  0  0  0  0  0  0  0
   -1.8070   -5.6086   28.1920 O   0  0  0  0  0  0  0  0  0  0  0  0
   10.4296   -5.1799   28.3140 C   0  0  0  0  0  0  0  0  0  0  0  0
    6.6017   -5.9004   26.9187 C   0  0  0  0  0  0  0  0  0  0  0  0
    2.4761   -6.9940   26.4111 N   0  0  0  0  0  0  0  0  0  0  0  0
    9.1353   -5.4053   27.8239 C   0  0  0  0  0  0  0  0  0  0  0  0
    0.9922   -9.3232   16.5995 O   0  0  0  0  0  0  0  0  0  0  0  0
    1.5232   -7.6869   27.1182 C   0  0  0  0  0  0  0  0  0  0  0  0
    8.6878   -6.6715   27.7262 N   0  0  0  0  0  0  0  0  0  0  0  0
    6.9911   -8.2423   27.1808 C   0  0  0  0  0  0  0  0  0  0  0  0
    3.8436   -7.2758   16.0578 C   0  0  0  0  0  0  0  0  0  0  0  0
    3.1882   -9.7190   17.2566 C   0  0  0  0  0  0  0  0  0  0  0  0
    5.3488   -6.1737   26.5092 C   0  0  0  0  0  0  0  0  0  0  0  0
    7.4567   -6.9464   27.2858 C   0  0  0  0  0  0  0  0  0  0  0  0
    0.1921   -5.7592   27.1123 C   0  0  0  0  0  0  0  0  0  0  0  0
    3.5517   -7.7407   25.9711 C   0  0  0  0  0  0  0  0  0  0  0  0
  1  4  4  0
  1 22  4  0
  2 20  4  0
  2 27  4  0
  3 12  4  0
  3 23  4  0
  4 25  4  0
  4 28  1  0
  5  8  4  0
  5 17  4  0
  6  7  4  0
  6 16  4  0
  7 18  4  0
  8 27  4  0
  9 13  4  0
  9 23  4  0
 10 11  1  0
 11 14  2  0
 11 27  1  0
 12 19  1  0
 12 24  4  0
 13 24  4  0
 15 18  1  0
 16 25  4  0
 16 26  4  0
 17 20  4  0
 17 28  1  0
 18 21  4  0
 21 26  4  0
 22 26  4  0
M  END
$$$$

 Created by Python create_sdf_string function

 28 30  0  0  0  0  0  0  0  0999 V2000
    5.7174   -8.4529   26.7190 C   0  0  0  0  0  0  0  0  0  0  0  0
    0.3974   -7.0711   27.5149 C   0  0  0  0  0  0  0  0  0  0  0  0
    2.5338   -7.6891   16.0102 C   0  0  0  0  0  0  0  0  0  0  0  0
    4.8690   -7.4380   26.4151 C   0  0  0  0  0  0  0  0  0  0  0  0
    2.3021   -5.6726   26.0378 C   0  0  0  0  0  0  0  0  0  0  0  0
    7.0880   -4.6163   27.0010 C   0  0  0  0  0  0  0  0  0  0  0  0
    8.3117   -4.3698   27.4436 C   0  0  0  0  0  0  0  0  0  0  0  0
    1.1339   -5.0515   26.3541 C   0  0  0  0  0  0  0  0  0  0  0  0
    4.8080   -8.0362   16.7101 C   0  0  0  0  0  0  0  0  0  0  0  0
   -1.2173   -3.9294   26.9717 O   0  0  0  0  0  0  0  0  0  0  0  0
   -1.0025   -5.0942   27.4586 C   0  0  0  0  0  0  0  0  0  0  0  0
    2.2474   -8.9123   16.6273 C   0  0  0  0  0  0  0  0  0  0  0  0
    4.4957   -9.2636   17.3041 C   0  0  0  0  0  0  0  0  0  0  0  0
   -1.8070   -5.6086   28.1920 O   0  0  0  0  0  0  0  0  0  0  0  0
   10.4296   -5.1799   28.3140 C   0  0  0  0  0  0  0  0  0  0  0  0
    6.6017   -5.9004   26.9187 C   0  0  0  0  0  0  0  0  0  0  0  0
    2.4761   -6.9940   26.4111 N   0  0  0  0  0  0  0  0  0  0  0  0
    9.1353   -5.4053   27.8239 C   0  0  0  0  0  0  0  0  0  0  0  0
    0.9922   -9.3232   16.5995 O   0  0  0  0  0  0  0  0  0  0  0  0
    1.5232   -7.6869   27.1182 C   0  0  0  0  0  0  0  0  0  0  0  0
    8.6878   -6.6715   27.7262 N   0  0  0  0  0  0  0  0  0  0  0  0
    6.9911   -8.2423   27.1808 C   0  0  0  0  0  0  0  0  0  0  0  0
    3.8436   -7.2758   16.0578 C   0  0  0  0  0  0  0  0  0  0  0  0
    3.1882   -9.7190   17.2566 C   0  0  0  0  0  0  0  0  0  0  0  0
    5.3488   -6.1737   26.5092 C   0  0  0  0  0  0  0  0  0  0  0  0
    7.4567   -6.9464   27.2858 C   0  0  0  0  0  0  0  0  0  0  0  0
    0.1921   -5.7592   27.1123 C   0  0  0  0  0  0  0  0  0  0  0  0
    3.5517   -7.7407   25.9711 C   0  0  0  0  0  0  0  0  0  0  0  0
  1  4  4  0
  1 22  4  0
  2 20  4  0
  2 27  4  0
  3 12  4  0
  3 23  4  0
  4 25  4  0
  4 28  1  0
  5  8  4  0
  5 17  4  0
  6  7  4  0
  6 16  4  0
  7 18  4  0
  8 27  4  0
  9 13  4  0
  9 23  4  0
 10 11  1  0
 11 14  2  0
 11 27  1  0
 12 19  1  0
 12 24  4  0
 13 24  4  0
 15 18  1  0
 16 25  4  0
 16 26  4  0
 17 20  4  0
 17 28  1  0
 18 21  4  0
 21 26  4  0
 22 26  4  0
M  END
$$$$

 Created by Python create_sdf_string function

 28 30  0  0  0  0  0  0  0  0999 V2000
    5.7174   -8.4529   26.7190 C   0  0  0  0  0  0  0  0  0  0  0  0
    0.3974   -7.0711   27.5149 C   0  0  0  0  0  0  0  0  0  0  0  0
    2.5338   -7.6891   16.0102 C   0  0  0  0  0  0  0  0  0  0  0  0
    4.8690   -7.4380   26.4151 C   0  0  0  0  0  0  0  0  0  0  0  0
    2.3021   -5.6726   26.0378 C   0  0  0  0  0  0  0  0  0  0  0  0
    7.0880   -4.6163   27.0010 C   0  0  0  0  0  0  0  0  0  0  0  0
    8.3117   -4.3698   27.4436 C   0  0  0  0  0  0  0  0  0  0  0  0
    1.1339   -5.0515   26.3541 C   0  0  0  0  0  0  0  0  0  0  0  0
    4.8080   -8.0362   16.7101 C   0  0  0  0  0  0  0  0  0  0  0  0
   -1.2173   -3.9294   26.9717 O   0  0  0  0  0  0  0  0  0  0  0  0
   -1.0025   -5.0942   27.4586 C   0  0  0  0  0  0  0  0  0  0  0  0
    2.2474   -8.9123   16.6273 C   0  0  0  0  0  0  0  0  0  0  0  0
    4.4957   -9.2636   17.3041 C   0  0  0  0  0  0  0  0  0  0  0  0
   -1.8070   -5.6086   28.1920 O   0  0  0  0  0  0  0  0  0  0  0  0
   10.4296   -5.1799   28.3140 C   0  0  0  0  0  0  0  0  0  0  0  0
    6.6017   -5.9004   26.9187 C   0  0  0  0  0  0  0  0  0  0  0  0
    2.4761   -6.9940   26.4111 N   0  0  0  0  0  0  0  0  0  0  0  0
    9.1353   -5.4053   27.8239 C   0  0  0  0  0  0  0  0  0  0  0  0
    0.9922   -9.3232   16.5995 O   0  0  0  0  0  0  0  0  0  0  0  0
    1.5232   -7.6869   27.1182 C   0  0  0  0  0  0  0  0  0  0  0  0
    8.6878   -6.6715   27.7262 N   0  0  0  0  0  0  0  0  0  0  0  0
    6.9911   -8.2423   27.1808 C   0  0  0  0  0  0  0  0  0  0  0  0
    3.8436   -7.2758   16.0578 C   0  0  0  0  0  0  0  0  0  0  0  0
    3.1882   -9.7190   17.2566 C   0  0  0  0  0  0  0  0  0  0  0  0
    5.3488   -6.1737   26.5092 C   0  0  0  0  0  0  0  0  0  0  0  0
    7.4567   -6.9464   27.2858 C   0  0  0  0  0  0  0  0  0  0  0  0
    0.1921   -5.7592   27.1123 C   0  0  0  0  0  0  0  0  0  0  0  0
    3.5517   -7.7407   25.9711 C   0  0  0  0  0  0  0  0  0  0  0  0
  1  4  4  0
  1 22  4  0
  2 20  4  0
  2 27  4  0
  3 12  4  0
  3 23  4  0
  4 25  4  0
  4 28  1  0
  5  8  4  0
  5 17  4  0
  6  7  4  0
  6 16  4  0
  7 18  4  0
  8 27  4  0
  9 13  4  0
  9 23  4  0
 10 11  1  0
 11 14  2  0
 11 27  1  0
 12 19  1  0
 12 24  4  0
 13 24  4  0
 15 18  1  0
 16 25  4  0
 16 26  4  0
 17 20  4  0
 17 28  1  0
 18 21  4  0
 21 26  4  0
 22 26  4  0
M  END
$$$$

 Created by Python create_sdf_string function

 28 30  0  0  0  0  0  0  0  0999 V2000
    5.7174   -8.4529   26.7190 C   0  0  0  0  0  0  0  0  0  0  0  0
    0.3974   -7.0711   27.5149 C   0  0  0  0  0  0  0  0  0  0  0  0
    2.5338   -7.6891   16.0102 C   0  0  0  0  0  0  0  0  0  0  0  0
    4.8690   -7.4380   26.4151 C   0  0  0  0  0  0  0  0  0  0  0  0
    2.3021   -5.6726   26.0378 C   0  0  0  0  0  0  0  0  0  0  0  0
    7.0880   -4.6163   27.0010 C   0  0  0  0  0  0  0  0  0  0  0  0
    8.3117   -4.3698   27.4436 C   0  0  0  0  0  0  0  0  0  0  0  0
    1.1339   -5.0515   26.3541 C   0  0  0  0  0  0  0  0  0  0  0  0
    4.8080   -8.0362   16.7101 C   0  0  0  0  0  0  0  0  0  0  0  0
   -1.2173   -3.9294   26.9717 O   0  0  0  0  0  0  0  0  0  0  0  0
   -1.0025   -5.0942   27.4586 C   0  0  0  0  0  0  0  0  0  0  0  0
    2.2474   -8.9123   16.6273 C   0  0  0  0  0  0  0  0  0  0  0  0
    4.4957   -9.2636   17.3041 C   0  0  0  0  0  0  0  0  0  0  0  0
   -1.8070   -5.6086   28.1920 O   0  0  0  0  0  0  0  0  0  0  0  0
   10.4296   -5.1799   28.3140 C   0  0  0  0  0  0  0  0  0  0  0  0
    6.6017   -5.9004   26.9187 C   0  0  0  0  0  0  0  0  0  0  0  0
    2.4761   -6.9940   26.4111 N   0  0  0  0  0  0  0  0  0  0  0  0
    9.1353   -5.4053   27.8239 C   0  0  0  0  0  0  0  0  0  0  0  0
    0.9922   -9.3232   16.5995 O   0  0  0  0  0  0  0  0  0  0  0  0
    1.5232   -7.6869   27.1182 C   0  0  0  0  0  0  0  0  0  0  0  0
    8.6878   -6.6715   27.7262 N   0  0  0  0  0  0  0  0  0  0  0  0
    6.9911   -8.2423   27.1808 C   0  0  0  0  0  0  0  0  0  0  0  0
    3.8436   -7.2758   16.0578 C   0  0  0  0  0  0  0  0  0  0  0  0
    3.1882   -9.7190   17.2566 C   0  0  0  0  0  0  0  0  0  0  0  0
    5.3488   -6.1737   26.5092 C   0  0  0  0  0  0  0  0  0  0  0  0
    7.4567   -6.9464   27.2858 C   0  0  0  0  0  0  0  0  0  0  0  0
    0.1921   -5.7592   27.1123 C   0  0  0  0  0  0  0  0  0  0  0  0
    3.5517   -7.7407   25.9711 C   0  0  0  0  0  0  0  0  0  0  0  0
  1  4  4  0
  1 22  4  0
  2 20  4  0
  2 27  4  0
  3 12  4  0
  3 23  4  0
  4 25  4  0
  4 28  1  0
  5  8  4  0
  5 17  4  0
  6  7  4  0
  6 16  4  0
  7 18  4  0
  8 27  4  0
  9 13  4  0
  9 23  4  0
 10 11  1  0
 11 14  2  0
 11 27  1  0
 12 19  1  0
 12 24  4  0
 13 24  4  0
 15 18  1  0
 16 25  4  0
 16 26  4  0
 17 20  4  0
 17 28  1  0
 18 21  4  0
 21 26  4  0
 22 26  4  0
M  END
$$$$

 Created by Python create_sdf_string function

 28 30  0  0  0  0  0  0  0  0999 V2000
    5.7174   -8.4529   26.7190 C   0  0  0  0  0  0  0  0  0  0  0  0
    0.3974   -7.0711   27.5149 C   0  0  0  0  0  0  0  0  0  0  0  0
    2.5338   -7.6891   16.0102 C   0  0  0  0  0  0  0  0  0  0  0  0
    4.8690   -7.4380   26.4151 C   0  0  0  0  0  0  0  0  0  0  0  0
    2.3021   -5.6726   26.0378 C   0  0  0  0  0  0  0  0  0  0  0  0
    7.0880   -4.6163   27.0010 C   0  0  0  0  0  0  0  0  0  0  0  0
    8.3117   -4.3698   27.4436 C   0  0  0  0  0  0  0  0  0  0  0  0
    1.1339   -5.0515   26.3541 C   0  0  0  0  0  0  0  0  0  0  0  0
    4.8080   -8.0362   16.7101 C   0  0  0  0  0  0  0  0  0  0  0  0
   -1.2173   -3.9294   26.9717 O   0  0  0  0  0  0  0  0  0  0  0  0
   -1.0025   -5.0942   27.4586 C   0  0  0  0  0  0  0  0  0  0  0  0
    2.2474   -8.9123   16.6273 C   0  0  0  0  0  0  0  0  0  0  0  0
    4.4957   -9.2636   17.3041 C   0  0  0  0  0  0  0  0  0  0  0  0
   -1.8070   -5.6086   28.1920 O   0  0  0  0  0  0  0  0  0  0  0  0
   10.4296   -5.1799   28.3140 C   0  0  0  0  0  0  0  0  0  0  0  0
    6.6017   -5.9004   26.9187 C   0  0  0  0  0  0  0  0  0  0  0  0
    2.4761   -6.9940   26.4111 N   0  0  0  0  0  0  0  0  0  0  0  0
    9.1353   -5.4053   27.8239 C   0  0  0  0  0  0  0  0  0  0  0  0
    0.9922   -9.3232   16.5995 O   0  0  0  0  0  0  0  0  0  0  0  0
    1.5232   -7.6869   27.1182 C   0  0  0  0  0  0  0  0  0  0  0  0
    8.6878   -6.6715   27.7262 N   0  0  0  0  0  0  0  0  0  0  0  0
    6.9911   -8.2423   27.1808 C   0  0  0  0  0  0  0  0  0  0  0  0
    3.8436   -7.2758   16.0578 C   0  0  0  0  0  0  0  0  0  0  0  0
    3.1882   -9.7190   17.2566 C   0  0  0  0  0  0  0  0  0  0  0  0
    5.3488   -6.1737   26.5092 C   0  0  0  0  0  0  0  0  0  0  0  0
    7.4567   -6.9464   27.2858 C   0  0  0  0  0  0  0  0  0  0  0  0
    0.1921   -5.7592   27.1123 C   0  0  0  0  0  0  0  0  0  0  0  0
    3.5517   -7.7407   25.9711 C   0  0  0  0  0  0  0  0  0  0  0  0
  1  4  4  0
  1 22  4  0
  2 20  4  0
  2 27  4  0
  3 12  4  0
  3 23  4  0
  4 25  4  0
  4 28  1  0
  5  8  4  0
  5 17  4  0
  6  7  4  0
  6 16  4  0
  7 18  4  0
  8 27  4  0
  9 13  4  0
  9 23  4  0
 10 11  1  0
 11 14  2  0
 11 27  1  0
 12 19  1  0
 12 24  4  0
 13 24  4  0
 15 18  1  0
 16 25  4  0
 16 26  4  0
 17 20  4  0
 17 28  1  0
 18 21  4  0
 21 26  4  0
 22 26  4  0
M  END
$$$$

 Created by Python create_sdf_string function

 28 30  0  0  0  0  0  0  0  0999 V2000
    5.7174   -8.4529   26.7190 C   0  0  0  0  0  0  0  0  0  0  0  0
    0.3974   -7.0711   27.5149 C   0  0  0  0  0  0  0  0  0  0  0  0
    2.5338   -7.6891   16.0102 C   0  0  0  0  0  0  0  0  0  0  0  0
    4.8690   -7.4380   26.4151 C   0  0  0  0  0  0  0  0  0  0  0  0
    2.3021   -5.6726   26.0378 C   0  0  0  0  0  0  0  0  0  0  0  0
    7.0880   -4.6163   27.0010 C   0  0  0  0  0  0  0  0  0  0  0  0
    8.3117   -4.3698   27.4436 C   0  0  0  0  0  0  0  0  0  0  0  0
    1.1339   -5.0515   26.3541 C   0  0  0  0  0  0  0  0  0  0  0  0
    4.8080   -8.0362   16.7101 C   0  0  0  0  0  0  0  0  0  0  0  0
   -1.2173   -3.9294   26.9717 O   0  0  0  0  0  0  0  0  0  0  0  0
   -1.0025   -5.0942   27.4586 C   0  0  0  0  0  0  0  0  0  0  0  0
    2.2474   -8.9123   16.6273 C   0  0  0  0  0  0  0  0  0  0  0  0
    4.4957   -9.2636   17.3041 C   0  0  0  0  0  0  0  0  0  0  0  0
   -1.8070   -5.6086   28.1920 O   0  0  0  0  0  0  0  0  0  0  0  0
   10.4296   -5.1799   28.3140 C   0  0  0  0  0  0  0  0  0  0  0  0
    6.6017   -5.9004   26.9187 C   0  0  0  0  0  0  0  0  0  0  0  0
    2.4761   -6.9940   26.4111 N   0  0  0  0  0  0  0  0  0  0  0  0
    9.1353   -5.4053   27.8239 C   0  0  0  0  0  0  0  0  0  0  0  0
    0.9922   -9.3232   16.5995 O   0  0  0  0  0  0  0  0  0  0  0  0
    1.5232   -7.6869   27.1182 C   0  0  0  0  0  0  0  0  0  0  0  0
    8.6878   -6.6715   27.7262 N   0  0  0  0  0  0  0  0  0  0  0  0
    6.9911   -8.2423   27.1808 C   0  0  0  0  0  0  0  0  0  0  0  0
    3.8436   -7.2758   16.0578 C   0  0  0  0  0  0  0  0  0  0  0  0
    3.1882   -9.7190   17.2566 C   0  0  0  0  0  0  0  0  0  0  0  0
    5.3488   -6.1737   26.5092 C   0  0  0  0  0  0  0  0  0  0  0  0
    7.4567   -6.9464   27.2858 C   0  0  0  0  0  0  0  0  0  0  0  0
    0.1921   -5.7592   27.1123 C   0  0  0  0  0  0  0  0  0  0  0  0
    3.5517   -7.7407   25.9711 C   0  0  0  0  0  0  0  0  0  0  0  0
  1  4  4  0
  1 22  4  0
  2 20  4  0
  2 27  4  0
  3 12  4  0
  3 23  4  0
  4 25  4  0
  4 28  1  0
  5  8  4  0
  5 17  4  0
  6  7  4  0
  6 16  4  0
  7 18  4  0
  8 27  4  0
  9 13  4  0
  9 23  4  0
 10 11  1  0
 11 14  2  0
 11 27  1  0
 12 19  1  0
 12 24  4  0
 13 24  4  0
 15 18  1  0
 16 25  4  0
 16 26  4  0
 17 20  4  0
 17 28  1  0
 18 21  4  0
 21 26  4  0
 22 26  4  0
M  END
$$$$

 Created by Python create_sdf_string function

 28 30  0  0  0  0  0  0  0  0999 V2000
    5.7174   -8.4529   26.7190 C   0  0  0  0  0  0  0  0  0  0  0  0
    0.3974   -7.0711   27.5149 C   0  0  0  0  0  0  0  0  0  0  0  0
    2.5338   -7.6891   16.0102 C   0  0  0  0  0  0  0  0  0  0  0  0
    4.8690   -7.4380   26.4151 C   0  0  0  0  0  0  0  0  0  0  0  0
    2.3021   -5.6726   26.0378 C   0  0  0  0  0  0  0  0  0  0  0  0
    7.0880   -4.6163   27.0010 C   0  0  0  0  0  0  0  0  0  0  0  0
    8.3117   -4.3698   27.4436 C   0  0  0  0  0  0  0  0  0  0  0  0
    1.1339   -5.0515   26.3541 C   0  0  0  0  0  0  0  0  0  0  0  0
    4.8080   -8.0362   16.7101 C   0  0  0  0  0  0  0  0  0  0  0  0
   -1.2173   -3.9294   26.9717 O   0  0  0  0  0  0  0  0  0  0  0  0
   -1.0025   -5.0942   27.4586 C   0  0  0  0  0  0  0  0  0  0  0  0
    2.2474   -8.9123   16.6273 C   0  0  0  0  0  0  0  0  0  0  0  0
    4.4957   -9.2636   17.3041 C   0  0  0  0  0  0  0  0  0  0  0  0
   -1.8070   -5.6086   28.1920 O   0  0  0  0  0  0  0  0  0  0  0  0
   10.4296   -5.1799   28.3140 C   0  0  0  0  0  0  0  0  0  0  0  0
    6.6017   -5.9004   26.9187 C   0  0  0  0  0  0  0  0  0  0  0  0
    2.4761   -6.9940   26.4111 N   0  0  0  0  0  0  0  0  0  0  0  0
    9.1353   -5.4053   27.8239 C   0  0  0  0  0  0  0  0  0  0  0  0
    0.9922   -9.3232   16.5995 O   0  0  0  0  0  0  0  0  0  0  0  0
    1.5232   -7.6869   27.1182 C   0  0  0  0  0  0  0  0  0  0  0  0
    8.6878   -6.6715   27.7262 N   0  0  0  0  0  0  0  0  0  0  0  0
    6.9911   -8.2423   27.1808 C   0  0  0  0  0  0  0  0  0  0  0  0
    3.8436   -7.2758   16.0578 C   0  0  0  0  0  0  0  0  0  0  0  0
    3.1882   -9.7190   17.2566 C   0  0  0  0  0  0  0  0  0  0  0  0
    5.3488   -6.1737   26.5092 C   0  0  0  0  0  0  0  0  0  0  0  0
    7.4567   -6.9464   27.2858 C   0  0  0  0  0  0  0  0  0  0  0  0
    0.1921   -5.7592   27.1123 C   0  0  0  0  0  0  0  0  0  0  0  0
    3.5517   -7.7407   25.9711 C   0  0  0  0  0  0  0  0  0  0  0  0
  1  4  4  0
  1 22  4  0
  2 20  4  0
  2 27  4  0
  3 12  4  0
  3 23  4  0
  4 25  4  0
  4 28  1  0
  5  8  4  0
  5 17  4  0
  6  7  4  0
  6 16  4  0
  7 18  4  0
  8 27  4  0
  9 13  4  0
  9 23  4  0
 10 11  1  0
 11 14  2  0
 11 27  1  0
 12 19  1  0
 12 24  4  0
 13 24  4  0
 15 18  1  0
 16 25  4  0
 16 26  4  0
 17 20  4  0
 17 28  1  0
 18 21  4  0
 21 26  4  0
 22 26  4  0
M  END
$$$$

 Created by Python create_sdf_string function

 28 30  0  0  0  0  0  0  0  0999 V2000
    5.7174   -8.4529   26.7190 C   0  0  0  0  0  0  0  0  0  0  0  0
    0.3974   -7.0711   27.5149 C   0  0  0  0  0  0  0  0  0  0  0  0
    2.5338   -7.6891   16.0102 C   0  0  0  0  0  0  0  0  0  0  0  0
    4.8690   -7.4380   26.4151 C   0  0  0  0  0  0  0  0  0  0  0  0
    2.3021   -5.6726   26.0378 C   0  0  0  0  0  0  0  0  0  0  0  0
    7.0880   -4.6163   27.0010 C   0  0  0  0  0  0  0  0  0  0  0  0
    8.3117   -4.3698   27.4436 C   0  0  0  0  0  0  0  0  0  0  0  0
    1.1339   -5.0515   26.3541 C   0  0  0  0  0  0  0  0  0  0  0  0
    4.8080   -8.0362   16.7101 C   0  0  0  0  0  0  0  0  0  0  0  0
   -1.2173   -3.9294   26.9717 O   0  0  0  0  0  0  0  0  0  0  0  0
   -1.0025   -5.0942   27.4586 C   0  0  0  0  0  0  0  0  0  0  0  0
    2.2474   -8.9123   16.6273 C   0  0  0  0  0  0  0  0  0  0  0  0
    4.4957   -9.2636   17.3041 C   0  0  0  0  0  0  0  0  0  0  0  0
   -1.8070   -5.6086   28.1920 O   0  0  0  0  0  0  0  0  0  0  0  0
   10.4296   -5.1799   28.3140 C   0  0  0  0  0  0  0  0  0  0  0  0
    6.6017   -5.9004   26.9187 C   0  0  0  0  0  0  0  0  0  0  0  0
    2.4761   -6.9940   26.4111 N   0  0  0  0  0  0  0  0  0  0  0  0
    9.1353   -5.4053   27.8239 C   0  0  0  0  0  0  0  0  0  0  0  0
    0.9922   -9.3232   16.5995 O   0  0  0  0  0  0  0  0  0  0  0  0
    1.5232   -7.6869   27.1182 C   0  0  0  0  0  0  0  0  0  0  0  0
    8.6878   -6.6715   27.7262 N   0  0  0  0  0  0  0  0  0  0  0  0
    6.9911   -8.2423   27.1808 C   0  0  0  0  0  0  0  0  0  0  0  0
    3.8436   -7.2758   16.0578 C   0  0  0  0  0  0  0  0  0  0  0  0
    3.1882   -9.7190   17.2566 C   0  0  0  0  0  0  0  0  0  0  0  0
    5.3488   -6.1737   26.5092 C   0  0  0  0  0  0  0  0  0  0  0  0
    7.4567   -6.9464   27.2858 C   0  0  0  0  0  0  0  0  0  0  0  0
    0.1921   -5.7592   27.1123 C   0  0  0  0  0  0  0  0  0  0  0  0
    3.5517   -7.7407   25.9711 C   0  0  0  0  0  0  0  0  0  0  0  0
  1  4  4  0
  1 22  4  0
  2 20  4  0
  2 27  4  0
  3 12  4  0
  3 23  4  0
  4 25  4  0
  4 28  1  0
  5  8  4  0
  5 17  4  0
  6  7  4  0
  6 16  4  0
  7 18  4  0
  8 27  4  0
  9 13  4  0
  9 23  4  0
 10 11  1  0
 11 14  2  0
 11 27  1  0
 12 19  1  0
 12 24  4  0
 13 24  4  0
 15 18  1  0
 16 25  4  0
 16 26  4  0
 17 20  4  0
 17 28  1  0
 18 21  4  0
 21 26  4  0
 22 26  4  0
M  END
$$$$

 Created by Python create_sdf_string function

 28 30  0  0  0  0  0  0  0  0999 V2000
    5.7174   -8.4529   26.7190 C   0  0  0  0  0  0  0  0  0  0  0  0
    0.3974   -7.0711   27.5149 C   0  0  0  0  0  0  0  0  0  0  0  0
    2.5338   -7.6891   16.0102 C   0  0  0  0  0  0  0  0  0  0  0  0
    4.8690   -7.4380   26.4151 C   0  0  0  0  0  0  0  0  0  0  0  0
    2.3021   -5.6726   26.0378 C   0  0  0  0  0  0  0  0  0  0  0  0
    7.0880   -4.6163   27.0010 C   0  0  0  0  0  0  0  0  0  0  0  0
    8.3117   -4.3698   27.4436 C   0  0  0  0  0  0  0  0  0  0  0  0
    1.1339   -5.0515   26.3541 C   0  0  0  0  0  0  0  0  0  0  0  0
    4.8080   -8.0362   16.7101 C   0  0  0  0  0  0  0  0  0  0  0  0
   -1.2173   -3.9294   26.9717 O   0  0  0  0  0  0  0  0  0  0  0  0
   -1.0025   -5.0942   27.4586 C   0  0  0  0  0  0  0  0  0  0  0  0
    2.2474   -8.9123   16.6273 C   0  0  0  0  0  0  0  0  0  0  0  0
    4.4957   -9.2636   17.3041 C   0  0  0  0  0  0  0  0  0  0  0  0
   -1.8070   -5.6086   28.1920 O   0  0  0  0  0  0  0  0  0  0  0  0
   10.4296   -5.1799   28.3140 C   0  0  0  0  0  0  0  0  0  0  0  0
    6.6017   -5.9004   26.9187 C   0  0  0  0  0  0  0  0  0  0  0  0
    2.4761   -6.9940   26.4111 N   0  0  0  0  0  0  0  0  0  0  0  0
    9.1353   -5.4053   27.8239 C   0  0  0  0  0  0  0  0  0  0  0  0
    0.9922   -9.3232   16.5995 O   0  0  0  0  0  0  0  0  0  0  0  0
    1.5232   -7.6869   27.1182 C   0  0  0  0  0  0  0  0  0  0  0  0
    8.6878   -6.6715   27.7262 N   0  0  0  0  0  0  0  0  0  0  0  0
    6.9911   -8.2423   27.1808 C   0  0  0  0  0  0  0  0  0  0  0  0
    3.8436   -7.2758   16.0578 C   0  0  0  0  0  0  0  0  0  0  0  0
    3.1882   -9.7190   17.2566 C   0  0  0  0  0  0  0  0  0  0  0  0
    5.3488   -6.1737   26.5092 C   0  0  0  0  0  0  0  0  0  0  0  0
    7.4567   -6.9464   27.2858 C   0  0  0  0  0  0  0  0  0  0  0  0
    0.1921   -5.7592   27.1123 C   0  0  0  0  0  0  0  0  0  0  0  0
    3.5517   -7.7407   25.9711 C   0  0  0  0  0  0  0  0  0  0  0  0
  1  4  4  0
  1 22  4  0
  2 20  4  0
  2 27  4  0
  3 12  4  0
  3 23  4  0
  4 25  4  0
  4 28  1  0
  5  8  4  0
  5 17  4  0
  6  7  4  0
  6 16  4  0
  7 18  4  0
  8 27  4  0
  9 13  4  0
  9 23  4  0
 10 11  1  0
 11 14  2  0
 11 27  1  0
 12 19  1  0
 12 24  4  0
 13 24  4  0
 15 18  1  0
 16 25  4  0
 16 26  4  0
 17 20  4  0
 17 28  1  0
 18 21  4  0
 21 26  4  0
 22 26  4  0
M  END
$$$$

 Created by Python create_sdf_string function

 28 30  0  0  0  0  0  0  0  0999 V2000
    5.7174   -8.4529   26.7190 C   0  0  0  0  0  0  0  0  0  0  0  0
    0.3974   -7.0711   27.5149 C   0  0  0  0  0  0  0  0  0  0  0  0
    2.5338   -7.6891   16.0102 C   0  0  0  0  0  0  0  0  0  0  0  0
    4.8690   -7.4380   26.4151 C   0  0  0  0  0  0  0  0  0  0  0  0
    2.3021   -5.6726   26.0378 C   0  0  0  0  0  0  0  0  0  0  0  0
    7.0880   -4.6163   27.0010 C   0  0  0  0  0  0  0  0  0  0  0  0
    8.3117   -4.3698   27.4436 C   0  0  0  0  0  0  0  0  0  0  0  0
    1.1339   -5.0515   26.3541 C   0  0  0  0  0  0  0  0  0  0  0  0
    4.8080   -8.0362   16.7101 C   0  0  0  0  0  0  0  0  0  0  0  0
   -1.2173   -3.9294   26.9717 O   0  0  0  0  0  0  0  0  0  0  0  0
   -1.0025   -5.0942   27.4586 C   0  0  0  0  0  0  0  0  0  0  0  0
    2.2474   -8.9123   16.6273 C   0  0  0  0  0  0  0  0  0  0  0  0
    4.4957   -9.2636   17.3041 C   0  0  0  0  0  0  0  0  0  0  0  0
   -1.8070   -5.6086   28.1920 O   0  0  0  0  0  0  0  0  0  0  0  0
   10.4296   -5.1799   28.3140 C   0  0  0  0  0  0  0  0  0  0  0  0
    6.6017   -5.9004   26.9187 C   0  0  0  0  0  0  0  0  0  0  0  0
    2.4761   -6.9940   26.4111 N   0  0  0  0  0  0  0  0  0  0  0  0
    9.1353   -5.4053   27.8239 C   0  0  0  0  0  0  0  0  0  0  0  0
    0.9922   -9.3232   16.5995 O   0  0  0  0  0  0  0  0  0  0  0  0
    1.5232   -7.6869   27.1182 C   0  0  0  0  0  0  0  0  0  0  0  0
    8.6878   -6.6715   27.7262 N   0  0  0  0  0  0  0  0  0  0  0  0
    6.9911   -8.2423   27.1808 C   0  0  0  0  0  0  0  0  0  0  0  0
    3.8436   -7.2758   16.0578 C   0  0  0  0  0  0  0  0  0  0  0  0
    3.1882   -9.7190   17.2566 C   0  0  0  0  0  0  0  0  0  0  0  0
    5.3488   -6.1737   26.5092 C   0  0  0  0  0  0  0  0  0  0  0  0
    7.4567   -6.9464   27.2858 C   0  0  0  0  0  0  0  0  0  0  0  0
    0.1921   -5.7592   27.1123 C   0  0  0  0  0  0  0  0  0  0  0  0
    3.5517   -7.7407   25.9711 C   0  0  0  0  0  0  0  0  0  0  0  0
  1  4  4  0
  1 22  4  0
  2 20  4  0
  2 27  4  0
  3 12  4  0
  3 23  4  0
  4 25  4  0
  4 28  1  0
  5  8  4  0
  5 17  4  0
  6  7  4  0
  6 16  4  0
  7 18  4  0
  8 27  4  0
  9 13  4  0
  9 23  4  0
 10 11  1  0
 11 14  2  0
 11 27  1  0
 12 19  1  0
 12 24  4  0
 13 24  4  0
 15 18  1  0
 16 25  4  0
 16 26  4  0
 17 20  4  0
 17 28  1  0
 18 21  4  0
 21 26  4  0
 22 26  4  0
M  END
$$$$

 Created by Python create_sdf_string function

 28 30  0  0  0  0  0  0  0  0999 V2000
    5.7174   -8.4529   26.7190 C   0  0  0  0  0  0  0  0  0  0  0  0
    0.3974   -7.0711   27.5149 C   0  0  0  0  0  0  0  0  0  0  0  0
    2.5338   -7.6891   16.0102 C   0  0  0  0  0  0  0  0  0  0  0  0
    4.8690   -7.4380   26.4151 C   0  0  0  0  0  0  0  0  0  0  0  0
    2.3021   -5.6726   26.0378 C   0  0  0  0  0  0  0  0  0  0  0  0
    7.0880   -4.6163   27.0010 C   0  0  0  0  0  0  0  0  0  0  0  0
    8.3117   -4.3698   27.4436 C   0  0  0  0  0  0  0  0  0  0  0  0
    1.1339   -5.0515   26.3541 C   0  0  0  0  0  0  0  0  0  0  0  0
    4.8080   -8.0362   16.7101 C   0  0  0  0  0  0  0  0  0  0  0  0
   -1.2173   -3.9294   26.9717 O   0  0  0  0  0  0  0  0  0  0  0  0
   -1.0025   -5.0942   27.4586 C   0  0  0  0  0  0  0  0  0  0  0  0
    2.2474   -8.9123   16.6273 C   0  0  0  0  0  0  0  0  0  0  0  0
    4.4957   -9.2636   17.3041 C   0  0  0  0  0  0  0  0  0  0  0  0
   -1.8070   -5.6086   28.1920 O   0  0  0  0  0  0  0  0  0  0  0  0
   10.4296   -5.1799   28.3140 C   0  0  0  0  0  0  0  0  0  0  0  0
    6.6017   -5.9004   26.9187 C   0  0  0  0  0  0  0  0  0  0  0  0
    2.4761   -6.9940   26.4111 N   0  0  0  0  0  0  0  0  0  0  0  0
    9.1353   -5.4053   27.8239 C   0  0  0  0  0  0  0  0  0  0  0  0
    0.9922   -9.3232   16.5995 O   0  0  0  0  0  0  0  0  0  0  0  0
    1.5232   -7.6869   27.1182 C   0  0  0  0  0  0  0  0  0  0  0  0
    8.6878   -6.6715   27.7262 N   0  0  0  0  0  0  0  0  0  0  0  0
    6.9911   -8.2423   27.1808 C   0  0  0  0  0  0  0  0  0  0  0  0
    3.8436   -7.2758   16.0578 C   0  0  0  0  0  0  0  0  0  0  0  0
    3.1882   -9.7190   17.2566 C   0  0  0  0  0  0  0  0  0  0  0  0
    5.3488   -6.1737   26.5092 C   0  0  0  0  0  0  0  0  0  0  0  0
    7.4567   -6.9464   27.2858 C   0  0  0  0  0  0  0  0  0  0  0  0
    0.1921   -5.7592   27.1123 C   0  0  0  0  0  0  0  0  0  0  0  0
    3.5517   -7.7407   25.9711 C   0  0  0  0  0  0  0  0  0  0  0  0
  1  4  4  0
  1 22  4  0
  2 20  4  0
  2 27  4  0
  3 12  4  0
  3 23  4  0
  4 25  4  0
  4 28  1  0
  5  8  4  0
  5 17  4  0
  6  7  4  0
  6 16  4  0
  7 18  4  0
  8 27  4  0
  9 13  4  0
  9 23  4  0
 10 11  1  0
 11 14  2  0
 11 27  1  0
 12 19  1  0
 12 24  4  0
 13 24  4  0
 15 18  1  0
 16 25  4  0
 16 26  4  0
 17 20  4  0
 17 28  1  0
 18 21  4  0
 21 26  4  0
 22 26  4  0
M  END
$$$$

 Created by Python create_sdf_string function

 28 30  0  0  0  0  0  0  0  0999 V2000
    5.7174   -8.4529   26.7190 C   0  0  0  0  0  0  0  0  0  0  0  0
    0.3974   -7.0711   27.5149 C   0  0  0  0  0  0  0  0  0  0  0  0
    2.5338   -7.6891   16.0102 C   0  0  0  0  0  0  0  0  0  0  0  0
    4.8690   -7.4380   26.4151 C   0  0  0  0  0  0  0  0  0  0  0  0
    2.3021   -5.6726   26.0378 C   0  0  0  0  0  0  0  0  0  0  0  0
    7.0880   -4.6163   27.0010 C   0  0  0  0  0  0  0  0  0  0  0  0
    8.3117   -4.3698   27.4436 C   0  0  0  0  0  0  0  0  0  0  0  0
    1.1339   -5.0515   26.3541 C   0  0  0  0  0  0  0  0  0  0  0  0
    4.8080   -8.0362   16.7101 C   0  0  0  0  0  0  0  0  0  0  0  0
   -1.2173   -3.9294   26.9717 O   0  0  0  0  0  0  0  0  0  0  0  0
   -1.0025   -5.0942   27.4586 C   0  0  0  0  0  0  0  0  0  0  0  0
    2.2474   -8.9123   16.6273 C   0  0  0  0  0  0  0  0  0  0  0  0
    4.4957   -9.2636   17.3041 C   0  0  0  0  0  0  0  0  0  0  0  0
   -1.8070   -5.6086   28.1920 O   0  0  0  0  0  0  0  0  0  0  0  0
   10.4296   -5.1799   28.3140 C   0  0  0  0  0  0  0  0  0  0  0  0
    6.6017   -5.9004   26.9187 C   0  0  0  0  0  0  0  0  0  0  0  0
    2.4761   -6.9940   26.4111 N   0  0  0  0  0  0  0  0  0  0  0  0
    9.1353   -5.4053   27.8239 C   0  0  0  0  0  0  0  0  0  0  0  0
    0.9922   -9.3232   16.5995 O   0  0  0  0  0  0  0  0  0  0  0  0
    1.5232   -7.6869   27.1182 C   0  0  0  0  0  0  0  0  0  0  0  0
    8.6878   -6.6715   27.7262 N   0  0  0  0  0  0  0  0  0  0  0  0
    6.9911   -8.2423   27.1808 C   0  0  0  0  0  0  0  0  0  0  0  0
    3.8436   -7.2758   16.0578 C   0  0  0  0  0  0  0  0  0  0  0  0
    3.1882   -9.7190   17.2566 C   0  0  0  0  0  0  0  0  0  0  0  0
    5.3488   -6.1737   26.5092 C   0  0  0  0  0  0  0  0  0  0  0  0
    7.4567   -6.9464   27.2858 C   0  0  0  0  0  0  0  0  0  0  0  0
    0.1921   -5.7592   27.1123 C   0  0  0  0  0  0  0  0  0  0  0  0
    3.5517   -7.7407   25.9711 C   0  0  0  0  0  0  0  0  0  0  0  0
  1  4  4  0
  1 22  4  0
  2 20  4  0
  2 27  4  0
  3 12  4  0
  3 23  4  0
  4 25  4  0
  4 28  1  0
  5  8  4  0
  5 17  4  0
  6  7  4  0
  6 16  4  0
  7 18  4  0
  8 27  4  0
  9 13  4  0
  9 23  4  0
 10 11  1  0
 11 14  2  0
 11 27  1  0
 12 19  1  0
 12 24  4  0
 13 24  4  0
 15 18  1  0
 16 25  4  0
 16 26  4  0
 17 20  4  0
 17 28  1  0
 18 21  4  0
 21 26  4  0
 22 26  4  0
M  END
$$$$

 Created by Python create_sdf_string function

 28 30  0  0  0  0  0  0  0  0999 V2000
    5.7174   -8.4529   26.7190 C   0  0  0  0  0  0  0  0  0  0  0  0
    0.3974   -7.0711   27.5149 C   0  0  0  0  0  0  0  0  0  0  0  0
    2.5338   -7.6891   16.0102 C   0  0  0  0  0  0  0  0  0  0  0  0
    4.8690   -7.4380   26.4151 C   0  0  0  0  0  0  0  0  0  0  0  0
    2.3021   -5.6726   26.0378 C   0  0  0  0  0  0  0  0  0  0  0  0
    7.0880   -4.6163   27.0010 C   0  0  0  0  0  0  0  0  0  0  0  0
    8.3117   -4.3698   27.4436 C   0  0  0  0  0  0  0  0  0  0  0  0
    1.1339   -5.0515   26.3541 C   0  0  0  0  0  0  0  0  0  0  0  0
    4.8080   -8.0362   16.7101 C   0  0  0  0  0  0  0  0  0  0  0  0
   -1.2173   -3.9294   26.9717 O   0  0  0  0  0  0  0  0  0  0  0  0
   -1.0025   -5.0942   27.4586 C   0  0  0  0  0  0  0  0  0  0  0  0
    2.2474   -8.9123   16.6273 C   0  0  0  0  0  0  0  0  0  0  0  0
    4.4957   -9.2636   17.3041 C   0  0  0  0  0  0  0  0  0  0  0  0
   -1.8070   -5.6086   28.1920 O   0  0  0  0  0  0  0  0  0  0  0  0
   10.4296   -5.1799   28.3140 C   0  0  0  0  0  0  0  0  0  0  0  0
    6.6017   -5.9004   26.9187 C   0  0  0  0  0  0  0  0  0  0  0  0
    2.4761   -6.9940   26.4111 N   0  0  0  0  0  0  0  0  0  0  0  0
    9.1353   -5.4053   27.8239 C   0  0  0  0  0  0  0  0  0  0  0  0
    0.9922   -9.3232   16.5995 O   0  0  0  0  0  0  0  0  0  0  0  0
    1.5232   -7.6869   27.1182 C   0  0  0  0  0  0  0  0  0  0  0  0
    8.6878   -6.6715   27.7262 N   0  0  0  0  0  0  0  0  0  0  0  0
    6.9911   -8.2423   27.1808 C   0  0  0  0  0  0  0  0  0  0  0  0
    3.8436   -7.2758   16.0578 C   0  0  0  0  0  0  0  0  0  0  0  0
    3.1882   -9.7190   17.2566 C   0  0  0  0  0  0  0  0  0  0  0  0
    5.3488   -6.1737   26.5092 C   0  0  0  0  0  0  0  0  0  0  0  0
    7.4567   -6.9464   27.2858 C   0  0  0  0  0  0  0  0  0  0  0  0
    0.1921   -5.7592   27.1123 C   0  0  0  0  0  0  0  0  0  0  0  0
    3.5517   -7.7407   25.9711 C   0  0  0  0  0  0  0  0  0  0  0  0
  1  4  4  0
  1 22  4  0
  2 20  4  0
  2 27  4  0
  3 12  4  0
  3 23  4  0
  4 25  4  0
  4 28  1  0
  5  8  4  0
  5 17  4  0
  6  7  4  0
  6 16  4  0
  7 18  4  0
  8 27  4  0
  9 13  4  0
  9 23  4  0
 10 11  1  0
 11 14  2  0
 11 27  1  0
 12 19  1  0
 12 24  4  0
 13 24  4  0
 15 18  1  0
 16 25  4  0
 16 26  4  0
 17 20  4  0
 17 28  1  0
 18 21  4  0
 21 26  4  0
 22 26  4  0
M  END
$$$$

 Created by Python create_sdf_string function

 28 30  0  0  0  0  0  0  0  0999 V2000
    5.7174   -8.4529   26.7190 C   0  0  0  0  0  0  0  0  0  0  0  0
    0.3974   -7.0711   27.5149 C   0  0  0  0  0  0  0  0  0  0  0  0
    2.5338   -7.6891   16.0102 C   0  0  0  0  0  0  0  0  0  0  0  0
    4.8690   -7.4380   26.4151 C   0  0  0  0  0  0  0  0  0  0  0  0
    2.3021   -5.6726   26.0378 C   0  0  0  0  0  0  0  0  0  0  0  0
    7.0880   -4.6163   27.0010 C   0  0  0  0  0  0  0  0  0  0  0  0
    8.3117   -4.3698   27.4436 C   0  0  0  0  0  0  0  0  0  0  0  0
    1.1339   -5.0515   26.3541 C   0  0  0  0  0  0  0  0  0  0  0  0
    4.8080   -8.0362   16.7101 C   0  0  0  0  0  0  0  0  0  0  0  0
   -1.2173   -3.9294   26.9717 O   0  0  0  0  0  0  0  0  0  0  0  0
   -1.0025   -5.0942   27.4586 C   0  0  0  0  0  0  0  0  0  0  0  0
    2.2474   -8.9123   16.6273 C   0  0  0  0  0  0  0  0  0  0  0  0
    4.4957   -9.2636   17.3041 C   0  0  0  0  0  0  0  0  0  0  0  0
   -1.8070   -5.6086   28.1920 O   0  0  0  0  0  0  0  0  0  0  0  0
   10.4296   -5.1799   28.3140 C   0  0  0  0  0  0  0  0  0  0  0  0
    6.6017   -5.9004   26.9187 C   0  0  0  0  0  0  0  0  0  0  0  0
    2.4761   -6.9940   26.4111 N   0  0  0  0  0  0  0  0  0  0  0  0
    9.1353   -5.4053   27.8239 C   0  0  0  0  0  0  0  0  0  0  0  0
    0.9922   -9.3232   16.5995 O   0  0  0  0  0  0  0  0  0  0  0  0
    1.5232   -7.6869   27.1182 C   0  0  0  0  0  0  0  0  0  0  0  0
    8.6878   -6.6715   27.7262 N   0  0  0  0  0  0  0  0  0  0  0  0
    6.9911   -8.2423   27.1808 C   0  0  0  0  0  0  0  0  0  0  0  0
    3.8436   -7.2758   16.0578 C   0  0  0  0  0  0  0  0  0  0  0  0
    3.1882   -9.7190   17.2566 C   0  0  0  0  0  0  0  0  0  0  0  0
    5.3488   -6.1737   26.5092 C   0  0  0  0  0  0  0  0  0  0  0  0
    7.4567   -6.9464   27.2858 C   0  0  0  0  0  0  0  0  0  0  0  0
    0.1921   -5.7592   27.1123 C   0  0  0  0  0  0  0  0  0  0  0  0
    3.5517   -7.7407   25.9711 C   0  0  0  0  0  0  0  0  0  0  0  0
  1  4  4  0
  1 22  4  0
  2 20  4  0
  2 27  4  0
  3 12  4  0
  3 23  4  0
  4 25  4  0
  4 28  1  0
  5  8  4  0
  5 17  4  0
  6  7  4  0
  6 16  4  0
  7 18  4  0
  8 27  4  0
  9 13  4  0
  9 23  4  0
 10 11  1  0
 11 14  2  0
 11 27  1  0
 12 19  1  0
 12 24  4  0
 13 24  4  0
 15 18  1  0
 16 25  4  0
 16 26  4  0
 17 20  4  0
 17 28  1  0
 18 21  4  0
 21 26  4  0
 22 26  4  0
M  END
$$$$

 Created by Python create_sdf_string function

 28 30  0  0  0  0  0  0  0  0999 V2000
    5.7174   -8.4529   26.7190 C   0  0  0  0  0  0  0  0  0  0  0  0
    0.3974   -7.0711   27.5149 C   0  0  0  0  0  0  0  0  0  0  0  0
    2.5338   -7.6891   16.0102 C   0  0  0  0  0  0  0  0  0  0  0  0
    4.8690   -7.4380   26.4151 C   0  0  0  0  0  0  0  0  0  0  0  0
    2.3021   -5.6726   26.0378 C   0  0  0  0  0  0  0  0  0  0  0  0
    7.0880   -4.6163   27.0010 C   0  0  0  0  0  0  0  0  0  0  0  0
    8.3117   -4.3698   27.4436 C   0  0  0  0  0  0  0  0  0  0  0  0
    1.1339   -5.0515   26.3541 C   0  0  0  0  0  0  0  0  0  0  0  0
    4.8080   -8.0362   16.7101 C   0  0  0  0  0  0  0  0  0  0  0  0
   -1.2173   -3.9294   26.9717 O   0  0  0  0  0  0  0  0  0  0  0  0
   -1.0025   -5.0942   27.4586 C   0  0  0  0  0  0  0  0  0  0  0  0
    2.2474   -8.9123   16.6273 C   0  0  0  0  0  0  0  0  0  0  0  0
    4.4957   -9.2636   17.3041 C   0  0  0  0  0  0  0  0  0  0  0  0
   -1.8070   -5.6086   28.1920 O   0  0  0  0  0  0  0  0  0  0  0  0
   10.4296   -5.1799   28.3140 C   0  0  0  0  0  0  0  0  0  0  0  0
    6.6017   -5.9004   26.9187 C   0  0  0  0  0  0  0  0  0  0  0  0
    2.4761   -6.9940   26.4111 N   0  0  0  0  0  0  0  0  0  0  0  0
    9.1353   -5.4053   27.8239 C   0  0  0  0  0  0  0  0  0  0  0  0
    0.9922   -9.3232   16.5995 O   0  0  0  0  0  0  0  0  0  0  0  0
    1.5232   -7.6869   27.1182 C   0  0  0  0  0  0  0  0  0  0  0  0
    8.6878   -6.6715   27.7262 N   0  0  0  0  0  0  0  0  0  0  0  0
    6.9911   -8.2423   27.1808 C   0  0  0  0  0  0  0  0  0  0  0  0
    3.8436   -7.2758   16.0578 C   0  0  0  0  0  0  0  0  0  0  0  0
    3.1882   -9.7190   17.2566 C   0  0  0  0  0  0  0  0  0  0  0  0
    5.3488   -6.1737   26.5092 C   0  0  0  0  0  0  0  0  0  0  0  0
    7.4567   -6.9464   27.2858 C   0  0  0  0  0  0  0  0  0  0  0  0
    0.1921   -5.7592   27.1123 C   0  0  0  0  0  0  0  0  0  0  0  0
    3.5517   -7.7407   25.9711 C   0  0  0  0  0  0  0  0  0  0  0  0
  1  4  4  0
  1 22  4  0
  2 20  4  0
  2 27  4  0
  3 12  4  0
  3 23  4  0
  4 25  4  0
  4 28  1  0
  5  8  4  0
  5 17  4  0
  6  7  4  0
  6 16  4  0
  7 18  4  0
  8 27  4  0
  9 13  4  0
  9 23  4  0
 10 11  1  0
 11 14  2  0
 11 27  1  0
 12 19  1  0
 12 24  4  0
 13 24  4  0
 15 18  1  0
 16 25  4  0
 16 26  4  0
 17 20  4  0
 17 28  1  0
 18 21  4  0
 21 26  4  0
 22 26  4  0
M  END
$$$$

 Created by Python create_sdf_string function

 28 30  0  0  0  0  0  0  0  0999 V2000
    5.7174   -8.4529   26.7190 C   0  0  0  0  0  0  0  0  0  0  0  0
    0.3974   -7.0711   27.5149 C   0  0  0  0  0  0  0  0  0  0  0  0
    2.5338   -7.6891   16.0102 C   0  0  0  0  0  0  0  0  0  0  0  0
    4.8690   -7.4380   26.4151 C   0  0  0  0  0  0  0  0  0  0  0  0
    2.3021   -5.6726   26.0378 C   0  0  0  0  0  0  0  0  0  0  0  0
    7.0880   -4.6163   27.0010 C   0  0  0  0  0  0  0  0  0  0  0  0
    8.3117   -4.3698   27.4436 C   0  0  0  0  0  0  0  0  0  0  0  0
    1.1339   -5.0515   26.3541 C   0  0  0  0  0  0  0  0  0  0  0  0
    4.8080   -8.0362   16.7101 C   0  0  0  0  0  0  0  0  0  0  0  0
   -1.2173   -3.9294   26.9717 O   0  0  0  0  0  0  0  0  0  0  0  0
   -1.0025   -5.0942   27.4586 C   0  0  0  0  0  0  0  0  0  0  0  0
    2.2474   -8.9123   16.6273 C   0  0  0  0  0  0  0  0  0  0  0  0
    4.4957   -9.2636   17.3041 C   0  0  0  0  0  0  0  0  0  0  0  0
   -1.8070   -5.6086   28.1920 O   0  0  0  0  0  0  0  0  0  0  0  0
   10.4296   -5.1799   28.3140 C   0  0  0  0  0  0  0  0  0  0  0  0
    6.6017   -5.9004   26.9187 C   0  0  0  0  0  0  0  0  0  0  0  0
    2.4761   -6.9940   26.4111 N   0  0  0  0  0  0  0  0  0  0  0  0
    9.1353   -5.4053   27.8239 C   0  0  0  0  0  0  0  0  0  0  0  0
    0.9922   -9.3232   16.5995 O   0  0  0  0  0  0  0  0  0  0  0  0
    1.5232   -7.6869   27.1182 C   0  0  0  0  0  0  0  0  0  0  0  0
    8.6878   -6.6715   27.7262 N   0  0  0  0  0  0  0  0  0  0  0  0
    6.9911   -8.2423   27.1808 C   0  0  0  0  0  0  0  0  0  0  0  0
    3.8436   -7.2758   16.0578 C   0  0  0  0  0  0  0  0  0  0  0  0
    3.1882   -9.7190   17.2566 C   0  0  0  0  0  0  0  0  0  0  0  0
    5.3488   -6.1737   26.5092 C   0  0  0  0  0  0  0  0  0  0  0  0
    7.4567   -6.9464   27.2858 C   0  0  0  0  0  0  0  0  0  0  0  0
    0.1921   -5.7592   27.1123 C   0  0  0  0  0  0  0  0  0  0  0  0
    3.5517   -7.7407   25.9711 C   0  0  0  0  0  0  0  0  0  0  0  0
  1  4  4  0
  1 22  4  0
  2 20  4  0
  2 27  4  0
  3 12  4  0
  3 23  4  0
  4 25  4  0
  4 28  1  0
  5  8  4  0
  5 17  4  0
  6  7  4  0
  6 16  4  0
  7 18  4  0
  8 27  4  0
  9 13  4  0
  9 23  4  0
 10 11  1  0
 11 14  2  0
 11 27  1  0
 12 19  1  0
 12 24  4  0
 13 24  4  0
 15 18  1  0
 16 25  4  0
 16 26  4  0
 17 20  4  0
 17 28  1  0
 18 21  4  0
 21 26  4  0
 22 26  4  0
M  END
$$$$

 Created by Python create_sdf_string function

 28 30  0  0  0  0  0  0  0  0999 V2000
    5.7174   -8.4529   26.7190 C   0  0  0  0  0  0  0  0  0  0  0  0
    0.3974   -7.0711   27.5149 C   0  0  0  0  0  0  0  0  0  0  0  0
    2.5338   -7.6891   16.0102 C   0  0  0  0  0  0  0  0  0  0  0  0
    4.8690   -7.4380   26.4151 C   0  0  0  0  0  0  0  0  0  0  0  0
    2.3021   -5.6726   26.0378 C   0  0  0  0  0  0  0  0  0  0  0  0
    7.0880   -4.6163   27.0010 C   0  0  0  0  0  0  0  0  0  0  0  0
    8.3117   -4.3698   27.4436 C   0  0  0  0  0  0  0  0  0  0  0  0
    1.1339   -5.0515   26.3541 C   0  0  0  0  0  0  0  0  0  0  0  0
    4.8080   -8.0362   16.7101 C   0  0  0  0  0  0  0  0  0  0  0  0
   -1.2173   -3.9294   26.9717 O   0  0  0  0  0  0  0  0  0  0  0  0
   -1.0025   -5.0942   27.4586 C   0  0  0  0  0  0  0  0  0  0  0  0
    2.2474   -8.9123   16.6273 C   0  0  0  0  0  0  0  0  0  0  0  0
    4.4957   -9.2636   17.3041 C   0  0  0  0  0  0  0  0  0  0  0  0
   -1.8070   -5.6086   28.1920 O   0  0  0  0  0  0  0  0  0  0  0  0
   10.4296   -5.1799   28.3140 C   0  0  0  0  0  0  0  0  0  0  0  0
    6.6017   -5.9004   26.9187 C   0  0  0  0  0  0  0  0  0  0  0  0
    2.4761   -6.9940   26.4111 N   0  0  0  0  0  0  0  0  0  0  0  0
    9.1353   -5.4053   27.8239 C   0  0  0  0  0  0  0  0  0  0  0  0
    0.9922   -9.3232   16.5995 O   0  0  0  0  0  0  0  0  0  0  0  0
    1.5232   -7.6869   27.1182 C   0  0  0  0  0  0  0  0  0  0  0  0
    8.6878   -6.6715   27.7262 N   0  0  0  0  0  0  0  0  0  0  0  0
    6.9911   -8.2423   27.1808 C   0  0  0  0  0  0  0  0  0  0  0  0
    3.8436   -7.2758   16.0578 C   0  0  0  0  0  0  0  0  0  0  0  0
    3.1882   -9.7190   17.2566 C   0  0  0  0  0  0  0  0  0  0  0  0
    5.3488   -6.1737   26.5092 C   0  0  0  0  0  0  0  0  0  0  0  0
    7.4567   -6.9464   27.2858 C   0  0  0  0  0  0  0  0  0  0  0  0
    0.1921   -5.7592   27.1123 C   0  0  0  0  0  0  0  0  0  0  0  0
    3.5517   -7.7407   25.9711 C   0  0  0  0  0  0  0  0  0  0  0  0
  1  4  4  0
  1 22  4  0
  2 20  4  0
  2 27  4  0
  3 12  4  0
  3 23  4  0
  4 25  4  0
  4 28  1  0
  5  8  4  0
  5 17  4  0
  6  7  4  0
  6 16  4  0
  7 18  4  0
  8 27  4  0
  9 13  4  0
  9 23  4  0
 10 11  1  0
 11 14  2  0
 11 27  1  0
 12 19  1  0
 12 24  4  0
 13 24  4  0
 15 18  1  0
 16 25  4  0
 16 26  4  0
 17 20  4  0
 17 28  1  0
 18 21  4  0
 21 26  4  0
 22 26  4  0
M  END
$$$$

 Created by Python create_sdf_string function

 28 30  0  0  0  0  0  0  0  0999 V2000
    5.7174   -8.4529   26.7190 C   0  0  0  0  0  0  0  0  0  0  0  0
    0.3974   -7.0711   27.5149 C   0  0  0  0  0  0  0  0  0  0  0  0
    2.5338   -7.6891   16.0102 C   0  0  0  0  0  0  0  0  0  0  0  0
    4.8690   -7.4380   26.4151 C   0  0  0  0  0  0  0  0  0  0  0  0
    2.3021   -5.6726   26.0378 C   0  0  0  0  0  0  0  0  0  0  0  0
    7.0880   -4.6163   27.0010 C   0  0  0  0  0  0  0  0  0  0  0  0
    8.3117   -4.3698   27.4436 C   0  0  0  0  0  0  0  0  0  0  0  0
    1.1339   -5.0515   26.3541 C   0  0  0  0  0  0  0  0  0  0  0  0
    4.8080   -8.0362   16.7101 C   0  0  0  0  0  0  0  0  0  0  0  0
   -1.2173   -3.9294   26.9717 O   0  0  0  0  0  0  0  0  0  0  0  0
   -1.0025   -5.0942   27.4586 C   0  0  0  0  0  0  0  0  0  0  0  0
    2.2474   -8.9123   16.6273 C   0  0  0  0  0  0  0  0  0  0  0  0
    4.4957   -9.2636   17.3041 C   0  0  0  0  0  0  0  0  0  0  0  0
   -1.8070   -5.6086   28.1920 O   0  0  0  0  0  0  0  0  0  0  0  0
   10.4296   -5.1799   28.3140 C   0  0  0  0  0  0  0  0  0  0  0  0
    6.6017   -5.9004   26.9187 C   0  0  0  0  0  0  0  0  0  0  0  0
    2.4761   -6.9940   26.4111 N   0  0  0  0  0  0  0  0  0  0  0  0
    9.1353   -5.4053   27.8239 C   0  0  0  0  0  0  0  0  0  0  0  0
    0.9922   -9.3232   16.5995 O   0  0  0  0  0  0  0  0  0  0  0  0
    1.5232   -7.6869   27.1182 C   0  0  0  0  0  0  0  0  0  0  0  0
    8.6878   -6.6715   27.7262 N   0  0  0  0  0  0  0  0  0  0  0  0
    6.9911   -8.2423   27.1808 C   0  0  0  0  0  0  0  0  0  0  0  0
    3.8436   -7.2758   16.0578 C   0  0  0  0  0  0  0  0  0  0  0  0
    3.1882   -9.7190   17.2566 C   0  0  0  0  0  0  0  0  0  0  0  0
    5.3488   -6.1737   26.5092 C   0  0  0  0  0  0  0  0  0  0  0  0
    7.4567   -6.9464   27.2858 C   0  0  0  0  0  0  0  0  0  0  0  0
    0.1921   -5.7592   27.1123 C   0  0  0  0  0  0  0  0  0  0  0  0
    3.5517   -7.7407   25.9711 C   0  0  0  0  0  0  0  0  0  0  0  0
  1  4  4  0
  1 22  4  0
  2 20  4  0
  2 27  4  0
  3 12  4  0
  3 23  4  0
  4 25  4  0
  4 28  1  0
  5  8  4  0
  5 17  4  0
  6  7  4  0
  6 16  4  0
  7 18  4  0
  8 27  4  0
  9 13  4  0
  9 23  4  0
 10 11  1  0
 11 14  2  0
 11 27  1  0
 12 19  1  0
 12 24  4  0
 13 24  4  0
 15 18  1  0
 16 25  4  0
 16 26  4  0
 17 20  4  0
 17 28  1  0
 18 21  4  0
 21 26  4  0
 22 26  4  0
M  END
$$$$

 Created by Python create_sdf_string function

 28 30  0  0  0  0  0  0  0  0999 V2000
    5.7174   -8.4529   26.7190 C   0  0  0  0  0  0  0  0  0  0  0  0
    0.3974   -7.0711   27.5149 C   0  0  0  0  0  0  0  0  0  0  0  0
    2.5338   -7.6891   16.0102 C   0  0  0  0  0  0  0  0  0  0  0  0
    4.8690   -7.4380   26.4151 C   0  0  0  0  0  0  0  0  0  0  0  0
    2.3021   -5.6726   26.0378 C   0  0  0  0  0  0  0  0  0  0  0  0
    7.0880   -4.6163   27.0010 C   0  0  0  0  0  0  0  0  0  0  0  0
    8.3117   -4.3698   27.4436 C   0  0  0  0  0  0  0  0  0  0  0  0
    1.1339   -5.0515   26.3541 C   0  0  0  0  0  0  0  0  0  0  0  0
    4.8080   -8.0362   16.7101 C   0  0  0  0  0  0  0  0  0  0  0  0
   -1.2173   -3.9294   26.9717 O   0  0  0  0  0  0  0  0  0  0  0  0
   -1.0025   -5.0942   27.4586 C   0  0  0  0  0  0  0  0  0  0  0  0
    2.2474   -8.9123   16.6273 C   0  0  0  0  0  0  0  0  0  0  0  0
    4.4957   -9.2636   17.3041 C   0  0  0  0  0  0  0  0  0  0  0  0
   -1.8070   -5.6086   28.1920 O   0  0  0  0  0  0  0  0  0  0  0  0
   10.4296   -5.1799   28.3140 C   0  0  0  0  0  0  0  0  0  0  0  0
    6.6017   -5.9004   26.9187 C   0  0  0  0  0  0  0  0  0  0  0  0
    2.4761   -6.9940   26.4111 N   0  0  0  0  0  0  0  0  0  0  0  0
    9.1353   -5.4053   27.8239 C   0  0  0  0  0  0  0  0  0  0  0  0
    0.9922   -9.3232   16.5995 O   0  0  0  0  0  0  0  0  0  0  0  0
    1.5232   -7.6869   27.1182 C   0  0  0  0  0  0  0  0  0  0  0  0
    8.6878   -6.6715   27.7262 N   0  0  0  0  0  0  0  0  0  0  0  0
    6.9911   -8.2423   27.1808 C   0  0  0  0  0  0  0  0  0  0  0  0
    3.8436   -7.2758   16.0578 C   0  0  0  0  0  0  0  0  0  0  0  0
    3.1882   -9.7190   17.2566 C   0  0  0  0  0  0  0  0  0  0  0  0
    5.3488   -6.1737   26.5092 C   0  0  0  0  0  0  0  0  0  0  0  0
    7.4567   -6.9464   27.2858 C   0  0  0  0  0  0  0  0  0  0  0  0
    0.1921   -5.7592   27.1123 C   0  0  0  0  0  0  0  0  0  0  0  0
    3.5517   -7.7407   25.9711 C   0  0  0  0  0  0  0  0  0  0  0  0
  1  4  4  0
  1 22  4  0
  2 20  4  0
  2 27  4  0
  3 12  4  0
  3 23  4  0
  4 25  4  0
  4 28  1  0
  5  8  4  0
  5 17  4  0
  6  7  4  0
  6 16  4  0
  7 18  4  0
  8 27  4  0
  9 13  4  0
  9 23  4  0
 10 11  1  0
 11 14  2  0
 11 27  1  0
 12 19  1  0
 12 24  4  0
 13 24  4  0
 15 18  1  0
 16 25  4  0
 16 26  4  0
 17 20  4  0
 17 28  1  0
 18 21  4  0
 21 26  4  0
 22 26  4  0
M  END
$$$$

 Created by Python create_sdf_string function

 28 30  0  0  0  0  0  0  0  0999 V2000
    5.7174   -8.4529   26.7190 C   0  0  0  0  0  0  0  0  0  0  0  0
    0.3974   -7.0711   27.5149 C   0  0  0  0  0  0  0  0  0  0  0  0
    2.5338   -7.6891   16.0102 C   0  0  0  0  0  0  0  0  0  0  0  0
    4.8690   -7.4380   26.4151 C   0  0  0  0  0  0  0  0  0  0  0  0
    2.3021   -5.6726   26.0378 C   0  0  0  0  0  0  0  0  0  0  0  0
    7.0880   -4.6163   27.0010 C   0  0  0  0  0  0  0  0  0  0  0  0
    8.3117   -4.3698   27.4436 C   0  0  0  0  0  0  0  0  0  0  0  0
    1.1339   -5.0515   26.3541 C   0  0  0  0  0  0  0  0  0  0  0  0
    4.8080   -8.0362   16.7101 C   0  0  0  0  0  0  0  0  0  0  0  0
   -1.2173   -3.9294   26.9717 O   0  0  0  0  0  0  0  0  0  0  0  0
   -1.0025   -5.0942   27.4586 C   0  0  0  0  0  0  0  0  0  0  0  0
    2.2474   -8.9123   16.6273 C   0  0  0  0  0  0  0  0  0  0  0  0
    4.4957   -9.2636   17.3041 C   0  0  0  0  0  0  0  0  0  0  0  0
   -1.8070   -5.6086   28.1920 O   0  0  0  0  0  0  0  0  0  0  0  0
   10.4296   -5.1799   28.3140 C   0  0  0  0  0  0  0  0  0  0  0  0
    6.6017   -5.9004   26.9187 C   0  0  0  0  0  0  0  0  0  0  0  0
    2.4761   -6.9940   26.4111 N   0  0  0  0  0  0  0  0  0  0  0  0
    9.1353   -5.4053   27.8239 C   0  0  0  0  0  0  0  0  0  0  0  0
    0.9922   -9.3232   16.5995 O   0  0  0  0  0  0  0  0  0  0  0  0
    1.5232   -7.6869   27.1182 C   0  0  0  0  0  0  0  0  0  0  0  0
    8.6878   -6.6715   27.7262 N   0  0  0  0  0  0  0  0  0  0  0  0
    6.9911   -8.2423   27.1808 C   0  0  0  0  0  0  0  0  0  0  0  0
    3.8436   -7.2758   16.0578 C   0  0  0  0  0  0  0  0  0  0  0  0
    3.1882   -9.7190   17.2566 C   0  0  0  0  0  0  0  0  0  0  0  0
    5.3488   -6.1737   26.5092 C   0  0  0  0  0  0  0  0  0  0  0  0
    7.4567   -6.9464   27.2858 C   0  0  0  0  0  0  0  0  0  0  0  0
    0.1921   -5.7592   27.1123 C   0  0  0  0  0  0  0  0  0  0  0  0
    3.5517   -7.7407   25.9711 C   0  0  0  0  0  0  0  0  0  0  0  0
  1  4  4  0
  1 22  4  0
  2 20  4  0
  2 27  4  0
  3 12  4  0
  3 23  4  0
  4 25  4  0
  4 28  1  0
  5  8  4  0
  5 17  4  0
  6  7  4  0
  6 16  4  0
  7 18  4  0
  8 27  4  0
  9 13  4  0
  9 23  4  0
 10 11  1  0
 11 14  2  0
 11 27  1  0
 12 19  1  0
 12 24  4  0
 13 24  4  0
 15 18  1  0
 16 25  4  0
 16 26  4  0
 17 20  4  0
 17 28  1  0
 18 21  4  0
 21 26  4  0
 22 26  4  0
M  END
$$$$

 Created by Python create_sdf_string function

 28 30  0  0  0  0  0  0  0  0999 V2000
    5.7174   -8.4529   26.7190 C   0  0  0  0  0  0  0  0  0  0  0  0
    0.3974   -7.0711   27.5149 C   0  0  0  0  0  0  0  0  0  0  0  0
    2.5338   -7.6891   16.0102 C   0  0  0  0  0  0  0  0  0  0  0  0
    4.8690   -7.4380   26.4151 C   0  0  0  0  0  0  0  0  0  0  0  0
    2.3021   -5.6726   26.0378 C   0  0  0  0  0  0  0  0  0  0  0  0
    7.0880   -4.6163   27.0010 C   0  0  0  0  0  0  0  0  0  0  0  0
    8.3117   -4.3698   27.4436 C   0  0  0  0  0  0  0  0  0  0  0  0
    1.1339   -5.0515   26.3541 C   0  0  0  0  0  0  0  0  0  0  0  0
    4.8080   -8.0362   16.7101 C   0  0  0  0  0  0  0  0  0  0  0  0
   -1.2173   -3.9294   26.9717 O   0  0  0  0  0  0  0  0  0  0  0  0
   -1.0025   -5.0942   27.4586 C   0  0  0  0  0  0  0  0  0  0  0  0
    2.2474   -8.9123   16.6273 C   0  0  0  0  0  0  0  0  0  0  0  0
    4.4957   -9.2636   17.3041 C   0  0  0  0  0  0  0  0  0  0  0  0
   -1.8070   -5.6086   28.1920 O   0  0  0  0  0  0  0  0  0  0  0  0
   10.4296   -5.1799   28.3140 C   0  0  0  0  0  0  0  0  0  0  0  0
    6.6017   -5.9004   26.9187 C   0  0  0  0  0  0  0  0  0  0  0  0
    2.4761   -6.9940   26.4111 N   0  0  0  0  0  0  0  0  0  0  0  0
    9.1353   -5.4053   27.8239 C   0  0  0  0  0  0  0  0  0  0  0  0
    0.9922   -9.3232   16.5995 O   0  0  0  0  0  0  0  0  0  0  0  0
    1.5232   -7.6869   27.1182 C   0  0  0  0  0  0  0  0  0  0  0  0
    8.6878   -6.6715   27.7262 N   0  0  0  0  0  0  0  0  0  0  0  0
    6.9911   -8.2423   27.1808 C   0  0  0  0  0  0  0  0  0  0  0  0
    3.8436   -7.2758   16.0578 C   0  0  0  0  0  0  0  0  0  0  0  0
    3.1882   -9.7190   17.2566 C   0  0  0  0  0  0  0  0  0  0  0  0
    5.3488   -6.1737   26.5092 C   0  0  0  0  0  0  0  0  0  0  0  0
    7.4567   -6.9464   27.2858 C   0  0  0  0  0  0  0  0  0  0  0  0
    0.1921   -5.7592   27.1123 C   0  0  0  0  0  0  0  0  0  0  0  0
    3.5517   -7.7407   25.9711 C   0  0  0  0  0  0  0  0  0  0  0  0
  1  4  4  0
  1 22  4  0
  2 20  4  0
  2 27  4  0
  3 12  4  0
  3 23  4  0
  4 25  4  0
  4 28  1  0
  5  8  4  0
  5 17  4  0
  6  7  4  0
  6 16  4  0
  7 18  4  0
  8 27  4  0
  9 13  4  0
  9 23  4  0
 10 11  1  0
 11 14  2  0
 11 27  1  0
 12 19  1  0
 12 24  4  0
 13 24  4  0
 15 18  1  0
 16 25  4  0
 16 26  4  0
 17 20  4  0
 17 28  1  0
 18 21  4  0
 21 26  4  0
 22 26  4  0
M  END
$$$$

 Created by Python create_sdf_string function

 28 30  0  0  0  0  0  0  0  0999 V2000
    5.7174   -8.4529   26.7190 C   0  0  0  0  0  0  0  0  0  0  0  0
    0.3974   -7.0711   27.5149 C   0  0  0  0  0  0  0  0  0  0  0  0
    2.5338   -7.6891   16.0102 C   0  0  0  0  0  0  0  0  0  0  0  0
    4.8690   -7.4380   26.4151 C   0  0  0  0  0  0  0  0  0  0  0  0
    2.3021   -5.6726   26.0378 C   0  0  0  0  0  0  0  0  0  0  0  0
    7.0880   -4.6163   27.0010 C   0  0  0  0  0  0  0  0  0  0  0  0
    8.3117   -4.3698   27.4436 C   0  0  0  0  0  0  0  0  0  0  0  0
    1.1339   -5.0515   26.3541 C   0  0  0  0  0  0  0  0  0  0  0  0
    4.8080   -8.0362   16.7101 C   0  0  0  0  0  0  0  0  0  0  0  0
   -1.2173   -3.9294   26.9717 O   0  0  0  0  0  0  0  0  0  0  0  0
   -1.0025   -5.0942   27.4586 C   0  0  0  0  0  0  0  0  0  0  0  0
    2.2474   -8.9123   16.6273 C   0  0  0  0  0  0  0  0  0  0  0  0
    4.4957   -9.2636   17.3041 C   0  0  0  0  0  0  0  0  0  0  0  0
   -1.8070   -5.6086   28.1920 O   0  0  0  0  0  0  0  0  0  0  0  0
   10.4296   -5.1799   28.3140 C   0  0  0  0  0  0  0  0  0  0  0  0
    6.6017   -5.9004   26.9187 C   0  0  0  0  0  0  0  0  0  0  0  0
    2.4761   -6.9940   26.4111 N   0  0  0  0  0  0  0  0  0  0  0  0
    9.1353   -5.4053   27.8239 C   0  0  0  0  0  0  0  0  0  0  0  0
    0.9922   -9.3232   16.5995 O   0  0  0  0  0  0  0  0  0  0  0  0
    1.5232   -7.6869   27.1182 C   0  0  0  0  0  0  0  0  0  0  0  0
    8.6878   -6.6715   27.7262 N   0  0  0  0  0  0  0  0  0  0  0  0
    6.9911   -8.2423   27.1808 C   0  0  0  0  0  0  0  0  0  0  0  0
    3.8436   -7.2758   16.0578 C   0  0  0  0  0  0  0  0  0  0  0  0
    3.1882   -9.7190   17.2566 C   0  0  0  0  0  0  0  0  0  0  0  0
    5.3488   -6.1737   26.5092 C   0  0  0  0  0  0  0  0  0  0  0  0
    7.4567   -6.9464   27.2858 C   0  0  0  0  0  0  0  0  0  0  0  0
    0.1921   -5.7592   27.1123 C   0  0  0  0  0  0  0  0  0  0  0  0
    3.5517   -7.7407   25.9711 C   0  0  0  0  0  0  0  0  0  0  0  0
  1  4  4  0
  1 22  4  0
  2 20  4  0
  2 27  4  0
  3 12  4  0
  3 23  4  0
  4 25  4  0
  4 28  1  0
  5  8  4  0
  5 17  4  0
  6  7  4  0
  6 16  4  0
  7 18  4  0
  8 27  4  0
  9 13  4  0
  9 23  4  0
 10 11  1  0
 11 14  2  0
 11 27  1  0
 12 19  1  0
 12 24  4  0
 13 24  4  0
 15 18  1  0
 16 25  4  0
 16 26  4  0
 17 20  4  0
 17 28  1  0
 18 21  4  0
 21 26  4  0
 22 26  4  0
M  END
$$$$

 Created by Python create_sdf_string function

 28 30  0  0  0  0  0  0  0  0999 V2000
    5.7174   -8.4529   26.7190 C   0  0  0  0  0  0  0  0  0  0  0  0
    0.3974   -7.0711   27.5149 C   0  0  0  0  0  0  0  0  0  0  0  0
    2.5338   -7.6891   16.0102 C   0  0  0  0  0  0  0  0  0  0  0  0
    4.8690   -7.4380   26.4151 C   0  0  0  0  0  0  0  0  0  0  0  0
    2.3021   -5.6726   26.0378 C   0  0  0  0  0  0  0  0  0  0  0  0
    7.0880   -4.6163   27.0010 C   0  0  0  0  0  0  0  0  0  0  0  0
    8.3117   -4.3698   27.4436 C   0  0  0  0  0  0  0  0  0  0  0  0
    1.1339   -5.0515   26.3541 C   0  0  0  0  0  0  0  0  0  0  0  0
    4.8080   -8.0362   16.7101 C   0  0  0  0  0  0  0  0  0  0  0  0
   -1.2173   -3.9294   26.9717 O   0  0  0  0  0  0  0  0  0  0  0  0
   -1.0025   -5.0942   27.4586 C   0  0  0  0  0  0  0  0  0  0  0  0
    2.2474   -8.9123   16.6273 C   0  0  0  0  0  0  0  0  0  0  0  0
    4.4957   -9.2636   17.3041 C   0  0  0  0  0  0  0  0  0  0  0  0
   -1.8070   -5.6086   28.1920 O   0  0  0  0  0  0  0  0  0  0  0  0
   10.4296   -5.1799   28.3140 C   0  0  0  0  0  0  0  0  0  0  0  0
    6.6017   -5.9004   26.9187 C   0  0  0  0  0  0  0  0  0  0  0  0
    2.4761   -6.9940   26.4111 N   0  0  0  0  0  0  0  0  0  0  0  0
    9.1353   -5.4053   27.8239 C   0  0  0  0  0  0  0  0  0  0  0  0
    0.9922   -9.3232   16.5995 O   0  0  0  0  0  0  0  0  0  0  0  0
    1.5232   -7.6869   27.1182 C   0  0  0  0  0  0  0  0  0  0  0  0
    8.6878   -6.6715   27.7262 N   0  0  0  0  0  0  0  0  0  0  0  0
    6.9911   -8.2423   27.1808 C   0  0  0  0  0  0  0  0  0  0  0  0
    3.8436   -7.2758   16.0578 C   0  0  0  0  0  0  0  0  0  0  0  0
    3.1882   -9.7190   17.2566 C   0  0  0  0  0  0  0  0  0  0  0  0
    5.3488   -6.1737   26.5092 C   0  0  0  0  0  0  0  0  0  0  0  0
    7.4567   -6.9464   27.2858 C   0  0  0  0  0  0  0  0  0  0  0  0
    0.1921   -5.7592   27.1123 C   0  0  0  0  0  0  0  0  0  0  0  0
    3.5517   -7.7407   25.9711 C   0  0  0  0  0  0  0  0  0  0  0  0
  1  4  4  0
  1 22  4  0
  2 20  4  0
  2 27  4  0
  3 12  4  0
  3 23  4  0
  4 25  4  0
  4 28  1  0
  5  8  4  0
  5 17  4  0
  6  7  4  0
  6 16  4  0
  7 18  4  0
  8 27  4  0
  9 13  4  0
  9 23  4  0
 10 11  1  0
 11 14  2  0
 11 27  1  0
 12 19  1  0
 12 24  4  0
 13 24  4  0
 15 18  1  0
 16 25  4  0
 16 26  4  0
 17 20  4  0
 17 28  1  0
 18 21  4  0
 21 26  4  0
 22 26  4  0
M  END
$$$$

 Created by Python create_sdf_string function

 28 30  0  0  0  0  0  0  0  0999 V2000
    5.7174   -8.4529   26.7190 C   0  0  0  0  0  0  0  0  0  0  0  0
    0.3974   -7.0711   27.5149 C   0  0  0  0  0  0  0  0  0  0  0  0
    2.5338   -7.6891   16.0102 C   0  0  0  0  0  0  0  0  0  0  0  0
    4.8690   -7.4380   26.4151 C   0  0  0  0  0  0  0  0  0  0  0  0
    2.3021   -5.6726   26.0378 C   0  0  0  0  0  0  0  0  0  0  0  0
    7.0880   -4.6163   27.0010 C   0  0  0  0  0  0  0  0  0  0  0  0
    8.3117   -4.3698   27.4436 C   0  0  0  0  0  0  0  0  0  0  0  0
    1.1339   -5.0515   26.3541 C   0  0  0  0  0  0  0  0  0  0  0  0
    4.8080   -8.0362   16.7101 C   0  0  0  0  0  0  0  0  0  0  0  0
   -1.2173   -3.9294   26.9717 O   0  0  0  0  0  0  0  0  0  0  0  0
   -1.0025   -5.0942   27.4586 C   0  0  0  0  0  0  0  0  0  0  0  0
    2.2474   -8.9123   16.6273 C   0  0  0  0  0  0  0  0  0  0  0  0
    4.4957   -9.2636   17.3041 C   0  0  0  0  0  0  0  0  0  0  0  0
   -1.8070   -5.6086   28.1920 O   0  0  0  0  0  0  0  0  0  0  0  0
   10.4296   -5.1799   28.3140 C   0  0  0  0  0  0  0  0  0  0  0  0
    6.6017   -5.9004   26.9187 C   0  0  0  0  0  0  0  0  0  0  0  0
    2.4761   -6.9940   26.4111 N   0  0  0  0  0  0  0  0  0  0  0  0
    9.1353   -5.4053   27.8239 C   0  0  0  0  0  0  0  0  0  0  0  0
    0.9922   -9.3232   16.5995 O   0  0  0  0  0  0  0  0  0  0  0  0
    1.5232   -7.6869   27.1182 C   0  0  0  0  0  0  0  0  0  0  0  0
    8.6878   -6.6715   27.7262 N   0  0  0  0  0  0  0  0  0  0  0  0
    6.9911   -8.2423   27.1808 C   0  0  0  0  0  0  0  0  0  0  0  0
    3.8436   -7.2758   16.0578 C   0  0  0  0  0  0  0  0  0  0  0  0
    3.1882   -9.7190   17.2566 C   0  0  0  0  0  0  0  0  0  0  0  0
    5.3488   -6.1737   26.5092 C   0  0  0  0  0  0  0  0  0  0  0  0
    7.4567   -6.9464   27.2858 C   0  0  0  0  0  0  0  0  0  0  0  0
    0.1921   -5.7592   27.1123 C   0  0  0  0  0  0  0  0  0  0  0  0
    3.5517   -7.7407   25.9711 C   0  0  0  0  0  0  0  0  0  0  0  0
  1  4  4  0
  1 22  4  0
  2 20  4  0
  2 27  4  0
  3 12  4  0
  3 23  4  0
  4 25  4  0
  4 28  1  0
  5  8  4  0
  5 17  4  0
  6  7  4  0
  6 16  4  0
  7 18  4  0
  8 27  4  0
  9 13  4  0
  9 23  4  0
 10 11  1  0
 11 14  2  0
 11 27  1  0
 12 19  1  0
 12 24  4  0
 13 24  4  0
 15 18  1  0
 16 25  4  0
 16 26  4  0
 17 20  4  0
 17 28  1  0
 18 21  4  0
 21 26  4  0
 22 26  4  0
M  END
$$$$

 Created by Python create_sdf_string function

 28 30  0  0  0  0  0  0  0  0999 V2000
    5.7174   -8.4529   26.7190 C   0  0  0  0  0  0  0  0  0  0  0  0
    0.3974   -7.0711   27.5149 C   0  0  0  0  0  0  0  0  0  0  0  0
    2.5338   -7.6891   16.0102 C   0  0  0  0  0  0  0  0  0  0  0  0
    4.8690   -7.4380   26.4151 C   0  0  0  0  0  0  0  0  0  0  0  0
    2.3021   -5.6726   26.0378 C   0  0  0  0  0  0  0  0  0  0  0  0
    7.0880   -4.6163   27.0010 C   0  0  0  0  0  0  0  0  0  0  0  0
    8.3117   -4.3698   27.4436 C   0  0  0  0  0  0  0  0  0  0  0  0
    1.1339   -5.0515   26.3541 C   0  0  0  0  0  0  0  0  0  0  0  0
    4.8080   -8.0362   16.7101 C   0  0  0  0  0  0  0  0  0  0  0  0
   -1.2173   -3.9294   26.9717 O   0  0  0  0  0  0  0  0  0  0  0  0
   -1.0025   -5.0942   27.4586 C   0  0  0  0  0  0  0  0  0  0  0  0
    2.2474   -8.9123   16.6273 C   0  0  0  0  0  0  0  0  0  0  0  0
    4.4957   -9.2636   17.3041 C   0  0  0  0  0  0  0  0  0  0  0  0
   -1.8070   -5.6086   28.1920 O   0  0  0  0  0  0  0  0  0  0  0  0
   10.4296   -5.1799   28.3140 C   0  0  0  0  0  0  0  0  0  0  0  0
    6.6017   -5.9004   26.9187 C   0  0  0  0  0  0  0  0  0  0  0  0
    2.4761   -6.9940   26.4111 N   0  0  0  0  0  0  0  0  0  0  0  0
    9.1353   -5.4053   27.8239 C   0  0  0  0  0  0  0  0  0  0  0  0
    0.9922   -9.3232   16.5995 O   0  0  0  0  0  0  0  0  0  0  0  0
    1.5232   -7.6869   27.1182 C   0  0  0  0  0  0  0  0  0  0  0  0
    8.6878   -6.6715   27.7262 N   0  0  0  0  0  0  0  0  0  0  0  0
    6.9911   -8.2423   27.1808 C   0  0  0  0  0  0  0  0  0  0  0  0
    3.8436   -7.2758   16.0578 C   0  0  0  0  0  0  0  0  0  0  0  0
    3.1882   -9.7190   17.2566 C   0  0  0  0  0  0  0  0  0  0  0  0
    5.3488   -6.1737   26.5092 C   0  0  0  0  0  0  0  0  0  0  0  0
    7.4567   -6.9464   27.2858 C   0  0  0  0  0  0  0  0  0  0  0  0
    0.1921   -5.7592   27.1123 C   0  0  0  0  0  0  0  0  0  0  0  0
    3.5517   -7.7407   25.9711 C   0  0  0  0  0  0  0  0  0  0  0  0
  1  4  4  0
  1 22  4  0
  2 20  4  0
  2 27  4  0
  3 12  4  0
  3 23  4  0
  4 25  4  0
  4 28  1  0
  5  8  4  0
  5 17  4  0
  6  7  4  0
  6 16  4  0
  7 18  4  0
  8 27  4  0
  9 13  4  0
  9 23  4  0
 10 11  1  0
 11 14  2  0
 11 27  1  0
 12 19  1  0
 12 24  4  0
 13 24  4  0
 15 18  1  0
 16 25  4  0
 16 26  4  0
 17 20  4  0
 17 28  1  0
 18 21  4  0
 21 26  4  0
 22 26  4  0
M  END
$$$$

 Created by Python create_sdf_string function

 28 30  0  0  0  0  0  0  0  0999 V2000
    5.7174   -8.4529   26.7190 C   0  0  0  0  0  0  0  0  0  0  0  0
    0.3974   -7.0711   27.5149 C   0  0  0  0  0  0  0  0  0  0  0  0
    2.5338   -7.6891   16.0102 C   0  0  0  0  0  0  0  0  0  0  0  0
    4.8690   -7.4380   26.4151 C   0  0  0  0  0  0  0  0  0  0  0  0
    2.3021   -5.6726   26.0378 C   0  0  0  0  0  0  0  0  0  0  0  0
    7.0880   -4.6163   27.0010 C   0  0  0  0  0  0  0  0  0  0  0  0
    8.3117   -4.3698   27.4436 C   0  0  0  0  0  0  0  0  0  0  0  0
    1.1339   -5.0515   26.3541 C   0  0  0  0  0  0  0  0  0  0  0  0
    4.8080   -8.0362   16.7101 C   0  0  0  0  0  0  0  0  0  0  0  0
   -1.2173   -3.9294   26.9717 O   0  0  0  0  0  0  0  0  0  0  0  0
   -1.0025   -5.0942   27.4586 C   0  0  0  0  0  0  0  0  0  0  0  0
    2.2474   -8.9123   16.6273 C   0  0  0  0  0  0  0  0  0  0  0  0
    4.4957   -9.2636   17.3041 C   0  0  0  0  0  0  0  0  0  0  0  0
   -1.8070   -5.6086   28.1920 O   0  0  0  0  0  0  0  0  0  0  0  0
   10.4296   -5.1799   28.3140 C   0  0  0  0  0  0  0  0  0  0  0  0
    6.6017   -5.9004   26.9187 C   0  0  0  0  0  0  0  0  0  0  0  0
    2.4761   -6.9940   26.4111 N   0  0  0  0  0  0  0  0  0  0  0  0
    9.1353   -5.4053   27.8239 C   0  0  0  0  0  0  0  0  0  0  0  0
    0.9922   -9.3232   16.5995 O   0  0  0  0  0  0  0  0  0  0  0  0
    1.5232   -7.6869   27.1182 C   0  0  0  0  0  0  0  0  0  0  0  0
    8.6878   -6.6715   27.7262 N   0  0  0  0  0  0  0  0  0  0  0  0
    6.9911   -8.2423   27.1808 C   0  0  0  0  0  0  0  0  0  0  0  0
    3.8436   -7.2758   16.0578 C   0  0  0  0  0  0  0  0  0  0  0  0
    3.1882   -9.7190   17.2566 C   0  0  0  0  0  0  0  0  0  0  0  0
    5.3488   -6.1737   26.5092 C   0  0  0  0  0  0  0  0  0  0  0  0
    7.4567   -6.9464   27.2858 C   0  0  0  0  0  0  0  0  0  0  0  0
    0.1921   -5.7592   27.1123 C   0  0  0  0  0  0  0  0  0  0  0  0
    3.5517   -7.7407   25.9711 C   0  0  0  0  0  0  0  0  0  0  0  0
  1  4  4  0
  1 22  4  0
  2 20  4  0
  2 27  4  0
  3 12  4  0
  3 23  4  0
  4 25  4  0
  4 28  1  0
  5  8  4  0
  5 17  4  0
  6  7  4  0
  6 16  4  0
  7 18  4  0
  8 27  4  0
  9 13  4  0
  9 23  4  0
 10 11  1  0
 11 14  2  0
 11 27  1  0
 12 19  1  0
 12 24  4  0
 13 24  4  0
 15 18  1  0
 16 25  4  0
 16 26  4  0
 17 20  4  0
 17 28  1  0
 18 21  4  0
 21 26  4  0
 22 26  4  0
M  END
$$$$

 Created by Python create_sdf_string function

 28 30  0  0  0  0  0  0  0  0999 V2000
    5.7174   -8.4529   26.7190 C   0  0  0  0  0  0  0  0  0  0  0  0
    0.3974   -7.0711   27.5149 C   0  0  0  0  0  0  0  0  0  0  0  0
    2.5338   -7.6891   16.0102 C   0  0  0  0  0  0  0  0  0  0  0  0
    4.8690   -7.4380   26.4151 C   0  0  0  0  0  0  0  0  0  0  0  0
    2.3021   -5.6726   26.0378 C   0  0  0  0  0  0  0  0  0  0  0  0
    7.0880   -4.6163   27.0010 C   0  0  0  0  0  0  0  0  0  0  0  0
    8.3117   -4.3698   27.4436 C   0  0  0  0  0  0  0  0  0  0  0  0
    1.1339   -5.0515   26.3541 C   0  0  0  0  0  0  0  0  0  0  0  0
    4.8080   -8.0362   16.7101 C   0  0  0  0  0  0  0  0  0  0  0  0
   -1.2173   -3.9294   26.9717 O   0  0  0  0  0  0  0  0  0  0  0  0
   -1.0025   -5.0942   27.4586 C   0  0  0  0  0  0  0  0  0  0  0  0
    2.2474   -8.9123   16.6273 C   0  0  0  0  0  0  0  0  0  0  0  0
    4.4957   -9.2636   17.3041 C   0  0  0  0  0  0  0  0  0  0  0  0
   -1.8070   -5.6086   28.1920 O   0  0  0  0  0  0  0  0  0  0  0  0
   10.4296   -5.1799   28.3140 C   0  0  0  0  0  0  0  0  0  0  0  0
    6.6017   -5.9004   26.9187 C   0  0  0  0  0  0  0  0  0  0  0  0
    2.4761   -6.9940   26.4111 N   0  0  0  0  0  0  0  0  0  0  0  0
    9.1353   -5.4053   27.8239 C   0  0  0  0  0  0  0  0  0  0  0  0
    0.9922   -9.3232   16.5995 O   0  0  0  0  0  0  0  0  0  0  0  0
    1.5232   -7.6869   27.1182 C   0  0  0  0  0  0  0  0  0  0  0  0
    8.6878   -6.6715   27.7262 N   0  0  0  0  0  0  0  0  0  0  0  0
    6.9911   -8.2423   27.1808 C   0  0  0  0  0  0  0  0  0  0  0  0
    3.8436   -7.2758   16.0578 C   0  0  0  0  0  0  0  0  0  0  0  0
    3.1882   -9.7190   17.2566 C   0  0  0  0  0  0  0  0  0  0  0  0
    5.3488   -6.1737   26.5092 C   0  0  0  0  0  0  0  0  0  0  0  0
    7.4567   -6.9464   27.2858 C   0  0  0  0  0  0  0  0  0  0  0  0
    0.1921   -5.7592   27.1123 C   0  0  0  0  0  0  0  0  0  0  0  0
    3.5517   -7.7407   25.9711 C   0  0  0  0  0  0  0  0  0  0  0  0
  1  4  4  0
  1 22  4  0
  2 20  4  0
  2 27  4  0
  3 12  4  0
  3 23  4  0
  4 25  4  0
  4 28  1  0
  5  8  4  0
  5 17  4  0
  6  7  4  0
  6 16  4  0
  7 18  4  0
  8 27  4  0
  9 13  4  0
  9 23  4  0
 10 11  1  0
 11 14  2  0
 11 27  1  0
 12 19  1  0
 12 24  4  0
 13 24  4  0
 15 18  1  0
 16 25  4  0
 16 26  4  0
 17 20  4  0
 17 28  1  0
 18 21  4  0
 21 26  4  0
 22 26  4  0
M  END
$$$$

 Created by Python create_sdf_string function

 28 30  0  0  0  0  0  0  0  0999 V2000
    5.7174   -8.4529   26.7190 C   0  0  0  0  0  0  0  0  0  0  0  0
    0.3974   -7.0711   27.5149 C   0  0  0  0  0  0  0  0  0  0  0  0
    2.5338   -7.6891   16.0102 C   0  0  0  0  0  0  0  0  0  0  0  0
    4.8690   -7.4380   26.4151 C   0  0  0  0  0  0  0  0  0  0  0  0
    2.3021   -5.6726   26.0378 C   0  0  0  0  0  0  0  0  0  0  0  0
    7.0880   -4.6163   27.0010 C   0  0  0  0  0  0  0  0  0  0  0  0
    8.3117   -4.3698   27.4436 C   0  0  0  0  0  0  0  0  0  0  0  0
    1.1339   -5.0515   26.3541 C   0  0  0  0  0  0  0  0  0  0  0  0
    4.8080   -8.0362   16.7101 C   0  0  0  0  0  0  0  0  0  0  0  0
   -1.2173   -3.9294   26.9717 O   0  0  0  0  0  0  0  0  0  0  0  0
   -1.0025   -5.0942   27.4586 C   0  0  0  0  0  0  0  0  0  0  0  0
    2.2474   -8.9123   16.6273 C   0  0  0  0  0  0  0  0  0  0  0  0
    4.4957   -9.2636   17.3041 C   0  0  0  0  0  0  0  0  0  0  0  0
   -1.8070   -5.6086   28.1920 O   0  0  0  0  0  0  0  0  0  0  0  0
   10.4296   -5.1799   28.3140 C   0  0  0  0  0  0  0  0  0  0  0  0
    6.6017   -5.9004   26.9187 C   0  0  0  0  0  0  0  0  0  0  0  0
    2.4761   -6.9940   26.4111 N   0  0  0  0  0  0  0  0  0  0  0  0
    9.1353   -5.4053   27.8239 C   0  0  0  0  0  0  0  0  0  0  0  0
    0.9922   -9.3232   16.5995 O   0  0  0  0  0  0  0  0  0  0  0  0
    1.5232   -7.6869   27.1182 C   0  0  0  0  0  0  0  0  0  0  0  0
    8.6878   -6.6715   27.7262 N   0  0  0  0  0  0  0  0  0  0  0  0
    6.9911   -8.2423   27.1808 C   0  0  0  0  0  0  0  0  0  0  0  0
    3.8436   -7.2758   16.0578 C   0  0  0  0  0  0  0  0  0  0  0  0
    3.1882   -9.7190   17.2566 C   0  0  0  0  0  0  0  0  0  0  0  0
    5.3488   -6.1737   26.5092 C   0  0  0  0  0  0  0  0  0  0  0  0
    7.4567   -6.9464   27.2858 C   0  0  0  0  0  0  0  0  0  0  0  0
    0.1921   -5.7592   27.1123 C   0  0  0  0  0  0  0  0  0  0  0  0
    3.5517   -7.7407   25.9711 C   0  0  0  0  0  0  0  0  0  0  0  0
  1  4  4  0
  1 22  4  0
  2 20  4  0
  2 27  4  0
  3 12  4  0
  3 23  4  0
  4 25  4  0
  4 28  1  0
  5  8  4  0
  5 17  4  0
  6  7  4  0
  6 16  4  0
  7 18  4  0
  8 27  4  0
  9 13  4  0
  9 23  4  0
 10 11  1  0
 11 14  2  0
 11 27  1  0
 12 19  1  0
 12 24  4  0
 13 24  4  0
 15 18  1  0
 16 25  4  0
 16 26  4  0
 17 20  4  0
 17 28  1  0
 18 21  4  0
 21 26  4  0
 22 26  4  0
M  END
$$$$

 Created by Python create_sdf_string function

 28 30  0  0  0  0  0  0  0  0999 V2000
    5.7174   -8.4529   26.7190 C   0  0  0  0  0  0  0  0  0  0  0  0
    0.3974   -7.0711   27.5149 C   0  0  0  0  0  0  0  0  0  0  0  0
    2.5338   -7.6891   16.0102 C   0  0  0  0  0  0  0  0  0  0  0  0
    4.8690   -7.4380   26.4151 C   0  0  0  0  0  0  0  0  0  0  0  0
    2.3021   -5.6726   26.0378 C   0  0  0  0  0  0  0  0  0  0  0  0
    7.0880   -4.6163   27.0010 C   0  0  0  0  0  0  0  0  0  0  0  0
    8.3117   -4.3698   27.4436 C   0  0  0  0  0  0  0  0  0  0  0  0
    1.1339   -5.0515   26.3541 C   0  0  0  0  0  0  0  0  0  0  0  0
    4.8080   -8.0362   16.7101 C   0  0  0  0  0  0  0  0  0  0  0  0
   -1.2173   -3.9294   26.9717 O   0  0  0  0  0  0  0  0  0  0  0  0
   -1.0025   -5.0942   27.4586 C   0  0  0  0  0  0  0  0  0  0  0  0
    2.2474   -8.9123   16.6273 C   0  0  0  0  0  0  0  0  0  0  0  0
    4.4957   -9.2636   17.3041 C   0  0  0  0  0  0  0  0  0  0  0  0
   -1.8070   -5.6086   28.1920 O   0  0  0  0  0  0  0  0  0  0  0  0
   10.4296   -5.1799   28.3140 C   0  0  0  0  0  0  0  0  0  0  0  0
    6.6017   -5.9004   26.9187 C   0  0  0  0  0  0  0  0  0  0  0  0
    2.4761   -6.9940   26.4111 N   0  0  0  0  0  0  0  0  0  0  0  0
    9.1353   -5.4053   27.8239 C   0  0  0  0  0  0  0  0  0  0  0  0
    0.9922   -9.3232   16.5995 O   0  0  0  0  0  0  0  0  0  0  0  0
    1.5232   -7.6869   27.1182 C   0  0  0  0  0  0  0  0  0  0  0  0
    8.6878   -6.6715   27.7262 N   0  0  0  0  0  0  0  0  0  0  0  0
    6.9911   -8.2423   27.1808 C   0  0  0  0  0  0  0  0  0  0  0  0
    3.8436   -7.2758   16.0578 C   0  0  0  0  0  0  0  0  0  0  0  0
    3.1882   -9.7190   17.2566 C   0  0  0  0  0  0  0  0  0  0  0  0
    5.3488   -6.1737   26.5092 C   0  0  0  0  0  0  0  0  0  0  0  0
    7.4567   -6.9464   27.2858 C   0  0  0  0  0  0  0  0  0  0  0  0
    0.1921   -5.7592   27.1123 C   0  0  0  0  0  0  0  0  0  0  0  0
    3.5517   -7.7407   25.9711 C   0  0  0  0  0  0  0  0  0  0  0  0
  1  4  4  0
  1 22  4  0
  2 20  4  0
  2 27  4  0
  3 12  4  0
  3 23  4  0
  4 25  4  0
  4 28  1  0
  5  8  4  0
  5 17  4  0
  6  7  4  0
  6 16  4  0
  7 18  4  0
  8 27  4  0
  9 13  4  0
  9 23  4  0
 10 11  1  0
 11 14  2  0
 11 27  1  0
 12 19  1  0
 12 24  4  0
 13 24  4  0
 15 18  1  0
 16 25  4  0
 16 26  4  0
 17 20  4  0
 17 28  1  0
 18 21  4  0
 21 26  4  0
 22 26  4  0
M  END
$$$$

 Created by Python create_sdf_string function

 28 30  0  0  0  0  0  0  0  0999 V2000
    5.7174   -8.4529   26.7190 C   0  0  0  0  0  0  0  0  0  0  0  0
    0.3974   -7.0711   27.5149 C   0  0  0  0  0  0  0  0  0  0  0  0
    2.5338   -7.6891   16.0102 C   0  0  0  0  0  0  0  0  0  0  0  0
    4.8690   -7.4380   26.4151 C   0  0  0  0  0  0  0  0  0  0  0  0
    2.3021   -5.6726   26.0378 C   0  0  0  0  0  0  0  0  0  0  0  0
    7.0880   -4.6163   27.0010 C   0  0  0  0  0  0  0  0  0  0  0  0
    8.3117   -4.3698   27.4436 C   0  0  0  0  0  0  0  0  0  0  0  0
    1.1339   -5.0515   26.3541 C   0  0  0  0  0  0  0  0  0  0  0  0
    4.8080   -8.0362   16.7101 C   0  0  0  0  0  0  0  0  0  0  0  0
   -1.2173   -3.9294   26.9717 O   0  0  0  0  0  0  0  0  0  0  0  0
   -1.0025   -5.0942   27.4586 C   0  0  0  0  0  0  0  0  0  0  0  0
    2.2474   -8.9123   16.6273 C   0  0  0  0  0  0  0  0  0  0  0  0
    4.4957   -9.2636   17.3041 C   0  0  0  0  0  0  0  0  0  0  0  0
   -1.8070   -5.6086   28.1920 O   0  0  0  0  0  0  0  0  0  0  0  0
   10.4296   -5.1799   28.3140 C   0  0  0  0  0  0  0  0  0  0  0  0
    6.6017   -5.9004   26.9187 C   0  0  0  0  0  0  0  0  0  0  0  0
    2.4761   -6.9940   26.4111 N   0  0  0  0  0  0  0  0  0  0  0  0
    9.1353   -5.4053   27.8239 C   0  0  0  0  0  0  0  0  0  0  0  0
    0.9922   -9.3232   16.5995 O   0  0  0  0  0  0  0  0  0  0  0  0
    1.5232   -7.6869   27.1182 C   0  0  0  0  0  0  0  0  0  0  0  0
    8.6878   -6.6715   27.7262 N   0  0  0  0  0  0  0  0  0  0  0  0
    6.9911   -8.2423   27.1808 C   0  0  0  0  0  0  0  0  0  0  0  0
    3.8436   -7.2758   16.0578 C   0  0  0  0  0  0  0  0  0  0  0  0
    3.1882   -9.7190   17.2566 C   0  0  0  0  0  0  0  0  0  0  0  0
    5.3488   -6.1737   26.5092 C   0  0  0  0  0  0  0  0  0  0  0  0
    7.4567   -6.9464   27.2858 C   0  0  0  0  0  0  0  0  0  0  0  0
    0.1921   -5.7592   27.1123 C   0  0  0  0  0  0  0  0  0  0  0  0
    3.5517   -7.7407   25.9711 C   0  0  0  0  0  0  0  0  0  0  0  0
  1  4  4  0
  1 22  4  0
  2 20  4  0
  2 27  4  0
  3 12  4  0
  3 23  4  0
  4 25  4  0
  4 28  1  0
  5  8  4  0
  5 17  4  0
  6  7  4  0
  6 16  4  0
  7 18  4  0
  8 27  4  0
  9 13  4  0
  9 23  4  0
 10 11  1  0
 11 14  2  0
 11 27  1  0
 12 19  1  0
 12 24  4  0
 13 24  4  0
 15 18  1  0
 16 25  4  0
 16 26  4  0
 17 20  4  0
 17 28  1  0
 18 21  4  0
 21 26  4  0
 22 26  4  0
M  END
$$$$

 Created by Python create_sdf_string function

 28 30  0  0  0  0  0  0  0  0999 V2000
    5.7174   -8.4529   26.7190 C   0  0  0  0  0  0  0  0  0  0  0  0
    0.3974   -7.0711   27.5149 C   0  0  0  0  0  0  0  0  0  0  0  0
    2.5338   -7.6891   16.0102 C   0  0  0  0  0  0  0  0  0  0  0  0
    4.8690   -7.4380   26.4151 C   0  0  0  0  0  0  0  0  0  0  0  0
    2.3021   -5.6726   26.0378 C   0  0  0  0  0  0  0  0  0  0  0  0
    7.0880   -4.6163   27.0010 C   0  0  0  0  0  0  0  0  0  0  0  0
    8.3117   -4.3698   27.4436 C   0  0  0  0  0  0  0  0  0  0  0  0
    1.1339   -5.0515   26.3541 C   0  0  0  0  0  0  0  0  0  0  0  0
    4.8080   -8.0362   16.7101 C   0  0  0  0  0  0  0  0  0  0  0  0
   -1.2173   -3.9294   26.9717 O   0  0  0  0  0  0  0  0  0  0  0  0
   -1.0025   -5.0942   27.4586 C   0  0  0  0  0  0  0  0  0  0  0  0
    2.2474   -8.9123   16.6273 C   0  0  0  0  0  0  0  0  0  0  0  0
    4.4957   -9.2636   17.3041 C   0  0  0  0  0  0  0  0  0  0  0  0
   -1.8070   -5.6086   28.1920 O   0  0  0  0  0  0  0  0  0  0  0  0
   10.4296   -5.1799   28.3140 C   0  0  0  0  0  0  0  0  0  0  0  0
    6.6017   -5.9004   26.9187 C   0  0  0  0  0  0  0  0  0  0  0  0
    2.4761   -6.9940   26.4111 N   0  0  0  0  0  0  0  0  0  0  0  0
    9.1353   -5.4053   27.8239 C   0  0  0  0  0  0  0  0  0  0  0  0
    0.9922   -9.3232   16.5995 O   0  0  0  0  0  0  0  0  0  0  0  0
    1.5232   -7.6869   27.1182 C   0  0  0  0  0  0  0  0  0  0  0  0
    8.6878   -6.6715   27.7262 N   0  0  0  0  0  0  0  0  0  0  0  0
    6.9911   -8.2423   27.1808 C   0  0  0  0  0  0  0  0  0  0  0  0
    3.8436   -7.2758   16.0578 C   0  0  0  0  0  0  0  0  0  0  0  0
    3.1882   -9.7190   17.2566 C   0  0  0  0  0  0  0  0  0  0  0  0
    5.3488   -6.1737   26.5092 C   0  0  0  0  0  0  0  0  0  0  0  0
    7.4567   -6.9464   27.2858 C   0  0  0  0  0  0  0  0  0  0  0  0
    0.1921   -5.7592   27.1123 C   0  0  0  0  0  0  0  0  0  0  0  0
    3.5517   -7.7407   25.9711 C   0  0  0  0  0  0  0  0  0  0  0  0
  1  4  4  0
  1 22  4  0
  2 20  4  0
  2 27  4  0
  3 12  4  0
  3 23  4  0
  4 25  4  0
  4 28  1  0
  5  8  4  0
  5 17  4  0
  6  7  4  0
  6 16  4  0
  7 18  4  0
  8 27  4  0
  9 13  4  0
  9 23  4  0
 10 11  1  0
 11 14  2  0
 11 27  1  0
 12 19  1  0
 12 24  4  0
 13 24  4  0
 15 18  1  0
 16 25  4  0
 16 26  4  0
 17 20  4  0
 17 28  1  0
 18 21  4  0
 21 26  4  0
 22 26  4  0
M  END
$$$$

 Created by Python create_sdf_string function

 28 30  0  0  0  0  0  0  0  0999 V2000
    5.7174   -8.4529   26.7190 C   0  0  0  0  0  0  0  0  0  0  0  0
    0.3974   -7.0711   27.5149 C   0  0  0  0  0  0  0  0  0  0  0  0
    2.5338   -7.6891   16.0102 C   0  0  0  0  0  0  0  0  0  0  0  0
    4.8690   -7.4380   26.4151 C   0  0  0  0  0  0  0  0  0  0  0  0
    2.3021   -5.6726   26.0378 C   0  0  0  0  0  0  0  0  0  0  0  0
    7.0880   -4.6163   27.0010 C   0  0  0  0  0  0  0  0  0  0  0  0
    8.3117   -4.3698   27.4436 C   0  0  0  0  0  0  0  0  0  0  0  0
    1.1339   -5.0515   26.3541 C   0  0  0  0  0  0  0  0  0  0  0  0
    4.8080   -8.0362   16.7101 C   0  0  0  0  0  0  0  0  0  0  0  0
   -1.2173   -3.9294   26.9717 O   0  0  0  0  0  0  0  0  0  0  0  0
   -1.0025   -5.0942   27.4586 C   0  0  0  0  0  0  0  0  0  0  0  0
    2.2474   -8.9123   16.6273 C   0  0  0  0  0  0  0  0  0  0  0  0
    4.4957   -9.2636   17.3041 C   0  0  0  0  0  0  0  0  0  0  0  0
   -1.8070   -5.6086   28.1920 O   0  0  0  0  0  0  0  0  0  0  0  0
   10.4296   -5.1799   28.3140 C   0  0  0  0  0  0  0  0  0  0  0  0
    6.6017   -5.9004   26.9187 C   0  0  0  0  0  0  0  0  0  0  0  0
    2.4761   -6.9940   26.4111 N   0  0  0  0  0  0  0  0  0  0  0  0
    9.1353   -5.4053   27.8239 C   0  0  0  0  0  0  0  0  0  0  0  0
    0.9922   -9.3232   16.5995 O   0  0  0  0  0  0  0  0  0  0  0  0
    1.5232   -7.6869   27.1182 C   0  0  0  0  0  0  0  0  0  0  0  0
    8.6878   -6.6715   27.7262 N   0  0  0  0  0  0  0  0  0  0  0  0
    6.9911   -8.2423   27.1808 C   0  0  0  0  0  0  0  0  0  0  0  0
    3.8436   -7.2758   16.0578 C   0  0  0  0  0  0  0  0  0  0  0  0
    3.1882   -9.7190   17.2566 C   0  0  0  0  0  0  0  0  0  0  0  0
    5.3488   -6.1737   26.5092 C   0  0  0  0  0  0  0  0  0  0  0  0
    7.4567   -6.9464   27.2858 C   0  0  0  0  0  0  0  0  0  0  0  0
    0.1921   -5.7592   27.1123 C   0  0  0  0  0  0  0  0  0  0  0  0
    3.5517   -7.7407   25.9711 C   0  0  0  0  0  0  0  0  0  0  0  0
  1  4  4  0
  1 22  4  0
  2 20  4  0
  2 27  4  0
  3 12  4  0
  3 23  4  0
  4 25  4  0
  4 28  1  0
  5  8  4  0
  5 17  4  0
  6  7  4  0
  6 16  4  0
  7 18  4  0
  8 27  4  0
  9 13  4  0
  9 23  4  0
 10 11  1  0
 11 14  2  0
 11 27  1  0
 12 19  1  0
 12 24  4  0
 13 24  4  0
 15 18  1  0
 16 25  4  0
 16 26  4  0
 17 20  4  0
 17 28  1  0
 18 21  4  0
 21 26  4  0
 22 26  4  0
M  END
$$$$

 Created by Python create_sdf_string function

 28 30  0  0  0  0  0  0  0  0999 V2000
    5.7174   -8.4529   26.7190 C   0  0  0  0  0  0  0  0  0  0  0  0
    0.3974   -7.0711   27.5149 C   0  0  0  0  0  0  0  0  0  0  0  0
    2.5338   -7.6891   16.0102 C   0  0  0  0  0  0  0  0  0  0  0  0
    4.8690   -7.4380   26.4151 C   0  0  0  0  0  0  0  0  0  0  0  0
    2.3021   -5.6726   26.0378 C   0  0  0  0  0  0  0  0  0  0  0  0
    7.0880   -4.6163   27.0010 C   0  0  0  0  0  0  0  0  0  0  0  0
    8.3117   -4.3698   27.4436 C   0  0  0  0  0  0  0  0  0  0  0  0
    1.1339   -5.0515   26.3541 C   0  0  0  0  0  0  0  0  0  0  0  0
    4.8080   -8.0362   16.7101 C   0  0  0  0  0  0  0  0  0  0  0  0
   -1.2173   -3.9294   26.9717 O   0  0  0  0  0  0  0  0  0  0  0  0
   -1.0025   -5.0942   27.4586 C   0  0  0  0  0  0  0  0  0  0  0  0
    2.2474   -8.9123   16.6273 C   0  0  0  0  0  0  0  0  0  0  0  0
    4.4957   -9.2636   17.3041 C   0  0  0  0  0  0  0  0  0  0  0  0
   -1.8070   -5.6086   28.1920 O   0  0  0  0  0  0  0  0  0  0  0  0
   10.4296   -5.1799   28.3140 C   0  0  0  0  0  0  0  0  0  0  0  0
    6.6017   -5.9004   26.9187 C   0  0  0  0  0  0  0  0  0  0  0  0
    2.4761   -6.9940   26.4111 N   0  0  0  0  0  0  0  0  0  0  0  0
    9.1353   -5.4053   27.8239 C   0  0  0  0  0  0  0  0  0  0  0  0
    0.9922   -9.3232   16.5995 O   0  0  0  0  0  0  0  0  0  0  0  0
    1.5232   -7.6869   27.1182 C   0  0  0  0  0  0  0  0  0  0  0  0
    8.6878   -6.6715   27.7262 N   0  0  0  0  0  0  0  0  0  0  0  0
    6.9911   -8.2423   27.1808 C   0  0  0  0  0  0  0  0  0  0  0  0
    3.8436   -7.2758   16.0578 C   0  0  0  0  0  0  0  0  0  0  0  0
    3.1882   -9.7190   17.2566 C   0  0  0  0  0  0  0  0  0  0  0  0
    5.3488   -6.1737   26.5092 C   0  0  0  0  0  0  0  0  0  0  0  0
    7.4567   -6.9464   27.2858 C   0  0  0  0  0  0  0  0  0  0  0  0
    0.1921   -5.7592   27.1123 C   0  0  0  0  0  0  0  0  0  0  0  0
    3.5517   -7.7407   25.9711 C   0  0  0  0  0  0  0  0  0  0  0  0
  1  4  4  0
  1 22  4  0
  2 20  4  0
  2 27  4  0
  3 12  4  0
  3 23  4  0
  4 25  4  0
  4 28  1  0
  5  8  4  0
  5 17  4  0
  6  7  4  0
  6 16  4  0
  7 18  4  0
  8 27  4  0
  9 13  4  0
  9 23  4  0
 10 11  1  0
 11 14  2  0
 11 27  1  0
 12 19  1  0
 12 24  4  0
 13 24  4  0
 15 18  1  0
 16 25  4  0
 16 26  4  0
 17 20  4  0
 17 28  1  0
 18 21  4  0
 21 26  4  0
 22 26  4  0
M  END
$$$$

 Created by Python create_sdf_string function

 28 30  0  0  0  0  0  0  0  0999 V2000
    5.7174   -8.4529   26.7190 C   0  0  0  0  0  0  0  0  0  0  0  0
    0.3974   -7.0711   27.5149 C   0  0  0  0  0  0  0  0  0  0  0  0
    2.5338   -7.6891   16.0102 C   0  0  0  0  0  0  0  0  0  0  0  0
    4.8690   -7.4380   26.4151 C   0  0  0  0  0  0  0  0  0  0  0  0
    2.3021   -5.6726   26.0378 C   0  0  0  0  0  0  0  0  0  0  0  0
    7.0880   -4.6163   27.0010 C   0  0  0  0  0  0  0  0  0  0  0  0
    8.3117   -4.3698   27.4436 C   0  0  0  0  0  0  0  0  0  0  0  0
    1.1339   -5.0515   26.3541 C   0  0  0  0  0  0  0  0  0  0  0  0
    4.8080   -8.0362   16.7101 C   0  0  0  0  0  0  0  0  0  0  0  0
   -1.2173   -3.9294   26.9717 O   0  0  0  0  0  0  0  0  0  0  0  0
   -1.0025   -5.0942   27.4586 C   0  0  0  0  0  0  0  0  0  0  0  0
    2.2474   -8.9123   16.6273 C   0  0  0  0  0  0  0  0  0  0  0  0
    4.4957   -9.2636   17.3041 C   0  0  0  0  0  0  0  0  0  0  0  0
   -1.8070   -5.6086   28.1920 O   0  0  0  0  0  0  0  0  0  0  0  0
   10.4296   -5.1799   28.3140 C   0  0  0  0  0  0  0  0  0  0  0  0
    6.6017   -5.9004   26.9187 C   0  0  0  0  0  0  0  0  0  0  0  0
    2.4761   -6.9940   26.4111 N   0  0  0  0  0  0  0  0  0  0  0  0
    9.1353   -5.4053   27.8239 C   0  0  0  0  0  0  0  0  0  0  0  0
    0.9922   -9.3232   16.5995 O   0  0  0  0  0  0  0  0  0  0  0  0
    1.5232   -7.6869   27.1182 C   0  0  0  0  0  0  0  0  0  0  0  0
    8.6878   -6.6715   27.7262 N   0  0  0  0  0  0  0  0  0  0  0  0
    6.9911   -8.2423   27.1808 C   0  0  0  0  0  0  0  0  0  0  0  0
    3.8436   -7.2758   16.0578 C   0  0  0  0  0  0  0  0  0  0  0  0
    3.1882   -9.7190   17.2566 C   0  0  0  0  0  0  0  0  0  0  0  0
    5.3488   -6.1737   26.5092 C   0  0  0  0  0  0  0  0  0  0  0  0
    7.4567   -6.9464   27.2858 C   0  0  0  0  0  0  0  0  0  0  0  0
    0.1921   -5.7592   27.1123 C   0  0  0  0  0  0  0  0  0  0  0  0
    3.5517   -7.7407   25.9711 C   0  0  0  0  0  0  0  0  0  0  0  0
  1  4  4  0
  1 22  4  0
  2 20  4  0
  2 27  4  0
  3 12  4  0
  3 23  4  0
  4 25  4  0
  4 28  1  0
  5  8  4  0
  5 17  4  0
  6  7  4  0
  6 16  4  0
  7 18  4  0
  8 27  4  0
  9 13  4  0
  9 23  4  0
 10 11  1  0
 11 14  2  0
 11 27  1  0
 12 19  1  0
 12 24  4  0
 13 24  4  0
 15 18  1  0
 16 25  4  0
 16 26  4  0
 17 20  4  0
 17 28  1  0
 18 21  4  0
 21 26  4  0
 22 26  4  0
M  END
$$$$

 Created by Python create_sdf_string function

 28 30  0  0  0  0  0  0  0  0999 V2000
    5.7174   -8.4529   26.7190 C   0  0  0  0  0  0  0  0  0  0  0  0
    0.3974   -7.0711   27.5149 C   0  0  0  0  0  0  0  0  0  0  0  0
    2.5338   -7.6891   16.0102 C   0  0  0  0  0  0  0  0  0  0  0  0
    4.8690   -7.4380   26.4151 C   0  0  0  0  0  0  0  0  0  0  0  0
    2.3021   -5.6726   26.0378 C   0  0  0  0  0  0  0  0  0  0  0  0
    7.0880   -4.6163   27.0010 C   0  0  0  0  0  0  0  0  0  0  0  0
    8.3117   -4.3698   27.4436 C   0  0  0  0  0  0  0  0  0  0  0  0
    1.1339   -5.0515   26.3541 C   0  0  0  0  0  0  0  0  0  0  0  0
    4.8080   -8.0362   16.7101 C   0  0  0  0  0  0  0  0  0  0  0  0
   -1.2173   -3.9294   26.9717 O   0  0  0  0  0  0  0  0  0  0  0  0
   -1.0025   -5.0942   27.4586 C   0  0  0  0  0  0  0  0  0  0  0  0
    2.2474   -8.9123   16.6273 C   0  0  0  0  0  0  0  0  0  0  0  0
    4.4957   -9.2636   17.3041 C   0  0  0  0  0  0  0  0  0  0  0  0
   -1.8070   -5.6086   28.1920 O   0  0  0  0  0  0  0  0  0  0  0  0
   10.4296   -5.1799   28.3140 C   0  0  0  0  0  0  0  0  0  0  0  0
    6.6017   -5.9004   26.9187 C   0  0  0  0  0  0  0  0  0  0  0  0
    2.4761   -6.9940   26.4111 N   0  0  0  0  0  0  0  0  0  0  0  0
    9.1353   -5.4053   27.8239 C   0  0  0  0  0  0  0  0  0  0  0  0
    0.9922   -9.3232   16.5995 O   0  0  0  0  0  0  0  0  0  0  0  0
    1.5232   -7.6869   27.1182 C   0  0  0  0  0  0  0  0  0  0  0  0
    8.6878   -6.6715   27.7262 N   0  0  0  0  0  0  0  0  0  0  0  0
    6.9911   -8.2423   27.1808 C   0  0  0  0  0  0  0  0  0  0  0  0
    3.8436   -7.2758   16.0578 C   0  0  0  0  0  0  0  0  0  0  0  0
    3.1882   -9.7190   17.2566 C   0  0  0  0  0  0  0  0  0  0  0  0
    5.3488   -6.1737   26.5092 C   0  0  0  0  0  0  0  0  0  0  0  0
    7.4567   -6.9464   27.2858 C   0  0  0  0  0  0  0  0  0  0  0  0
    0.1921   -5.7592   27.1123 C   0  0  0  0  0  0  0  0  0  0  0  0
    3.5517   -7.7407   25.9711 C   0  0  0  0  0  0  0  0  0  0  0  0
  1  4  4  0
  1 22  4  0
  2 20  4  0
  2 27  4  0
  3 12  4  0
  3 23  4  0
  4 25  4  0
  4 28  1  0
  5  8  4  0
  5 17  4  0
  6  7  4  0
  6 16  4  0
  7 18  4  0
  8 27  4  0
  9 13  4  0
  9 23  4  0
 10 11  1  0
 11 14  2  0
 11 27  1  0
 12 19  1  0
 12 24  4  0
 13 24  4  0
 15 18  1  0
 16 25  4  0
 16 26  4  0
 17 20  4  0
 17 28  1  0
 18 21  4  0
 21 26  4  0
 22 26  4  0
M  END
$$$$

 Created by Python create_sdf_string function

 28 30  0  0  0  0  0  0  0  0999 V2000
    5.7174   -8.4529   26.7190 C   0  0  0  0  0  0  0  0  0  0  0  0
    0.3974   -7.0711   27.5149 C   0  0  0  0  0  0  0  0  0  0  0  0
    2.5338   -7.6891   16.0102 C   0  0  0  0  0  0  0  0  0  0  0  0
    4.8690   -7.4380   26.4151 C   0  0  0  0  0  0  0  0  0  0  0  0
    2.3021   -5.6726   26.0378 C   0  0  0  0  0  0  0  0  0  0  0  0
    7.0880   -4.6163   27.0010 C   0  0  0  0  0  0  0  0  0  0  0  0
    8.3117   -4.3698   27.4436 C   0  0  0  0  0  0  0  0  0  0  0  0
    1.1339   -5.0515   26.3541 C   0  0  0  0  0  0  0  0  0  0  0  0
    4.8080   -8.0362   16.7101 C   0  0  0  0  0  0  0  0  0  0  0  0
   -1.2173   -3.9294   26.9717 O   0  0  0  0  0  0  0  0  0  0  0  0
   -1.0025   -5.0942   27.4586 C   0  0  0  0  0  0  0  0  0  0  0  0
    2.2474   -8.9123   16.6273 C   0  0  0  0  0  0  0  0  0  0  0  0
    4.4957   -9.2636   17.3041 C   0  0  0  0  0  0  0  0  0  0  0  0
   -1.8070   -5.6086   28.1920 O   0  0  0  0  0  0  0  0  0  0  0  0
   10.4296   -5.1799   28.3140 C   0  0  0  0  0  0  0  0  0  0  0  0
    6.6017   -5.9004   26.9187 C   0  0  0  0  0  0  0  0  0  0  0  0
    2.4761   -6.9940   26.4111 N   0  0  0  0  0  0  0  0  0  0  0  0
    9.1353   -5.4053   27.8239 C   0  0  0  0  0  0  0  0  0  0  0  0
    0.9922   -9.3232   16.5995 O   0  0  0  0  0  0  0  0  0  0  0  0
    1.5232   -7.6869   27.1182 C   0  0  0  0  0  0  0  0  0  0  0  0
    8.6878   -6.6715   27.7262 N   0  0  0  0  0  0  0  0  0  0  0  0
    6.9911   -8.2423   27.1808 C   0  0  0  0  0  0  0  0  0  0  0  0
    3.8436   -7.2758   16.0578 C   0  0  0  0  0  0  0  0  0  0  0  0
    3.1882   -9.7190   17.2566 C   0  0  0  0  0  0  0  0  0  0  0  0
    5.3488   -6.1737   26.5092 C   0  0  0  0  0  0  0  0  0  0  0  0
    7.4567   -6.9464   27.2858 C   0  0  0  0  0  0  0  0  0  0  0  0
    0.1921   -5.7592   27.1123 C   0  0  0  0  0  0  0  0  0  0  0  0
    3.5517   -7.7407   25.9711 C   0  0  0  0  0  0  0  0  0  0  0  0
  1  4  4  0
  1 22  4  0
  2 20  4  0
  2 27  4  0
  3 12  4  0
  3 23  4  0
  4 25  4  0
  4 28  1  0
  5  8  4  0
  5 17  4  0
  6  7  4  0
  6 16  4  0
  7 18  4  0
  8 27  4  0
  9 13  4  0
  9 23  4  0
 10 11  1  0
 11 14  2  0
 11 27  1  0
 12 19  1  0
 12 24  4  0
 13 24  4  0
 15 18  1  0
 16 25  4  0
 16 26  4  0
 17 20  4  0
 17 28  1  0
 18 21  4  0
 21 26  4  0
 22 26  4  0
M  END
$$$$

 Created by Python create_sdf_string function

 28 30  0  0  0  0  0  0  0  0999 V2000
    5.7174   -8.4529   26.7190 C   0  0  0  0  0  0  0  0  0  0  0  0
    0.3974   -7.0711   27.5149 C   0  0  0  0  0  0  0  0  0  0  0  0
    2.5338   -7.6891   16.0102 C   0  0  0  0  0  0  0  0  0  0  0  0
    4.8690   -7.4380   26.4151 C   0  0  0  0  0  0  0  0  0  0  0  0
    2.3021   -5.6726   26.0378 C   0  0  0  0  0  0  0  0  0  0  0  0
    7.0880   -4.6163   27.0010 C   0  0  0  0  0  0  0  0  0  0  0  0
    8.3117   -4.3698   27.4436 C   0  0  0  0  0  0  0  0  0  0  0  0
    1.1339   -5.0515   26.3541 C   0  0  0  0  0  0  0  0  0  0  0  0
    4.8080   -8.0362   16.7101 C   0  0  0  0  0  0  0  0  0  0  0  0
   -1.2173   -3.9294   26.9717 O   0  0  0  0  0  0  0  0  0  0  0  0
   -1.0025   -5.0942   27.4586 C   0  0  0  0  0  0  0  0  0  0  0  0
    2.2474   -8.9123   16.6273 C   0  0  0  0  0  0  0  0  0  0  0  0
    4.4957   -9.2636   17.3041 C   0  0  0  0  0  0  0  0  0  0  0  0
   -1.8070   -5.6086   28.1920 O   0  0  0  0  0  0  0  0  0  0  0  0
   10.4296   -5.1799   28.3140 C   0  0  0  0  0  0  0  0  0  0  0  0
    6.6017   -5.9004   26.9187 C   0  0  0  0  0  0  0  0  0  0  0  0
    2.4761   -6.9940   26.4111 N   0  0  0  0  0  0  0  0  0  0  0  0
    9.1353   -5.4053   27.8239 C   0  0  0  0  0  0  0  0  0  0  0  0
    0.9922   -9.3232   16.5995 O   0  0  0  0  0  0  0  0  0  0  0  0
    1.5232   -7.6869   27.1182 C   0  0  0  0  0  0  0  0  0  0  0  0
    8.6878   -6.6715   27.7262 N   0  0  0  0  0  0  0  0  0  0  0  0
    6.9911   -8.2423   27.1808 C   0  0  0  0  0  0  0  0  0  0  0  0
    3.8436   -7.2758   16.0578 C   0  0  0  0  0  0  0  0  0  0  0  0
    3.1882   -9.7190   17.2566 C   0  0  0  0  0  0  0  0  0  0  0  0
    5.3488   -6.1737   26.5092 C   0  0  0  0  0  0  0  0  0  0  0  0
    7.4567   -6.9464   27.2858 C   0  0  0  0  0  0  0  0  0  0  0  0
    0.1921   -5.7592   27.1123 C   0  0  0  0  0  0  0  0  0  0  0  0
    3.5517   -7.7407   25.9711 C   0  0  0  0  0  0  0  0  0  0  0  0
  1  4  4  0
  1 22  4  0
  2 20  4  0
  2 27  4  0
  3 12  4  0
  3 23  4  0
  4 25  4  0
  4 28  1  0
  5  8  4  0
  5 17  4  0
  6  7  4  0
  6 16  4  0
  7 18  4  0
  8 27  4  0
  9 13  4  0
  9 23  4  0
 10 11  1  0
 11 14  2  0
 11 27  1  0
 12 19  1  0
 12 24  4  0
 13 24  4  0
 15 18  1  0
 16 25  4  0
 16 26  4  0
 17 20  4  0
 17 28  1  0
 18 21  4  0
 21 26  4  0
 22 26  4  0
M  END
$$$$

 Created by Python create_sdf_string function

 28 30  0  0  0  0  0  0  0  0999 V2000
    5.7174   -8.4529   26.7190 C   0  0  0  0  0  0  0  0  0  0  0  0
    0.3974   -7.0711   27.5149 C   0  0  0  0  0  0  0  0  0  0  0  0
    2.5338   -7.6891   16.0102 C   0  0  0  0  0  0  0  0  0  0  0  0
    4.8690   -7.4380   26.4151 C   0  0  0  0  0  0  0  0  0  0  0  0
    2.3021   -5.6726   26.0378 C   0  0  0  0  0  0  0  0  0  0  0  0
    7.0880   -4.6163   27.0010 C   0  0  0  0  0  0  0  0  0  0  0  0
    8.3117   -4.3698   27.4436 C   0  0  0  0  0  0  0  0  0  0  0  0
    1.1339   -5.0515   26.3541 C   0  0  0  0  0  0  0  0  0  0  0  0
    4.8080   -8.0362   16.7101 C   0  0  0  0  0  0  0  0  0  0  0  0
   -1.2173   -3.9294   26.9717 O   0  0  0  0  0  0  0  0  0  0  0  0
   -1.0025   -5.0942   27.4586 C   0  0  0  0  0  0  0  0  0  0  0  0
    2.2474   -8.9123   16.6273 C   0  0  0  0  0  0  0  0  0  0  0  0
    4.4957   -9.2636   17.3041 C   0  0  0  0  0  0  0  0  0  0  0  0
   -1.8070   -5.6086   28.1920 O   0  0  0  0  0  0  0  0  0  0  0  0
   10.4296   -5.1799   28.3140 C   0  0  0  0  0  0  0  0  0  0  0  0
    6.6017   -5.9004   26.9187 C   0  0  0  0  0  0  0  0  0  0  0  0
    2.4761   -6.9940   26.4111 N   0  0  0  0  0  0  0  0  0  0  0  0
    9.1353   -5.4053   27.8239 C   0  0  0  0  0  0  0  0  0  0  0  0
    0.9922   -9.3232   16.5995 O   0  0  0  0  0  0  0  0  0  0  0  0
    1.5232   -7.6869   27.1182 C   0  0  0  0  0  0  0  0  0  0  0  0
    8.6878   -6.6715   27.7262 N   0  0  0  0  0  0  0  0  0  0  0  0
    6.9911   -8.2423   27.1808 C   0  0  0  0  0  0  0  0  0  0  0  0
    3.8436   -7.2758   16.0578 C   0  0  0  0  0  0  0  0  0  0  0  0
    3.1882   -9.7190   17.2566 C   0  0  0  0  0  0  0  0  0  0  0  0
    5.3488   -6.1737   26.5092 C   0  0  0  0  0  0  0  0  0  0  0  0
    7.4567   -6.9464   27.2858 C   0  0  0  0  0  0  0  0  0  0  0  0
    0.1921   -5.7592   27.1123 C   0  0  0  0  0  0  0  0  0  0  0  0
    3.5517   -7.7407   25.9711 C   0  0  0  0  0  0  0  0  0  0  0  0
  1  4  4  0
  1 22  4  0
  2 20  4  0
  2 27  4  0
  3 12  4  0
  3 23  4  0
  4 25  4  0
  4 28  1  0
  5  8  4  0
  5 17  4  0
  6  7  4  0
  6 16  4  0
  7 18  4  0
  8 27  4  0
  9 13  4  0
  9 23  4  0
 10 11  1  0
 11 14  2  0
 11 27  1  0
 12 19  1  0
 12 24  4  0
 13 24  4  0
 15 18  1  0
 16 25  4  0
 16 26  4  0
 17 20  4  0
 17 28  1  0
 18 21  4  0
 21 26  4  0
 22 26  4  0
M  END
$$$$

 Created by Python create_sdf_string function

 28 30  0  0  0  0  0  0  0  0999 V2000
    5.7174   -8.4529   26.7190 C   0  0  0  0  0  0  0  0  0  0  0  0
    0.3974   -7.0711   27.5149 C   0  0  0  0  0  0  0  0  0  0  0  0
    2.5338   -7.6891   16.0102 C   0  0  0  0  0  0  0  0  0  0  0  0
    4.8690   -7.4380   26.4151 C   0  0  0  0  0  0  0  0  0  0  0  0
    2.3021   -5.6726   26.0378 C   0  0  0  0  0  0  0  0  0  0  0  0
    7.0880   -4.6163   27.0010 C   0  0  0  0  0  0  0  0  0  0  0  0
    8.3117   -4.3698   27.4436 C   0  0  0  0  0  0  0  0  0  0  0  0
    1.1339   -5.0515   26.3541 C   0  0  0  0  0  0  0  0  0  0  0  0
    4.8080   -8.0362   16.7101 C   0  0  0  0  0  0  0  0  0  0  0  0
   -1.2173   -3.9294   26.9717 O   0  0  0  0  0  0  0  0  0  0  0  0
   -1.0025   -5.0942   27.4586 C   0  0  0  0  0  0  0  0  0  0  0  0
    2.2474   -8.9123   16.6273 C   0  0  0  0  0  0  0  0  0  0  0  0
    4.4957   -9.2636   17.3041 C   0  0  0  0  0  0  0  0  0  0  0  0
   -1.8070   -5.6086   28.1920 O   0  0  0  0  0  0  0  0  0  0  0  0
   10.4296   -5.1799   28.3140 C   0  0  0  0  0  0  0  0  0  0  0  0
    6.6017   -5.9004   26.9187 C   0  0  0  0  0  0  0  0  0  0  0  0
    2.4761   -6.9940   26.4111 N   0  0  0  0  0  0  0  0  0  0  0  0
    9.1353   -5.4053   27.8239 C   0  0  0  0  0  0  0  0  0  0  0  0
    0.9922   -9.3232   16.5995 O   0  0  0  0  0  0  0  0  0  0  0  0
    1.5232   -7.6869   27.1182 C   0  0  0  0  0  0  0  0  0  0  0  0
    8.6878   -6.6715   27.7262 N   0  0  0  0  0  0  0  0  0  0  0  0
    6.9911   -8.2423   27.1808 C   0  0  0  0  0  0  0  0  0  0  0  0
    3.8436   -7.2758   16.0578 C   0  0  0  0  0  0  0  0  0  0  0  0
    3.1882   -9.7190   17.2566 C   0  0  0  0  0  0  0  0  0  0  0  0
    5.3488   -6.1737   26.5092 C   0  0  0  0  0  0  0  0  0  0  0  0
    7.4567   -6.9464   27.2858 C   0  0  0  0  0  0  0  0  0  0  0  0
    0.1921   -5.7592   27.1123 C   0  0  0  0  0  0  0  0  0  0  0  0
    3.5517   -7.7407   25.9711 C   0  0  0  0  0  0  0  0  0  0  0  0
  1  4  4  0
  1 22  4  0
  2 20  4  0
  2 27  4  0
  3 12  4  0
  3 23  4  0
  4 25  4  0
  4 28  1  0
  5  8  4  0
  5 17  4  0
  6  7  4  0
  6 16  4  0
  7 18  4  0
  8 27  4  0
  9 13  4  0
  9 23  4  0
 10 11  1  0
 11 14  2  0
 11 27  1  0
 12 19  1  0
 12 24  4  0
 13 24  4  0
 15 18  1  0
 16 25  4  0
 16 26  4  0
 17 20  4  0
 17 28  1  0
 18 21  4  0
 21 26  4  0
 22 26  4  0
M  END
$$$$

 Created by Python create_sdf_string function

 28 30  0  0  0  0  0  0  0  0999 V2000
    5.7174   -8.4529   26.7190 C   0  0  0  0  0  0  0  0  0  0  0  0
    0.3974   -7.0711   27.5149 C   0  0  0  0  0  0  0  0  0  0  0  0
    2.5338   -7.6891   16.0102 C   0  0  0  0  0  0  0  0  0  0  0  0
    4.8690   -7.4380   26.4151 C   0  0  0  0  0  0  0  0  0  0  0  0
    2.3021   -5.6726   26.0378 C   0  0  0  0  0  0  0  0  0  0  0  0
    7.0880   -4.6163   27.0010 C   0  0  0  0  0  0  0  0  0  0  0  0
    8.3117   -4.3698   27.4436 C   0  0  0  0  0  0  0  0  0  0  0  0
    1.1339   -5.0515   26.3541 C   0  0  0  0  0  0  0  0  0  0  0  0
    4.8080   -8.0362   16.7101 C   0  0  0  0  0  0  0  0  0  0  0  0
   -1.2173   -3.9294   26.9717 O   0  0  0  0  0  0  0  0  0  0  0  0
   -1.0025   -5.0942   27.4586 C   0  0  0  0  0  0  0  0  0  0  0  0
    2.2474   -8.9123   16.6273 C   0  0  0  0  0  0  0  0  0  0  0  0
    4.4957   -9.2636   17.3041 C   0  0  0  0  0  0  0  0  0  0  0  0
   -1.8070   -5.6086   28.1920 O   0  0  0  0  0  0  0  0  0  0  0  0
   10.4296   -5.1799   28.3140 C   0  0  0  0  0  0  0  0  0  0  0  0
    6.6017   -5.9004   26.9187 C   0  0  0  0  0  0  0  0  0  0  0  0
    2.4761   -6.9940   26.4111 N   0  0  0  0  0  0  0  0  0  0  0  0
    9.1353   -5.4053   27.8239 C   0  0  0  0  0  0  0  0  0  0  0  0
    0.9922   -9.3232   16.5995 O   0  0  0  0  0  0  0  0  0  0  0  0
    1.5232   -7.6869   27.1182 C   0  0  0  0  0  0  0  0  0  0  0  0
    8.6878   -6.6715   27.7262 N   0  0  0  0  0  0  0  0  0  0  0  0
    6.9911   -8.2423   27.1808 C   0  0  0  0  0  0  0  0  0  0  0  0
    3.8436   -7.2758   16.0578 C   0  0  0  0  0  0  0  0  0  0  0  0
    3.1882   -9.7190   17.2566 C   0  0  0  0  0  0  0  0  0  0  0  0
    5.3488   -6.1737   26.5092 C   0  0  0  0  0  0  0  0  0  0  0  0
    7.4567   -6.9464   27.2858 C   0  0  0  0  0  0  0  0  0  0  0  0
    0.1921   -5.7592   27.1123 C   0  0  0  0  0  0  0  0  0  0  0  0
    3.5517   -7.7407   25.9711 C   0  0  0  0  0  0  0  0  0  0  0  0
  1  4  4  0
  1 22  4  0
  2 20  4  0
  2 27  4  0
  3 12  4  0
  3 23  4  0
  4 25  4  0
  4 28  1  0
  5  8  4  0
  5 17  4  0
  6  7  4  0
  6 16  4  0
  7 18  4  0
  8 27  4  0
  9 13  4  0
  9 23  4  0
 10 11  1  0
 11 14  2  0
 11 27  1  0
 12 19  1  0
 12 24  4  0
 13 24  4  0
 15 18  1  0
 16 25  4  0
 16 26  4  0
 17 20  4  0
 17 28  1  0
 18 21  4  0
 21 26  4  0
 22 26  4  0
M  END
$$$$

 Created by Python create_sdf_string function

 28 30  0  0  0  0  0  0  0  0999 V2000
    5.7174   -8.4529   26.7190 C   0  0  0  0  0  0  0  0  0  0  0  0
    0.3974   -7.0711   27.5149 C   0  0  0  0  0  0  0  0  0  0  0  0
    2.5338   -7.6891   16.0102 C   0  0  0  0  0  0  0  0  0  0  0  0
    4.8690   -7.4380   26.4151 C   0  0  0  0  0  0  0  0  0  0  0  0
    2.3021   -5.6726   26.0378 C   0  0  0  0  0  0  0  0  0  0  0  0
    7.0880   -4.6163   27.0010 C   0  0  0  0  0  0  0  0  0  0  0  0
    8.3117   -4.3698   27.4436 C   0  0  0  0  0  0  0  0  0  0  0  0
    1.1339   -5.0515   26.3541 C   0  0  0  0  0  0  0  0  0  0  0  0
    4.8080   -8.0362   16.7101 C   0  0  0  0  0  0  0  0  0  0  0  0
   -1.2173   -3.9294   26.9717 O   0  0  0  0  0  0  0  0  0  0  0  0
   -1.0025   -5.0942   27.4586 C   0  0  0  0  0  0  0  0  0  0  0  0
    2.2474   -8.9123   16.6273 C   0  0  0  0  0  0  0  0  0  0  0  0
    4.4957   -9.2636   17.3041 C   0  0  0  0  0  0  0  0  0  0  0  0
   -1.8070   -5.6086   28.1920 O   0  0  0  0  0  0  0  0  0  0  0  0
   10.4296   -5.1799   28.3140 C   0  0  0  0  0  0  0  0  0  0  0  0
    6.6017   -5.9004   26.9187 C   0  0  0  0  0  0  0  0  0  0  0  0
    2.4761   -6.9940   26.4111 N   0  0  0  0  0  0  0  0  0  0  0  0
    9.1353   -5.4053   27.8239 C   0  0  0  0  0  0  0  0  0  0  0  0
    0.9922   -9.3232   16.5995 O   0  0  0  0  0  0  0  0  0  0  0  0
    1.5232   -7.6869   27.1182 C   0  0  0  0  0  0  0  0  0  0  0  0
    8.6878   -6.6715   27.7262 N   0  0  0  0  0  0  0  0  0  0  0  0
    6.9911   -8.2423   27.1808 C   0  0  0  0  0  0  0  0  0  0  0  0
    3.8436   -7.2758   16.0578 C   0  0  0  0  0  0  0  0  0  0  0  0
    3.1882   -9.7190   17.2566 C   0  0  0  0  0  0  0  0  0  0  0  0
    5.3488   -6.1737   26.5092 C   0  0  0  0  0  0  0  0  0  0  0  0
    7.4567   -6.9464   27.2858 C   0  0  0  0  0  0  0  0  0  0  0  0
    0.1921   -5.7592   27.1123 C   0  0  0  0  0  0  0  0  0  0  0  0
    3.5517   -7.7407   25.9711 C   0  0  0  0  0  0  0  0  0  0  0  0
  1  4  4  0
  1 22  4  0
  2 20  4  0
  2 27  4  0
  3 12  4  0
  3 23  4  0
  4 25  4  0
  4 28  1  0
  5  8  4  0
  5 17  4  0
  6  7  4  0
  6 16  4  0
  7 18  4  0
  8 27  4  0
  9 13  4  0
  9 23  4  0
 10 11  1  0
 11 14  2  0
 11 27  1  0
 12 19  1  0
 12 24  4  0
 13 24  4  0
 15 18  1  0
 16 25  4  0
 16 26  4  0
 17 20  4  0
 17 28  1  0
 18 21  4  0
 21 26  4  0
 22 26  4  0
M  END
$$$$

 Created by Python create_sdf_string function

 28 30  0  0  0  0  0  0  0  0999 V2000
    5.7174   -8.4529   26.7190 C   0  0  0  0  0  0  0  0  0  0  0  0
    0.3974   -7.0711   27.5149 C   0  0  0  0  0  0  0  0  0  0  0  0
    2.5338   -7.6891   16.0102 C   0  0  0  0  0  0  0  0  0  0  0  0
    4.8690   -7.4380   26.4151 C   0  0  0  0  0  0  0  0  0  0  0  0
    2.3021   -5.6726   26.0378 C   0  0  0  0  0  0  0  0  0  0  0  0
    7.0880   -4.6163   27.0010 C   0  0  0  0  0  0  0  0  0  0  0  0
    8.3117   -4.3698   27.4436 C   0  0  0  0  0  0  0  0  0  0  0  0
    1.1339   -5.0515   26.3541 C   0  0  0  0  0  0  0  0  0  0  0  0
    4.8080   -8.0362   16.7101 C   0  0  0  0  0  0  0  0  0  0  0  0
   -1.2173   -3.9294   26.9717 O   0  0  0  0  0  0  0  0  0  0  0  0
   -1.0025   -5.0942   27.4586 C   0  0  0  0  0  0  0  0  0  0  0  0
    2.2474   -8.9123   16.6273 C   0  0  0  0  0  0  0  0  0  0  0  0
    4.4957   -9.2636   17.3041 C   0  0  0  0  0  0  0  0  0  0  0  0
   -1.8070   -5.6086   28.1920 O   0  0  0  0  0  0  0  0  0  0  0  0
   10.4296   -5.1799   28.3140 C   0  0  0  0  0  0  0  0  0  0  0  0
    6.6017   -5.9004   26.9187 C   0  0  0  0  0  0  0  0  0  0  0  0
    2.4761   -6.9940   26.4111 N   0  0  0  0  0  0  0  0  0  0  0  0
    9.1353   -5.4053   27.8239 C   0  0  0  0  0  0  0  0  0  0  0  0
    0.9922   -9.3232   16.5995 O   0  0  0  0  0  0  0  0  0  0  0  0
    1.5232   -7.6869   27.1182 C   0  0  0  0  0  0  0  0  0  0  0  0
    8.6878   -6.6715   27.7262 N   0  0  0  0  0  0  0  0  0  0  0  0
    6.9911   -8.2423   27.1808 C   0  0  0  0  0  0  0  0  0  0  0  0
    3.8436   -7.2758   16.0578 C   0  0  0  0  0  0  0  0  0  0  0  0
    3.1882   -9.7190   17.2566 C   0  0  0  0  0  0  0  0  0  0  0  0
    5.3488   -6.1737   26.5092 C   0  0  0  0  0  0  0  0  0  0  0  0
    7.4567   -6.9464   27.2858 C   0  0  0  0  0  0  0  0  0  0  0  0
    0.1921   -5.7592   27.1123 C   0  0  0  0  0  0  0  0  0  0  0  0
    3.5517   -7.7407   25.9711 C   0  0  0  0  0  0  0  0  0  0  0  0
  1  4  4  0
  1 22  4  0
  2 20  4  0
  2 27  4  0
  3 12  4  0
  3 23  4  0
  4 25  4  0
  4 28  1  0
  5  8  4  0
  5 17  4  0
  6  7  4  0
  6 16  4  0
  7 18  4  0
  8 27  4  0
  9 13  4  0
  9 23  4  0
 10 11  1  0
 11 14  2  0
 11 27  1  0
 12 19  1  0
 12 24  4  0
 13 24  4  0
 15 18  1  0
 16 25  4  0
 16 26  4  0
 17 20  4  0
 17 28  1  0
 18 21  4  0
 21 26  4  0
 22 26  4  0
M  END
$$$$

 Created by Python create_sdf_string function

 28 30  0  0  0  0  0  0  0  0999 V2000
    5.7174   -8.4529   26.7190 C   0  0  0  0  0  0  0  0  0  0  0  0
    0.3974   -7.0711   27.5149 C   0  0  0  0  0  0  0  0  0  0  0  0
    2.5338   -7.6891   16.0102 C   0  0  0  0  0  0  0  0  0  0  0  0
    4.8690   -7.4380   26.4151 C   0  0  0  0  0  0  0  0  0  0  0  0
    2.3021   -5.6726   26.0378 C   0  0  0  0  0  0  0  0  0  0  0  0
    7.0880   -4.6163   27.0010 C   0  0  0  0  0  0  0  0  0  0  0  0
    8.3117   -4.3698   27.4436 C   0  0  0  0  0  0  0  0  0  0  0  0
    1.1339   -5.0515   26.3541 C   0  0  0  0  0  0  0  0  0  0  0  0
    4.8080   -8.0362   16.7101 C   0  0  0  0  0  0  0  0  0  0  0  0
   -1.2173   -3.9294   26.9717 O   0  0  0  0  0  0  0  0  0  0  0  0
   -1.0025   -5.0942   27.4586 C   0  0  0  0  0  0  0  0  0  0  0  0
    2.2474   -8.9123   16.6273 C   0  0  0  0  0  0  0  0  0  0  0  0
    4.4957   -9.2636   17.3041 C   0  0  0  0  0  0  0  0  0  0  0  0
   -1.8070   -5.6086   28.1920 O   0  0  0  0  0  0  0  0  0  0  0  0
   10.4296   -5.1799   28.3140 C   0  0  0  0  0  0  0  0  0  0  0  0
    6.6017   -5.9004   26.9187 C   0  0  0  0  0  0  0  0  0  0  0  0
    2.4761   -6.9940   26.4111 N   0  0  0  0  0  0  0  0  0  0  0  0
    9.1353   -5.4053   27.8239 C   0  0  0  0  0  0  0  0  0  0  0  0
    0.9922   -9.3232   16.5995 O   0  0  0  0  0  0  0  0  0  0  0  0
    1.5232   -7.6869   27.1182 C   0  0  0  0  0  0  0  0  0  0  0  0
    8.6878   -6.6715   27.7262 N   0  0  0  0  0  0  0  0  0  0  0  0
    6.9911   -8.2423   27.1808 C   0  0  0  0  0  0  0  0  0  0  0  0
    3.8436   -7.2758   16.0578 C   0  0  0  0  0  0  0  0  0  0  0  0
    3.1882   -9.7190   17.2566 C   0  0  0  0  0  0  0  0  0  0  0  0
    5.3488   -6.1737   26.5092 C   0  0  0  0  0  0  0  0  0  0  0  0
    7.4567   -6.9464   27.2858 C   0  0  0  0  0  0  0  0  0  0  0  0
    0.1921   -5.7592   27.1123 C   0  0  0  0  0  0  0  0  0  0  0  0
    3.5517   -7.7407   25.9711 C   0  0  0  0  0  0  0  0  0  0  0  0
  1  4  4  0
  1 22  4  0
  2 20  4  0
  2 27  4  0
  3 12  4  0
  3 23  4  0
  4 25  4  0
  4 28  1  0
  5  8  4  0
  5 17  4  0
  6  7  4  0
  6 16  4  0
  7 18  4  0
  8 27  4  0
  9 13  4  0
  9 23  4  0
 10 11  1  0
 11 14  2  0
 11 27  1  0
 12 19  1  0
 12 24  4  0
 13 24  4  0
 15 18  1  0
 16 25  4  0
 16 26  4  0
 17 20  4  0
 17 28  1  0
 18 21  4  0
 21 26  4  0
 22 26  4  0
M  END
$$$$

 Created by Python create_sdf_string function

 28 30  0  0  0  0  0  0  0  0999 V2000
    5.7174   -8.4529   26.7190 C   0  0  0  0  0  0  0  0  0  0  0  0
    0.3974   -7.0711   27.5149 C   0  0  0  0  0  0  0  0  0  0  0  0
    2.5338   -7.6891   16.0102 C   0  0  0  0  0  0  0  0  0  0  0  0
    4.8690   -7.4380   26.4151 C   0  0  0  0  0  0  0  0  0  0  0  0
    2.3021   -5.6726   26.0378 C   0  0  0  0  0  0  0  0  0  0  0  0
    7.0880   -4.6163   27.0010 C   0  0  0  0  0  0  0  0  0  0  0  0
    8.3117   -4.3698   27.4436 C   0  0  0  0  0  0  0  0  0  0  0  0
    1.1339   -5.0515   26.3541 C   0  0  0  0  0  0  0  0  0  0  0  0
    4.8080   -8.0362   16.7101 C   0  0  0  0  0  0  0  0  0  0  0  0
   -1.2173   -3.9294   26.9717 O   0  0  0  0  0  0  0  0  0  0  0  0
   -1.0025   -5.0942   27.4586 C   0  0  0  0  0  0  0  0  0  0  0  0
    2.2474   -8.9123   16.6273 C   0  0  0  0  0  0  0  0  0  0  0  0
    4.4957   -9.2636   17.3041 C   0  0  0  0  0  0  0  0  0  0  0  0
   -1.8070   -5.6086   28.1920 O   0  0  0  0  0  0  0  0  0  0  0  0
   10.4296   -5.1799   28.3140 C   0  0  0  0  0  0  0  0  0  0  0  0
    6.6017   -5.9004   26.9187 C   0  0  0  0  0  0  0  0  0  0  0  0
    2.4761   -6.9940   26.4111 N   0  0  0  0  0  0  0  0  0  0  0  0
    9.1353   -5.4053   27.8239 C   0  0  0  0  0  0  0  0  0  0  0  0
    0.9922   -9.3232   16.5995 O   0  0  0  0  0  0  0  0  0  0  0  0
    1.5232   -7.6869   27.1182 C   0  0  0  0  0  0  0  0  0  0  0  0
    8.6878   -6.6715   27.7262 N   0  0  0  0  0  0  0  0  0  0  0  0
    6.9911   -8.2423   27.1808 C   0  0  0  0  0  0  0  0  0  0  0  0
    3.8436   -7.2758   16.0578 C   0  0  0  0  0  0  0  0  0  0  0  0
    3.1882   -9.7190   17.2566 C   0  0  0  0  0  0  0  0  0  0  0  0
    5.3488   -6.1737   26.5092 C   0  0  0  0  0  0  0  0  0  0  0  0
    7.4567   -6.9464   27.2858 C   0  0  0  0  0  0  0  0  0  0  0  0
    0.1921   -5.7592   27.1123 C   0  0  0  0  0  0  0  0  0  0  0  0
    3.5517   -7.7407   25.9711 C   0  0  0  0  0  0  0  0  0  0  0  0
  1  4  4  0
  1 22  4  0
  2 20  4  0
  2 27  4  0
  3 12  4  0
  3 23  4  0
  4 25  4  0
  4 28  1  0
  5  8  4  0
  5 17  4  0
  6  7  4  0
  6 16  4  0
  7 18  4  0
  8 27  4  0
  9 13  4  0
  9 23  4  0
 10 11  1  0
 11 14  2  0
 11 27  1  0
 12 19  1  0
 12 24  4  0
 13 24  4  0
 15 18  1  0
 16 25  4  0
 16 26  4  0
 17 20  4  0
 17 28  1  0
 18 21  4  0
 21 26  4  0
 22 26  4  0
M  END
$$$$

 Created by Python create_sdf_string function

 28 30  0  0  0  0  0  0  0  0999 V2000
    5.7174   -8.4529   26.7190 C   0  0  0  0  0  0  0  0  0  0  0  0
    0.3974   -7.0711   27.5149 C   0  0  0  0  0  0  0  0  0  0  0  0
    2.5338   -7.6891   16.0102 C   0  0  0  0  0  0  0  0  0  0  0  0
    4.8690   -7.4380   26.4151 C   0  0  0  0  0  0  0  0  0  0  0  0
    2.3021   -5.6726   26.0378 C   0  0  0  0  0  0  0  0  0  0  0  0
    7.0880   -4.6163   27.0010 C   0  0  0  0  0  0  0  0  0  0  0  0
    8.3117   -4.3698   27.4436 C   0  0  0  0  0  0  0  0  0  0  0  0
    1.1339   -5.0515   26.3541 C   0  0  0  0  0  0  0  0  0  0  0  0
    4.8080   -8.0362   16.7101 C   0  0  0  0  0  0  0  0  0  0  0  0
   -1.2173   -3.9294   26.9717 O   0  0  0  0  0  0  0  0  0  0  0  0
   -1.0025   -5.0942   27.4586 C   0  0  0  0  0  0  0  0  0  0  0  0
    2.2474   -8.9123   16.6273 C   0  0  0  0  0  0  0  0  0  0  0  0
    4.4957   -9.2636   17.3041 C   0  0  0  0  0  0  0  0  0  0  0  0
   -1.8070   -5.6086   28.1920 O   0  0  0  0  0  0  0  0  0  0  0  0
   10.4296   -5.1799   28.3140 C   0  0  0  0  0  0  0  0  0  0  0  0
    6.6017   -5.9004   26.9187 C   0  0  0  0  0  0  0  0  0  0  0  0
    2.4761   -6.9940   26.4111 N   0  0  0  0  0  0  0  0  0  0  0  0
    9.1353   -5.4053   27.8239 C   0  0  0  0  0  0  0  0  0  0  0  0
    0.9922   -9.3232   16.5995 O   0  0  0  0  0  0  0  0  0  0  0  0
    1.5232   -7.6869   27.1182 C   0  0  0  0  0  0  0  0  0  0  0  0
    8.6878   -6.6715   27.7262 N   0  0  0  0  0  0  0  0  0  0  0  0
    6.9911   -8.2423   27.1808 C   0  0  0  0  0  0  0  0  0  0  0  0
    3.8436   -7.2758   16.0578 C   0  0  0  0  0  0  0  0  0  0  0  0
    3.1882   -9.7190   17.2566 C   0  0  0  0  0  0  0  0  0  0  0  0
    5.3488   -6.1737   26.5092 C   0  0  0  0  0  0  0  0  0  0  0  0
    7.4567   -6.9464   27.2858 C   0  0  0  0  0  0  0  0  0  0  0  0
    0.1921   -5.7592   27.1123 C   0  0  0  0  0  0  0  0  0  0  0  0
    3.5517   -7.7407   25.9711 C   0  0  0  0  0  0  0  0  0  0  0  0
  1  4  4  0
  1 22  4  0
  2 20  4  0
  2 27  4  0
  3 12  4  0
  3 23  4  0
  4 25  4  0
  4 28  1  0
  5  8  4  0
  5 17  4  0
  6  7  4  0
  6 16  4  0
  7 18  4  0
  8 27  4  0
  9 13  4  0
  9 23  4  0
 10 11  1  0
 11 14  2  0
 11 27  1  0
 12 19  1  0
 12 24  4  0
 13 24  4  0
 15 18  1  0
 16 25  4  0
 16 26  4  0
 17 20  4  0
 17 28  1  0
 18 21  4  0
 21 26  4  0
 22 26  4  0
M  END
$$$$

 Created by Python create_sdf_string function

 28 30  0  0  0  0  0  0  0  0999 V2000
    5.7174   -8.4529   26.7190 C   0  0  0  0  0  0  0  0  0  0  0  0
    0.3974   -7.0711   27.5149 C   0  0  0  0  0  0  0  0  0  0  0  0
    2.5338   -7.6891   16.0102 C   0  0  0  0  0  0  0  0  0  0  0  0
    4.8690   -7.4380   26.4151 C   0  0  0  0  0  0  0  0  0  0  0  0
    2.3021   -5.6726   26.0378 C   0  0  0  0  0  0  0  0  0  0  0  0
    7.0880   -4.6163   27.0010 C   0  0  0  0  0  0  0  0  0  0  0  0
    8.3117   -4.3698   27.4436 C   0  0  0  0  0  0  0  0  0  0  0  0
    1.1339   -5.0515   26.3541 C   0  0  0  0  0  0  0  0  0  0  0  0
    4.8080   -8.0362   16.7101 C   0  0  0  0  0  0  0  0  0  0  0  0
   -1.2173   -3.9294   26.9717 O   0  0  0  0  0  0  0  0  0  0  0  0
   -1.0025   -5.0942   27.4586 C   0  0  0  0  0  0  0  0  0  0  0  0
    2.2474   -8.9123   16.6273 C   0  0  0  0  0  0  0  0  0  0  0  0
    4.4957   -9.2636   17.3041 C   0  0  0  0  0  0  0  0  0  0  0  0
   -1.8070   -5.6086   28.1920 O   0  0  0  0  0  0  0  0  0  0  0  0
   10.4296   -5.1799   28.3140 C   0  0  0  0  0  0  0  0  0  0  0  0
    6.6017   -5.9004   26.9187 C   0  0  0  0  0  0  0  0  0  0  0  0
    2.4761   -6.9940   26.4111 N   0  0  0  0  0  0  0  0  0  0  0  0
    9.1353   -5.4053   27.8239 C   0  0  0  0  0  0  0  0  0  0  0  0
    0.9922   -9.3232   16.5995 O   0  0  0  0  0  0  0  0  0  0  0  0
    1.5232   -7.6869   27.1182 C   0  0  0  0  0  0  0  0  0  0  0  0
    8.6878   -6.6715   27.7262 N   0  0  0  0  0  0  0  0  0  0  0  0
    6.9911   -8.2423   27.1808 C   0  0  0  0  0  0  0  0  0  0  0  0
    3.8436   -7.2758   16.0578 C   0  0  0  0  0  0  0  0  0  0  0  0
    3.1882   -9.7190   17.2566 C   0  0  0  0  0  0  0  0  0  0  0  0
    5.3488   -6.1737   26.5092 C   0  0  0  0  0  0  0  0  0  0  0  0
    7.4567   -6.9464   27.2858 C   0  0  0  0  0  0  0  0  0  0  0  0
    0.1921   -5.7592   27.1123 C   0  0  0  0  0  0  0  0  0  0  0  0
    3.5517   -7.7407   25.9711 C   0  0  0  0  0  0  0  0  0  0  0  0
  1  4  4  0
  1 22  4  0
  2 20  4  0
  2 27  4  0
  3 12  4  0
  3 23  4  0
  4 25  4  0
  4 28  1  0
  5  8  4  0
  5 17  4  0
  6  7  4  0
  6 16  4  0
  7 18  4  0
  8 27  4  0
  9 13  4  0
  9 23  4  0
 10 11  1  0
 11 14  2  0
 11 27  1  0
 12 19  1  0
 12 24  4  0
 13 24  4  0
 15 18  1  0
 16 25  4  0
 16 26  4  0
 17 20  4  0
 17 28  1  0
 18 21  4  0
 21 26  4  0
 22 26  4  0
M  END
$$$$

 Created by Python create_sdf_string function

 28 30  0  0  0  0  0  0  0  0999 V2000
    5.7174   -8.4529   26.7190 C   0  0  0  0  0  0  0  0  0  0  0  0
    0.3974   -7.0711   27.5149 C   0  0  0  0  0  0  0  0  0  0  0  0
    2.5338   -7.6891   16.0102 C   0  0  0  0  0  0  0  0  0  0  0  0
    4.8690   -7.4380   26.4151 C   0  0  0  0  0  0  0  0  0  0  0  0
    2.3021   -5.6726   26.0378 C   0  0  0  0  0  0  0  0  0  0  0  0
    7.0880   -4.6163   27.0010 C   0  0  0  0  0  0  0  0  0  0  0  0
    8.3117   -4.3698   27.4436 C   0  0  0  0  0  0  0  0  0  0  0  0
    1.1339   -5.0515   26.3541 C   0  0  0  0  0  0  0  0  0  0  0  0
    4.8080   -8.0362   16.7101 C   0  0  0  0  0  0  0  0  0  0  0  0
   -1.2173   -3.9294   26.9717 O   0  0  0  0  0  0  0  0  0  0  0  0
   -1.0025   -5.0942   27.4586 C   0  0  0  0  0  0  0  0  0  0  0  0
    2.2474   -8.9123   16.6273 C   0  0  0  0  0  0  0  0  0  0  0  0
    4.4957   -9.2636   17.3041 C   0  0  0  0  0  0  0  0  0  0  0  0
   -1.8070   -5.6086   28.1920 O   0  0  0  0  0  0  0  0  0  0  0  0
   10.4296   -5.1799   28.3140 C   0  0  0  0  0  0  0  0  0  0  0  0
    6.6017   -5.9004   26.9187 C   0  0  0  0  0  0  0  0  0  0  0  0
    2.4761   -6.9940   26.4111 N   0  0  0  0  0  0  0  0  0  0  0  0
    9.1353   -5.4053   27.8239 C   0  0  0  0  0  0  0  0  0  0  0  0
    0.9922   -9.3232   16.5995 O   0  0  0  0  0  0  0  0  0  0  0  0
    1.5232   -7.6869   27.1182 C   0  0  0  0  0  0  0  0  0  0  0  0
    8.6878   -6.6715   27.7262 N   0  0  0  0  0  0  0  0  0  0  0  0
    6.9911   -8.2423   27.1808 C   0  0  0  0  0  0  0  0  0  0  0  0
    3.8436   -7.2758   16.0578 C   0  0  0  0  0  0  0  0  0  0  0  0
    3.1882   -9.7190   17.2566 C   0  0  0  0  0  0  0  0  0  0  0  0
    5.3488   -6.1737   26.5092 C   0  0  0  0  0  0  0  0  0  0  0  0
    7.4567   -6.9464   27.2858 C   0  0  0  0  0  0  0  0  0  0  0  0
    0.1921   -5.7592   27.1123 C   0  0  0  0  0  0  0  0  0  0  0  0
    3.5517   -7.7407   25.9711 C   0  0  0  0  0  0  0  0  0  0  0  0
  1  4  4  0
  1 22  4  0
  2 20  4  0
  2 27  4  0
  3 12  4  0
  3 23  4  0
  4 25  4  0
  4 28  1  0
  5  8  4  0
  5 17  4  0
  6  7  4  0
  6 16  4  0
  7 18  4  0
  8 27  4  0
  9 13  4  0
  9 23  4  0
 10 11  1  0
 11 14  2  0
 11 27  1  0
 12 19  1  0
 12 24  4  0
 13 24  4  0
 15 18  1  0
 16 25  4  0
 16 26  4  0
 17 20  4  0
 17 28  1  0
 18 21  4  0
 21 26  4  0
 22 26  4  0
M  END
$$$$

 Created by Python create_sdf_string function

 28 30  0  0  0  0  0  0  0  0999 V2000
    5.7174   -8.4529   26.7190 C   0  0  0  0  0  0  0  0  0  0  0  0
    0.3974   -7.0711   27.5149 C   0  0  0  0  0  0  0  0  0  0  0  0
    2.5338   -7.6891   16.0102 C   0  0  0  0  0  0  0  0  0  0  0  0
    4.8690   -7.4380   26.4151 C   0  0  0  0  0  0  0  0  0  0  0  0
    2.3021   -5.6726   26.0378 C   0  0  0  0  0  0  0  0  0  0  0  0
    7.0880   -4.6163   27.0010 C   0  0  0  0  0  0  0  0  0  0  0  0
    8.3117   -4.3698   27.4436 C   0  0  0  0  0  0  0  0  0  0  0  0
    1.1339   -5.0515   26.3541 C   0  0  0  0  0  0  0  0  0  0  0  0
    4.8080   -8.0362   16.7101 C   0  0  0  0  0  0  0  0  0  0  0  0
   -1.2173   -3.9294   26.9717 O   0  0  0  0  0  0  0  0  0  0  0  0
   -1.0025   -5.0942   27.4586 C   0  0  0  0  0  0  0  0  0  0  0  0
    2.2474   -8.9123   16.6273 C   0  0  0  0  0  0  0  0  0  0  0  0
    4.4957   -9.2636   17.3041 C   0  0  0  0  0  0  0  0  0  0  0  0
   -1.8070   -5.6086   28.1920 O   0  0  0  0  0  0  0  0  0  0  0  0
   10.4296   -5.1799   28.3140 C   0  0  0  0  0  0  0  0  0  0  0  0
    6.6017   -5.9004   26.9187 C   0  0  0  0  0  0  0  0  0  0  0  0
    2.4761   -6.9940   26.4111 N   0  0  0  0  0  0  0  0  0  0  0  0
    9.1353   -5.4053   27.8239 C   0  0  0  0  0  0  0  0  0  0  0  0
    0.9922   -9.3232   16.5995 O   0  0  0  0  0  0  0  0  0  0  0  0
    1.5232   -7.6869   27.1182 C   0  0  0  0  0  0  0  0  0  0  0  0
    8.6878   -6.6715   27.7262 N   0  0  0  0  0  0  0  0  0  0  0  0
    6.9911   -8.2423   27.1808 C   0  0  0  0  0  0  0  0  0  0  0  0
    3.8436   -7.2758   16.0578 C   0  0  0  0  0  0  0  0  0  0  0  0
    3.1882   -9.7190   17.2566 C   0  0  0  0  0  0  0  0  0  0  0  0
    5.3488   -6.1737   26.5092 C   0  0  0  0  0  0  0  0  0  0  0  0
    7.4567   -6.9464   27.2858 C   0  0  0  0  0  0  0  0  0  0  0  0
    0.1921   -5.7592   27.1123 C   0  0  0  0  0  0  0  0  0  0  0  0
    3.5517   -7.7407   25.9711 C   0  0  0  0  0  0  0  0  0  0  0  0
  1  4  4  0
  1 22  4  0
  2 20  4  0
  2 27  4  0
  3 12  4  0
  3 23  4  0
  4 25  4  0
  4 28  1  0
  5  8  4  0
  5 17  4  0
  6  7  4  0
  6 16  4  0
  7 18  4  0
  8 27  4  0
  9 13  4  0
  9 23  4  0
 10 11  1  0
 11 14  2  0
 11 27  1  0
 12 19  1  0
 12 24  4  0
 13 24  4  0
 15 18  1  0
 16 25  4  0
 16 26  4  0
 17 20  4  0
 17 28  1  0
 18 21  4  0
 21 26  4  0
 22 26  4  0
M  END
$$$$

 Created by Python create_sdf_string function

 28 30  0  0  0  0  0  0  0  0999 V2000
    5.7174   -8.4529   26.7190 C   0  0  0  0  0  0  0  0  0  0  0  0
    0.3974   -7.0711   27.5149 C   0  0  0  0  0  0  0  0  0  0  0  0
    2.5338   -7.6891   16.0102 C   0  0  0  0  0  0  0  0  0  0  0  0
    4.8690   -7.4380   26.4151 C   0  0  0  0  0  0  0  0  0  0  0  0
    2.3021   -5.6726   26.0378 C   0  0  0  0  0  0  0  0  0  0  0  0
    7.0880   -4.6163   27.0010 C   0  0  0  0  0  0  0  0  0  0  0  0
    8.3117   -4.3698   27.4436 C   0  0  0  0  0  0  0  0  0  0  0  0
    1.1339   -5.0515   26.3541 C   0  0  0  0  0  0  0  0  0  0  0  0
    4.8080   -8.0362   16.7101 C   0  0  0  0  0  0  0  0  0  0  0  0
   -1.2173   -3.9294   26.9717 O   0  0  0  0  0  0  0  0  0  0  0  0
   -1.0025   -5.0942   27.4586 C   0  0  0  0  0  0  0  0  0  0  0  0
    2.2474   -8.9123   16.6273 C   0  0  0  0  0  0  0  0  0  0  0  0
    4.4957   -9.2636   17.3041 C   0  0  0  0  0  0  0  0  0  0  0  0
   -1.8070   -5.6086   28.1920 O   0  0  0  0  0  0  0  0  0  0  0  0
   10.4296   -5.1799   28.3140 C   0  0  0  0  0  0  0  0  0  0  0  0
    6.6017   -5.9004   26.9187 C   0  0  0  0  0  0  0  0  0  0  0  0
    2.4761   -6.9940   26.4111 N   0  0  0  0  0  0  0  0  0  0  0  0
    9.1353   -5.4053   27.8239 C   0  0  0  0  0  0  0  0  0  0  0  0
    0.9922   -9.3232   16.5995 O   0  0  0  0  0  0  0  0  0  0  0  0
    1.5232   -7.6869   27.1182 C   0  0  0  0  0  0  0  0  0  0  0  0
    8.6878   -6.6715   27.7262 N   0  0  0  0  0  0  0  0  0  0  0  0
    6.9911   -8.2423   27.1808 C   0  0  0  0  0  0  0  0  0  0  0  0
    3.8436   -7.2758   16.0578 C   0  0  0  0  0  0  0  0  0  0  0  0
    3.1882   -9.7190   17.2566 C   0  0  0  0  0  0  0  0  0  0  0  0
    5.3488   -6.1737   26.5092 C   0  0  0  0  0  0  0  0  0  0  0  0
    7.4567   -6.9464   27.2858 C   0  0  0  0  0  0  0  0  0  0  0  0
    0.1921   -5.7592   27.1123 C   0  0  0  0  0  0  0  0  0  0  0  0
    3.5517   -7.7407   25.9711 C   0  0  0  0  0  0  0  0  0  0  0  0
  1  4  4  0
  1 22  4  0
  2 20  4  0
  2 27  4  0
  3 12  4  0
  3 23  4  0
  4 25  4  0
  4 28  1  0
  5  8  4  0
  5 17  4  0
  6  7  4  0
  6 16  4  0
  7 18  4  0
  8 27  4  0
  9 13  4  0
  9 23  4  0
 10 11  1  0
 11 14  2  0
 11 27  1  0
 12 19  1  0
 12 24  4  0
 13 24  4  0
 15 18  1  0
 16 25  4  0
 16 26  4  0
 17 20  4  0
 17 28  1  0
 18 21  4  0
 21 26  4  0
 22 26  4  0
M  END
$$$$

 Created by Python create_sdf_string function

 28 30  0  0  0  0  0  0  0  0999 V2000
    5.7174   -8.4529   26.7190 C   0  0  0  0  0  0  0  0  0  0  0  0
    0.3974   -7.0711   27.5149 C   0  0  0  0  0  0  0  0  0  0  0  0
    2.5338   -7.6891   16.0102 C   0  0  0  0  0  0  0  0  0  0  0  0
    4.8690   -7.4380   26.4151 C   0  0  0  0  0  0  0  0  0  0  0  0
    2.3021   -5.6726   26.0378 C   0  0  0  0  0  0  0  0  0  0  0  0
    7.0880   -4.6163   27.0010 C   0  0  0  0  0  0  0  0  0  0  0  0
    8.3117   -4.3698   27.4436 C   0  0  0  0  0  0  0  0  0  0  0  0
    1.1339   -5.0515   26.3541 C   0  0  0  0  0  0  0  0  0  0  0  0
    4.8080   -8.0362   16.7101 C   0  0  0  0  0  0  0  0  0  0  0  0
   -1.2173   -3.9294   26.9717 O   0  0  0  0  0  0  0  0  0  0  0  0
   -1.0025   -5.0942   27.4586 C   0  0  0  0  0  0  0  0  0  0  0  0
    2.2474   -8.9123   16.6273 C   0  0  0  0  0  0  0  0  0  0  0  0
    4.4957   -9.2636   17.3041 C   0  0  0  0  0  0  0  0  0  0  0  0
   -1.8070   -5.6086   28.1920 O   0  0  0  0  0  0  0  0  0  0  0  0
   10.4296   -5.1799   28.3140 C   0  0  0  0  0  0  0  0  0  0  0  0
    6.6017   -5.9004   26.9187 C   0  0  0  0  0  0  0  0  0  0  0  0
    2.4761   -6.9940   26.4111 N   0  0  0  0  0  0  0  0  0  0  0  0
    9.1353   -5.4053   27.8239 C   0  0  0  0  0  0  0  0  0  0  0  0
    0.9922   -9.3232   16.5995 O   0  0  0  0  0  0  0  0  0  0  0  0
    1.5232   -7.6869   27.1182 C   0  0  0  0  0  0  0  0  0  0  0  0
    8.6878   -6.6715   27.7262 N   0  0  0  0  0  0  0  0  0  0  0  0
    6.9911   -8.2423   27.1808 C   0  0  0  0  0  0  0  0  0  0  0  0
    3.8436   -7.2758   16.0578 C   0  0  0  0  0  0  0  0  0  0  0  0
    3.1882   -9.7190   17.2566 C   0  0  0  0  0  0  0  0  0  0  0  0
    5.3488   -6.1737   26.5092 C   0  0  0  0  0  0  0  0  0  0  0  0
    7.4567   -6.9464   27.2858 C   0  0  0  0  0  0  0  0  0  0  0  0
    0.1921   -5.7592   27.1123 C   0  0  0  0  0  0  0  0  0  0  0  0
    3.5517   -7.7407   25.9711 C   0  0  0  0  0  0  0  0  0  0  0  0
  1  4  4  0
  1 22  4  0
  2 20  4  0
  2 27  4  0
  3 12  4  0
  3 23  4  0
  4 25  4  0
  4 28  1  0
  5  8  4  0
  5 17  4  0
  6  7  4  0
  6 16  4  0
  7 18  4  0
  8 27  4  0
  9 13  4  0
  9 23  4  0
 10 11  1  0
 11 14  2  0
 11 27  1  0
 12 19  1  0
 12 24  4  0
 13 24  4  0
 15 18  1  0
 16 25  4  0
 16 26  4  0
 17 20  4  0
 17 28  1  0
 18 21  4  0
 21 26  4  0
 22 26  4  0
M  END
$$$$

 Created by Python create_sdf_string function

 28 30  0  0  0  0  0  0  0  0999 V2000
    5.7174   -8.4529   26.7190 C   0  0  0  0  0  0  0  0  0  0  0  0
    0.3974   -7.0711   27.5149 C   0  0  0  0  0  0  0  0  0  0  0  0
    2.5338   -7.6891   16.0102 C   0  0  0  0  0  0  0  0  0  0  0  0
    4.8690   -7.4380   26.4151 C   0  0  0  0  0  0  0  0  0  0  0  0
    2.3021   -5.6726   26.0378 C   0  0  0  0  0  0  0  0  0  0  0  0
    7.0880   -4.6163   27.0010 C   0  0  0  0  0  0  0  0  0  0  0  0
    8.3117   -4.3698   27.4436 C   0  0  0  0  0  0  0  0  0  0  0  0
    1.1339   -5.0515   26.3541 C   0  0  0  0  0  0  0  0  0  0  0  0
    4.8080   -8.0362   16.7101 C   0  0  0  0  0  0  0  0  0  0  0  0
   -1.2173   -3.9294   26.9717 O   0  0  0  0  0  0  0  0  0  0  0  0
   -1.0025   -5.0942   27.4586 C   0  0  0  0  0  0  0  0  0  0  0  0
    2.2474   -8.9123   16.6273 C   0  0  0  0  0  0  0  0  0  0  0  0
    4.4957   -9.2636   17.3041 C   0  0  0  0  0  0  0  0  0  0  0  0
   -1.8070   -5.6086   28.1920 O   0  0  0  0  0  0  0  0  0  0  0  0
   10.4296   -5.1799   28.3140 C   0  0  0  0  0  0  0  0  0  0  0  0
    6.6017   -5.9004   26.9187 C   0  0  0  0  0  0  0  0  0  0  0  0
    2.4761   -6.9940   26.4111 N   0  0  0  0  0  0  0  0  0  0  0  0
    9.1353   -5.4053   27.8239 C   0  0  0  0  0  0  0  0  0  0  0  0
    0.9922   -9.3232   16.5995 O   0  0  0  0  0  0  0  0  0  0  0  0
    1.5232   -7.6869   27.1182 C   0  0  0  0  0  0  0  0  0  0  0  0
    8.6878   -6.6715   27.7262 N   0  0  0  0  0  0  0  0  0  0  0  0
    6.9911   -8.2423   27.1808 C   0  0  0  0  0  0  0  0  0  0  0  0
    3.8436   -7.2758   16.0578 C   0  0  0  0  0  0  0  0  0  0  0  0
    3.1882   -9.7190   17.2566 C   0  0  0  0  0  0  0  0  0  0  0  0
    5.3488   -6.1737   26.5092 C   0  0  0  0  0  0  0  0  0  0  0  0
    7.4567   -6.9464   27.2858 C   0  0  0  0  0  0  0  0  0  0  0  0
    0.1921   -5.7592   27.1123 C   0  0  0  0  0  0  0  0  0  0  0  0
    3.5517   -7.7407   25.9711 C   0  0  0  0  0  0  0  0  0  0  0  0
  1  4  4  0
  1 22  4  0
  2 20  4  0
  2 27  4  0
  3 12  4  0
  3 23  4  0
  4 25  4  0
  4 28  1  0
  5  8  4  0
  5 17  4  0
  6  7  4  0
  6 16  4  0
  7 18  4  0
  8 27  4  0
  9 13  4  0
  9 23  4  0
 10 11  1  0
 11 14  2  0
 11 27  1  0
 12 19  1  0
 12 24  4  0
 13 24  4  0
 15 18  1  0
 16 25  4  0
 16 26  4  0
 17 20  4  0
 17 28  1  0
 18 21  4  0
 21 26  4  0
 22 26  4  0
M  END
$$$$

 Created by Python create_sdf_string function

 28 30  0  0  0  0  0  0  0  0999 V2000
    5.7174   -8.4529   26.7190 C   0  0  0  0  0  0  0  0  0  0  0  0
    0.3974   -7.0711   27.5149 C   0  0  0  0  0  0  0  0  0  0  0  0
    2.5338   -7.6891   16.0102 C   0  0  0  0  0  0  0  0  0  0  0  0
    4.8690   -7.4380   26.4151 C   0  0  0  0  0  0  0  0  0  0  0  0
    2.3021   -5.6726   26.0378 C   0  0  0  0  0  0  0  0  0  0  0  0
    7.0880   -4.6163   27.0010 C   0  0  0  0  0  0  0  0  0  0  0  0
    8.3117   -4.3698   27.4436 C   0  0  0  0  0  0  0  0  0  0  0  0
    1.1339   -5.0515   26.3541 C   0  0  0  0  0  0  0  0  0  0  0  0
    4.8080   -8.0362   16.7101 C   0  0  0  0  0  0  0  0  0  0  0  0
   -1.2173   -3.9294   26.9717 O   0  0  0  0  0  0  0  0  0  0  0  0
   -1.0025   -5.0942   27.4586 C   0  0  0  0  0  0  0  0  0  0  0  0
    2.2474   -8.9123   16.6273 C   0  0  0  0  0  0  0  0  0  0  0  0
    4.4957   -9.2636   17.3041 C   0  0  0  0  0  0  0  0  0  0  0  0
   -1.8070   -5.6086   28.1920 O   0  0  0  0  0  0  0  0  0  0  0  0
   10.4296   -5.1799   28.3140 C   0  0  0  0  0  0  0  0  0  0  0  0
    6.6017   -5.9004   26.9187 C   0  0  0  0  0  0  0  0  0  0  0  0
    2.4761   -6.9940   26.4111 N   0  0  0  0  0  0  0  0  0  0  0  0
    9.1353   -5.4053   27.8239 C   0  0  0  0  0  0  0  0  0  0  0  0
    0.9922   -9.3232   16.5995 O   0  0  0  0  0  0  0  0  0  0  0  0
    1.5232   -7.6869   27.1182 C   0  0  0  0  0  0  0  0  0  0  0  0
    8.6878   -6.6715   27.7262 N   0  0  0  0  0  0  0  0  0  0  0  0
    6.9911   -8.2423   27.1808 C   0  0  0  0  0  0  0  0  0  0  0  0
    3.8436   -7.2758   16.0578 C   0  0  0  0  0  0  0  0  0  0  0  0
    3.1882   -9.7190   17.2566 C   0  0  0  0  0  0  0  0  0  0  0  0
    5.3488   -6.1737   26.5092 C   0  0  0  0  0  0  0  0  0  0  0  0
    7.4567   -6.9464   27.2858 C   0  0  0  0  0  0  0  0  0  0  0  0
    0.1921   -5.7592   27.1123 C   0  0  0  0  0  0  0  0  0  0  0  0
    3.5517   -7.7407   25.9711 C   0  0  0  0  0  0  0  0  0  0  0  0
  1  4  4  0
  1 22  4  0
  2 20  4  0
  2 27  4  0
  3 12  4  0
  3 23  4  0
  4 25  4  0
  4 28  1  0
  5  8  4  0
  5 17  4  0
  6  7  4  0
  6 16  4  0
  7 18  4  0
  8 27  4  0
  9 13  4  0
  9 23  4  0
 10 11  1  0
 11 14  2  0
 11 27  1  0
 12 19  1  0
 12 24  4  0
 13 24  4  0
 15 18  1  0
 16 25  4  0
 16 26  4  0
 17 20  4  0
 17 28  1  0
 18 21  4  0
 21 26  4  0
 22 26  4  0
M  END
$$$$

 Created by Python create_sdf_string function

 28 30  0  0  0  0  0  0  0  0999 V2000
    5.7174   -8.4529   26.7190 C   0  0  0  0  0  0  0  0  0  0  0  0
    0.3974   -7.0711   27.5149 C   0  0  0  0  0  0  0  0  0  0  0  0
    2.5338   -7.6891   16.0102 C   0  0  0  0  0  0  0  0  0  0  0  0
    4.8690   -7.4380   26.4151 C   0  0  0  0  0  0  0  0  0  0  0  0
    2.3021   -5.6726   26.0378 C   0  0  0  0  0  0  0  0  0  0  0  0
    7.0880   -4.6163   27.0010 C   0  0  0  0  0  0  0  0  0  0  0  0
    8.3117   -4.3698   27.4436 C   0  0  0  0  0  0  0  0  0  0  0  0
    1.1339   -5.0515   26.3541 C   0  0  0  0  0  0  0  0  0  0  0  0
    4.8080   -8.0362   16.7101 C   0  0  0  0  0  0  0  0  0  0  0  0
   -1.2173   -3.9294   26.9717 O   0  0  0  0  0  0  0  0  0  0  0  0
   -1.0025   -5.0942   27.4586 C   0  0  0  0  0  0  0  0  0  0  0  0
    2.2474   -8.9123   16.6273 C   0  0  0  0  0  0  0  0  0  0  0  0
    4.4957   -9.2636   17.3041 C   0  0  0  0  0  0  0  0  0  0  0  0
   -1.8070   -5.6086   28.1920 O   0  0  0  0  0  0  0  0  0  0  0  0
   10.4296   -5.1799   28.3140 C   0  0  0  0  0  0  0  0  0  0  0  0
    6.6017   -5.9004   26.9187 C   0  0  0  0  0  0  0  0  0  0  0  0
    2.4761   -6.9940   26.4111 N   0  0  0  0  0  0  0  0  0  0  0  0
    9.1353   -5.4053   27.8239 C   0  0  0  0  0  0  0  0  0  0  0  0
    0.9922   -9.3232   16.5995 O   0  0  0  0  0  0  0  0  0  0  0  0
    1.5232   -7.6869   27.1182 C   0  0  0  0  0  0  0  0  0  0  0  0
    8.6878   -6.6715   27.7262 N   0  0  0  0  0  0  0  0  0  0  0  0
    6.9911   -8.2423   27.1808 C   0  0  0  0  0  0  0  0  0  0  0  0
    3.8436   -7.2758   16.0578 C   0  0  0  0  0  0  0  0  0  0  0  0
    3.1882   -9.7190   17.2566 C   0  0  0  0  0  0  0  0  0  0  0  0
    5.3488   -6.1737   26.5092 C   0  0  0  0  0  0  0  0  0  0  0  0
    7.4567   -6.9464   27.2858 C   0  0  0  0  0  0  0  0  0  0  0  0
    0.1921   -5.7592   27.1123 C   0  0  0  0  0  0  0  0  0  0  0  0
    3.5517   -7.7407   25.9711 C   0  0  0  0  0  0  0  0  0  0  0  0
  1  4  4  0
  1 22  4  0
  2 20  4  0
  2 27  4  0
  3 12  4  0
  3 23  4  0
  4 25  4  0
  4 28  1  0
  5  8  4  0
  5 17  4  0
  6  7  4  0
  6 16  4  0
  7 18  4  0
  8 27  4  0
  9 13  4  0
  9 23  4  0
 10 11  1  0
 11 14  2  0
 11 27  1  0
 12 19  1  0
 12 24  4  0
 13 24  4  0
 15 18  1  0
 16 25  4  0
 16 26  4  0
 17 20  4  0
 17 28  1  0
 18 21  4  0
 21 26  4  0
 22 26  4  0
M  END
$$$$

 Created by Python create_sdf_string function

 28 30  0  0  0  0  0  0  0  0999 V2000
    5.7174   -8.4529   26.7190 C   0  0  0  0  0  0  0  0  0  0  0  0
    0.3974   -7.0711   27.5149 C   0  0  0  0  0  0  0  0  0  0  0  0
    2.5338   -7.6891   16.0102 C   0  0  0  0  0  0  0  0  0  0  0  0
    4.8690   -7.4380   26.4151 C   0  0  0  0  0  0  0  0  0  0  0  0
    2.3021   -5.6726   26.0378 C   0  0  0  0  0  0  0  0  0  0  0  0
    7.0880   -4.6163   27.0010 C   0  0  0  0  0  0  0  0  0  0  0  0
    8.3117   -4.3698   27.4436 C   0  0  0  0  0  0  0  0  0  0  0  0
    1.1339   -5.0515   26.3541 C   0  0  0  0  0  0  0  0  0  0  0  0
    4.8080   -8.0362   16.7101 C   0  0  0  0  0  0  0  0  0  0  0  0
   -1.2173   -3.9294   26.9717 O   0  0  0  0  0  0  0  0  0  0  0  0
   -1.0025   -5.0942   27.4586 C   0  0  0  0  0  0  0  0  0  0  0  0
    2.2474   -8.9123   16.6273 C   0  0  0  0  0  0  0  0  0  0  0  0
    4.4957   -9.2636   17.3041 C   0  0  0  0  0  0  0  0  0  0  0  0
   -1.8070   -5.6086   28.1920 O   0  0  0  0  0  0  0  0  0  0  0  0
   10.4296   -5.1799   28.3140 C   0  0  0  0  0  0  0  0  0  0  0  0
    6.6017   -5.9004   26.9187 C   0  0  0  0  0  0  0  0  0  0  0  0
    2.4761   -6.9940   26.4111 N   0  0  0  0  0  0  0  0  0  0  0  0
    9.1353   -5.4053   27.8239 C   0  0  0  0  0  0  0  0  0  0  0  0
    0.9922   -9.3232   16.5995 O   0  0  0  0  0  0  0  0  0  0  0  0
    1.5232   -7.6869   27.1182 C   0  0  0  0  0  0  0  0  0  0  0  0
    8.6878   -6.6715   27.7262 N   0  0  0  0  0  0  0  0  0  0  0  0
    6.9911   -8.2423   27.1808 C   0  0  0  0  0  0  0  0  0  0  0  0
    3.8436   -7.2758   16.0578 C   0  0  0  0  0  0  0  0  0  0  0  0
    3.1882   -9.7190   17.2566 C   0  0  0  0  0  0  0  0  0  0  0  0
    5.3488   -6.1737   26.5092 C   0  0  0  0  0  0  0  0  0  0  0  0
    7.4567   -6.9464   27.2858 C   0  0  0  0  0  0  0  0  0  0  0  0
    0.1921   -5.7592   27.1123 C   0  0  0  0  0  0  0  0  0  0  0  0
    3.5517   -7.7407   25.9711 C   0  0  0  0  0  0  0  0  0  0  0  0
  1  4  4  0
  1 22  4  0
  2 20  4  0
  2 27  4  0
  3 12  4  0
  3 23  4  0
  4 25  4  0
  4 28  1  0
  5  8  4  0
  5 17  4  0
  6  7  4  0
  6 16  4  0
  7 18  4  0
  8 27  4  0
  9 13  4  0
  9 23  4  0
 10 11  1  0
 11 14  2  0
 11 27  1  0
 12 19  1  0
 12 24  4  0
 13 24  4  0
 15 18  1  0
 16 25  4  0
 16 26  4  0
 17 20  4  0
 17 28  1  0
 18 21  4  0
 21 26  4  0
 22 26  4  0
M  END
$$$$

 Created by Python create_sdf_string function

 28 30  0  0  0  0  0  0  0  0999 V2000
    5.7174   -8.4529   26.7190 C   0  0  0  0  0  0  0  0  0  0  0  0
    0.3974   -7.0711   27.5149 C   0  0  0  0  0  0  0  0  0  0  0  0
    2.5338   -7.6891   16.0102 C   0  0  0  0  0  0  0  0  0  0  0  0
    4.8690   -7.4380   26.4151 C   0  0  0  0  0  0  0  0  0  0  0  0
    2.3021   -5.6726   26.0378 C   0  0  0  0  0  0  0  0  0  0  0  0
    7.0880   -4.6163   27.0010 C   0  0  0  0  0  0  0  0  0  0  0  0
    8.3117   -4.3698   27.4436 C   0  0  0  0  0  0  0  0  0  0  0  0
    1.1339   -5.0515   26.3541 C   0  0  0  0  0  0  0  0  0  0  0  0
    4.8080   -8.0362   16.7101 C   0  0  0  0  0  0  0  0  0  0  0  0
   -1.2173   -3.9294   26.9717 O   0  0  0  0  0  0  0  0  0  0  0  0
   -1.0025   -5.0942   27.4586 C   0  0  0  0  0  0  0  0  0  0  0  0
    2.2474   -8.9123   16.6273 C   0  0  0  0  0  0  0  0  0  0  0  0
    4.4957   -9.2636   17.3041 C   0  0  0  0  0  0  0  0  0  0  0  0
   -1.8070   -5.6086   28.1920 O   0  0  0  0  0  0  0  0  0  0  0  0
   10.4296   -5.1799   28.3140 C   0  0  0  0  0  0  0  0  0  0  0  0
    6.6017   -5.9004   26.9187 C   0  0  0  0  0  0  0  0  0  0  0  0
    2.4761   -6.9940   26.4111 N   0  0  0  0  0  0  0  0  0  0  0  0
    9.1353   -5.4053   27.8239 C   0  0  0  0  0  0  0  0  0  0  0  0
    0.9922   -9.3232   16.5995 O   0  0  0  0  0  0  0  0  0  0  0  0
    1.5232   -7.6869   27.1182 C   0  0  0  0  0  0  0  0  0  0  0  0
    8.6878   -6.6715   27.7262 N   0  0  0  0  0  0  0  0  0  0  0  0
    6.9911   -8.2423   27.1808 C   0  0  0  0  0  0  0  0  0  0  0  0
    3.8436   -7.2758   16.0578 C   0  0  0  0  0  0  0  0  0  0  0  0
    3.1882   -9.7190   17.2566 C   0  0  0  0  0  0  0  0  0  0  0  0
    5.3488   -6.1737   26.5092 C   0  0  0  0  0  0  0  0  0  0  0  0
    7.4567   -6.9464   27.2858 C   0  0  0  0  0  0  0  0  0  0  0  0
    0.1921   -5.7592   27.1123 C   0  0  0  0  0  0  0  0  0  0  0  0
    3.5517   -7.7407   25.9711 C   0  0  0  0  0  0  0  0  0  0  0  0
  1  4  4  0
  1 22  4  0
  2 20  4  0
  2 27  4  0
  3 12  4  0
  3 23  4  0
  4 25  4  0
  4 28  1  0
  5  8  4  0
  5 17  4  0
  6  7  4  0
  6 16  4  0
  7 18  4  0
  8 27  4  0
  9 13  4  0
  9 23  4  0
 10 11  1  0
 11 14  2  0
 11 27  1  0
 12 19  1  0
 12 24  4  0
 13 24  4  0
 15 18  1  0
 16 25  4  0
 16 26  4  0
 17 20  4  0
 17 28  1  0
 18 21  4  0
 21 26  4  0
 22 26  4  0
M  END
$$$$

 Created by Python create_sdf_string function

 28 30  0  0  0  0  0  0  0  0999 V2000
    5.7174   -8.4529   26.7190 C   0  0  0  0  0  0  0  0  0  0  0  0
    0.3974   -7.0711   27.5149 C   0  0  0  0  0  0  0  0  0  0  0  0
    2.5338   -7.6891   16.0102 C   0  0  0  0  0  0  0  0  0  0  0  0
    4.8690   -7.4380   26.4151 C   0  0  0  0  0  0  0  0  0  0  0  0
    2.3021   -5.6726   26.0378 C   0  0  0  0  0  0  0  0  0  0  0  0
    7.0880   -4.6163   27.0010 C   0  0  0  0  0  0  0  0  0  0  0  0
    8.3117   -4.3698   27.4436 C   0  0  0  0  0  0  0  0  0  0  0  0
    1.1339   -5.0515   26.3541 C   0  0  0  0  0  0  0  0  0  0  0  0
    4.8080   -8.0362   16.7101 C   0  0  0  0  0  0  0  0  0  0  0  0
   -1.2173   -3.9294   26.9717 O   0  0  0  0  0  0  0  0  0  0  0  0
   -1.0025   -5.0942   27.4586 C   0  0  0  0  0  0  0  0  0  0  0  0
    2.2474   -8.9123   16.6273 C   0  0  0  0  0  0  0  0  0  0  0  0
    4.4957   -9.2636   17.3041 C   0  0  0  0  0  0  0  0  0  0  0  0
   -1.8070   -5.6086   28.1920 O   0  0  0  0  0  0  0  0  0  0  0  0
   10.4296   -5.1799   28.3140 C   0  0  0  0  0  0  0  0  0  0  0  0
    6.6017   -5.9004   26.9187 C   0  0  0  0  0  0  0  0  0  0  0  0
    2.4761   -6.9940   26.4111 N   0  0  0  0  0  0  0  0  0  0  0  0
    9.1353   -5.4053   27.8239 C   0  0  0  0  0  0  0  0  0  0  0  0
    0.9922   -9.3232   16.5995 O   0  0  0  0  0  0  0  0  0  0  0  0
    1.5232   -7.6869   27.1182 C   0  0  0  0  0  0  0  0  0  0  0  0
    8.6878   -6.6715   27.7262 N   0  0  0  0  0  0  0  0  0  0  0  0
    6.9911   -8.2423   27.1808 C   0  0  0  0  0  0  0  0  0  0  0  0
    3.8436   -7.2758   16.0578 C   0  0  0  0  0  0  0  0  0  0  0  0
    3.1882   -9.7190   17.2566 C   0  0  0  0  0  0  0  0  0  0  0  0
    5.3488   -6.1737   26.5092 C   0  0  0  0  0  0  0  0  0  0  0  0
    7.4567   -6.9464   27.2858 C   0  0  0  0  0  0  0  0  0  0  0  0
    0.1921   -5.7592   27.1123 C   0  0  0  0  0  0  0  0  0  0  0  0
    3.5517   -7.7407   25.9711 C   0  0  0  0  0  0  0  0  0  0  0  0
  1  4  4  0
  1 22  4  0
  2 20  4  0
  2 27  4  0
  3 12  4  0
  3 23  4  0
  4 25  4  0
  4 28  1  0
  5  8  4  0
  5 17  4  0
  6  7  4  0
  6 16  4  0
  7 18  4  0
  8 27  4  0
  9 13  4  0
  9 23  4  0
 10 11  1  0
 11 14  2  0
 11 27  1  0
 12 19  1  0
 12 24  4  0
 13 24  4  0
 15 18  1  0
 16 25  4  0
 16 26  4  0
 17 20  4  0
 17 28  1  0
 18 21  4  0
 21 26  4  0
 22 26  4  0
M  END
$$$$

 Created by Python create_sdf_string function

 28 30  0  0  0  0  0  0  0  0999 V2000
    5.7174   -8.4529   26.7190 C   0  0  0  0  0  0  0  0  0  0  0  0
    0.3974   -7.0711   27.5149 C   0  0  0  0  0  0  0  0  0  0  0  0
    2.5338   -7.6891   16.0102 C   0  0  0  0  0  0  0  0  0  0  0  0
    4.8690   -7.4380   26.4151 C   0  0  0  0  0  0  0  0  0  0  0  0
    2.3021   -5.6726   26.0378 C   0  0  0  0  0  0  0  0  0  0  0  0
    7.0880   -4.6163   27.0010 C   0  0  0  0  0  0  0  0  0  0  0  0
    8.3117   -4.3698   27.4436 C   0  0  0  0  0  0  0  0  0  0  0  0
    1.1339   -5.0515   26.3541 C   0  0  0  0  0  0  0  0  0  0  0  0
    4.8080   -8.0362   16.7101 C   0  0  0  0  0  0  0  0  0  0  0  0
   -1.2173   -3.9294   26.9717 O   0  0  0  0  0  0  0  0  0  0  0  0
   -1.0025   -5.0942   27.4586 C   0  0  0  0  0  0  0  0  0  0  0  0
    2.2474   -8.9123   16.6273 C   0  0  0  0  0  0  0  0  0  0  0  0
    4.4957   -9.2636   17.3041 C   0  0  0  0  0  0  0  0  0  0  0  0
   -1.8070   -5.6086   28.1920 O   0  0  0  0  0  0  0  0  0  0  0  0
   10.4296   -5.1799   28.3140 C   0  0  0  0  0  0  0  0  0  0  0  0
    6.6017   -5.9004   26.9187 C   0  0  0  0  0  0  0  0  0  0  0  0
    2.4761   -6.9940   26.4111 N   0  0  0  0  0  0  0  0  0  0  0  0
    9.1353   -5.4053   27.8239 C   0  0  0  0  0  0  0  0  0  0  0  0
    0.9922   -9.3232   16.5995 O   0  0  0  0  0  0  0  0  0  0  0  0
    1.5232   -7.6869   27.1182 C   0  0  0  0  0  0  0  0  0  0  0  0
    8.6878   -6.6715   27.7262 N   0  0  0  0  0  0  0  0  0  0  0  0
    6.9911   -8.2423   27.1808 C   0  0  0  0  0  0  0  0  0  0  0  0
    3.8436   -7.2758   16.0578 C   0  0  0  0  0  0  0  0  0  0  0  0
    3.1882   -9.7190   17.2566 C   0  0  0  0  0  0  0  0  0  0  0  0
    5.3488   -6.1737   26.5092 C   0  0  0  0  0  0  0  0  0  0  0  0
    7.4567   -6.9464   27.2858 C   0  0  0  0  0  0  0  0  0  0  0  0
    0.1921   -5.7592   27.1123 C   0  0  0  0  0  0  0  0  0  0  0  0
    3.5517   -7.7407   25.9711 C   0  0  0  0  0  0  0  0  0  0  0  0
  1  4  4  0
  1 22  4  0
  2 20  4  0
  2 27  4  0
  3 12  4  0
  3 23  4  0
  4 25  4  0
  4 28  1  0
  5  8  4  0
  5 17  4  0
  6  7  4  0
  6 16  4  0
  7 18  4  0
  8 27  4  0
  9 13  4  0
  9 23  4  0
 10 11  1  0
 11 14  2  0
 11 27  1  0
 12 19  1  0
 12 24  4  0
 13 24  4  0
 15 18  1  0
 16 25  4  0
 16 26  4  0
 17 20  4  0
 17 28  1  0
 18 21  4  0
 21 26  4  0
 22 26  4  0
M  END
$$$$

 Created by Python create_sdf_string function

 28 30  0  0  0  0  0  0  0  0999 V2000
    5.7174   -8.4529   26.7190 C   0  0  0  0  0  0  0  0  0  0  0  0
    0.3974   -7.0711   27.5149 C   0  0  0  0  0  0  0  0  0  0  0  0
    2.5338   -7.6891   16.0102 C   0  0  0  0  0  0  0  0  0  0  0  0
    4.8690   -7.4380   26.4151 C   0  0  0  0  0  0  0  0  0  0  0  0
    2.3021   -5.6726   26.0378 C   0  0  0  0  0  0  0  0  0  0  0  0
    7.0880   -4.6163   27.0010 C   0  0  0  0  0  0  0  0  0  0  0  0
    8.3117   -4.3698   27.4436 C   0  0  0  0  0  0  0  0  0  0  0  0
    1.1339   -5.0515   26.3541 C   0  0  0  0  0  0  0  0  0  0  0  0
    4.8080   -8.0362   16.7101 C   0  0  0  0  0  0  0  0  0  0  0  0
   -1.2173   -3.9294   26.9717 O   0  0  0  0  0  0  0  0  0  0  0  0
   -1.0025   -5.0942   27.4586 C   0  0  0  0  0  0  0  0  0  0  0  0
    2.2474   -8.9123   16.6273 C   0  0  0  0  0  0  0  0  0  0  0  0
    4.4957   -9.2636   17.3041 C   0  0  0  0  0  0  0  0  0  0  0  0
   -1.8070   -5.6086   28.1920 O   0  0  0  0  0  0  0  0  0  0  0  0
   10.4296   -5.1799   28.3140 C   0  0  0  0  0  0  0  0  0  0  0  0
    6.6017   -5.9004   26.9187 C   0  0  0  0  0  0  0  0  0  0  0  0
    2.4761   -6.9940   26.4111 N   0  0  0  0  0  0  0  0  0  0  0  0
    9.1353   -5.4053   27.8239 C   0  0  0  0  0  0  0  0  0  0  0  0
    0.9922   -9.3232   16.5995 O   0  0  0  0  0  0  0  0  0  0  0  0
    1.5232   -7.6869   27.1182 C   0  0  0  0  0  0  0  0  0  0  0  0
    8.6878   -6.6715   27.7262 N   0  0  0  0  0  0  0  0  0  0  0  0
    6.9911   -8.2423   27.1808 C   0  0  0  0  0  0  0  0  0  0  0  0
    3.8436   -7.2758   16.0578 C   0  0  0  0  0  0  0  0  0  0  0  0
    3.1882   -9.7190   17.2566 C   0  0  0  0  0  0  0  0  0  0  0  0
    5.3488   -6.1737   26.5092 C   0  0  0  0  0  0  0  0  0  0  0  0
    7.4567   -6.9464   27.2858 C   0  0  0  0  0  0  0  0  0  0  0  0
    0.1921   -5.7592   27.1123 C   0  0  0  0  0  0  0  0  0  0  0  0
    3.5517   -7.7407   25.9711 C   0  0  0  0  0  0  0  0  0  0  0  0
  1  4  4  0
  1 22  4  0
  2 20  4  0
  2 27  4  0
  3 12  4  0
  3 23  4  0
  4 25  4  0
  4 28  1  0
  5  8  4  0
  5 17  4  0
  6  7  4  0
  6 16  4  0
  7 18  4  0
  8 27  4  0
  9 13  4  0
  9 23  4  0
 10 11  1  0
 11 14  2  0
 11 27  1  0
 12 19  1  0
 12 24  4  0
 13 24  4  0
 15 18  1  0
 16 25  4  0
 16 26  4  0
 17 20  4  0
 17 28  1  0
 18 21  4  0
 21 26  4  0
 22 26  4  0
M  END
$$$$

 Created by Python create_sdf_string function

 28 30  0  0  0  0  0  0  0  0999 V2000
    5.7174   -8.4529   26.7190 C   0  0  0  0  0  0  0  0  0  0  0  0
    0.3974   -7.0711   27.5149 C   0  0  0  0  0  0  0  0  0  0  0  0
    2.5338   -7.6891   16.0102 C   0  0  0  0  0  0  0  0  0  0  0  0
    4.8690   -7.4380   26.4151 C   0  0  0  0  0  0  0  0  0  0  0  0
    2.3021   -5.6726   26.0378 C   0  0  0  0  0  0  0  0  0  0  0  0
    7.0880   -4.6163   27.0010 C   0  0  0  0  0  0  0  0  0  0  0  0
    8.3117   -4.3698   27.4436 C   0  0  0  0  0  0  0  0  0  0  0  0
    1.1339   -5.0515   26.3541 C   0  0  0  0  0  0  0  0  0  0  0  0
    4.8080   -8.0362   16.7101 C   0  0  0  0  0  0  0  0  0  0  0  0
   -1.2173   -3.9294   26.9717 O   0  0  0  0  0  0  0  0  0  0  0  0
   -1.0025   -5.0942   27.4586 C   0  0  0  0  0  0  0  0  0  0  0  0
    2.2474   -8.9123   16.6273 C   0  0  0  0  0  0  0  0  0  0  0  0
    4.4957   -9.2636   17.3041 C   0  0  0  0  0  0  0  0  0  0  0  0
   -1.8070   -5.6086   28.1920 O   0  0  0  0  0  0  0  0  0  0  0  0
   10.4296   -5.1799   28.3140 C   0  0  0  0  0  0  0  0  0  0  0  0
    6.6017   -5.9004   26.9187 C   0  0  0  0  0  0  0  0  0  0  0  0
    2.4761   -6.9940   26.4111 N   0  0  0  0  0  0  0  0  0  0  0  0
    9.1353   -5.4053   27.8239 C   0  0  0  0  0  0  0  0  0  0  0  0
    0.9922   -9.3232   16.5995 O   0  0  0  0  0  0  0  0  0  0  0  0
    1.5232   -7.6869   27.1182 C   0  0  0  0  0  0  0  0  0  0  0  0
    8.6878   -6.6715   27.7262 N   0  0  0  0  0  0  0  0  0  0  0  0
    6.9911   -8.2423   27.1808 C   0  0  0  0  0  0  0  0  0  0  0  0
    3.8436   -7.2758   16.0578 C   0  0  0  0  0  0  0  0  0  0  0  0
    3.1882   -9.7190   17.2566 C   0  0  0  0  0  0  0  0  0  0  0  0
    5.3488   -6.1737   26.5092 C   0  0  0  0  0  0  0  0  0  0  0  0
    7.4567   -6.9464   27.2858 C   0  0  0  0  0  0  0  0  0  0  0  0
    0.1921   -5.7592   27.1123 C   0  0  0  0  0  0  0  0  0  0  0  0
    3.5517   -7.7407   25.9711 C   0  0  0  0  0  0  0  0  0  0  0  0
  1  4  4  0
  1 22  4  0
  2 20  4  0
  2 27  4  0
  3 12  4  0
  3 23  4  0
  4 25  4  0
  4 28  1  0
  5  8  4  0
  5 17  4  0
  6  7  4  0
  6 16  4  0
  7 18  4  0
  8 27  4  0
  9 13  4  0
  9 23  4  0
 10 11  1  0
 11 14  2  0
 11 27  1  0
 12 19  1  0
 12 24  4  0
 13 24  4  0
 15 18  1  0
 16 25  4  0
 16 26  4  0
 17 20  4  0
 17 28  1  0
 18 21  4  0
 21 26  4  0
 22 26  4  0
M  END
$$$$

 Created by Python create_sdf_string function

 28 30  0  0  0  0  0  0  0  0999 V2000
    5.7174   -8.4529   26.7190 C   0  0  0  0  0  0  0  0  0  0  0  0
    0.3974   -7.0711   27.5149 C   0  0  0  0  0  0  0  0  0  0  0  0
    2.5338   -7.6891   16.0102 C   0  0  0  0  0  0  0  0  0  0  0  0
    4.8690   -7.4380   26.4151 C   0  0  0  0  0  0  0  0  0  0  0  0
    2.3021   -5.6726   26.0378 C   0  0  0  0  0  0  0  0  0  0  0  0
    7.0880   -4.6163   27.0010 C   0  0  0  0  0  0  0  0  0  0  0  0
    8.3117   -4.3698   27.4436 C   0  0  0  0  0  0  0  0  0  0  0  0
    1.1339   -5.0515   26.3541 C   0  0  0  0  0  0  0  0  0  0  0  0
    4.8080   -8.0362   16.7101 C   0  0  0  0  0  0  0  0  0  0  0  0
   -1.2173   -3.9294   26.9717 O   0  0  0  0  0  0  0  0  0  0  0  0
   -1.0025   -5.0942   27.4586 C   0  0  0  0  0  0  0  0  0  0  0  0
    2.2474   -8.9123   16.6273 C   0  0  0  0  0  0  0  0  0  0  0  0
    4.4957   -9.2636   17.3041 C   0  0  0  0  0  0  0  0  0  0  0  0
   -1.8070   -5.6086   28.1920 O   0  0  0  0  0  0  0  0  0  0  0  0
   10.4296   -5.1799   28.3140 C   0  0  0  0  0  0  0  0  0  0  0  0
    6.6017   -5.9004   26.9187 C   0  0  0  0  0  0  0  0  0  0  0  0
    2.4761   -6.9940   26.4111 N   0  0  0  0  0  0  0  0  0  0  0  0
    9.1353   -5.4053   27.8239 C   0  0  0  0  0  0  0  0  0  0  0  0
    0.9922   -9.3232   16.5995 O   0  0  0  0  0  0  0  0  0  0  0  0
    1.5232   -7.6869   27.1182 C   0  0  0  0  0  0  0  0  0  0  0  0
    8.6878   -6.6715   27.7262 N   0  0  0  0  0  0  0  0  0  0  0  0
    6.9911   -8.2423   27.1808 C   0  0  0  0  0  0  0  0  0  0  0  0
    3.8436   -7.2758   16.0578 C   0  0  0  0  0  0  0  0  0  0  0  0
    3.1882   -9.7190   17.2566 C   0  0  0  0  0  0  0  0  0  0  0  0
    5.3488   -6.1737   26.5092 C   0  0  0  0  0  0  0  0  0  0  0  0
    7.4567   -6.9464   27.2858 C   0  0  0  0  0  0  0  0  0  0  0  0
    0.1921   -5.7592   27.1123 C   0  0  0  0  0  0  0  0  0  0  0  0
    3.5517   -7.7407   25.9711 C   0  0  0  0  0  0  0  0  0  0  0  0
  1  4  4  0
  1 22  4  0
  2 20  4  0
  2 27  4  0
  3 12  4  0
  3 23  4  0
  4 25  4  0
  4 28  1  0
  5  8  4  0
  5 17  4  0
  6  7  4  0
  6 16  4  0
  7 18  4  0
  8 27  4  0
  9 13  4  0
  9 23  4  0
 10 11  1  0
 11 14  2  0
 11 27  1  0
 12 19  1  0
 12 24  4  0
 13 24  4  0
 15 18  1  0
 16 25  4  0
 16 26  4  0
 17 20  4  0
 17 28  1  0
 18 21  4  0
 21 26  4  0
 22 26  4  0
M  END
$$$$

 Created by Python create_sdf_string function

 28 30  0  0  0  0  0  0  0  0999 V2000
    5.7174   -8.4529   26.7190 C   0  0  0  0  0  0  0  0  0  0  0  0
    0.3974   -7.0711   27.5149 C   0  0  0  0  0  0  0  0  0  0  0  0
    2.5338   -7.6891   16.0102 C   0  0  0  0  0  0  0  0  0  0  0  0
    4.8690   -7.4380   26.4151 C   0  0  0  0  0  0  0  0  0  0  0  0
    2.3021   -5.6726   26.0378 C   0  0  0  0  0  0  0  0  0  0  0  0
    7.0880   -4.6163   27.0010 C   0  0  0  0  0  0  0  0  0  0  0  0
    8.3117   -4.3698   27.4436 C   0  0  0  0  0  0  0  0  0  0  0  0
    1.1339   -5.0515   26.3541 C   0  0  0  0  0  0  0  0  0  0  0  0
    4.8080   -8.0362   16.7101 C   0  0  0  0  0  0  0  0  0  0  0  0
   -1.2173   -3.9294   26.9717 O   0  0  0  0  0  0  0  0  0  0  0  0
   -1.0025   -5.0942   27.4586 C   0  0  0  0  0  0  0  0  0  0  0  0
    2.2474   -8.9123   16.6273 C   0  0  0  0  0  0  0  0  0  0  0  0
    4.4957   -9.2636   17.3041 C   0  0  0  0  0  0  0  0  0  0  0  0
   -1.8070   -5.6086   28.1920 O   0  0  0  0  0  0  0  0  0  0  0  0
   10.4296   -5.1799   28.3140 C   0  0  0  0  0  0  0  0  0  0  0  0
    6.6017   -5.9004   26.9187 C   0  0  0  0  0  0  0  0  0  0  0  0
    2.4761   -6.9940   26.4111 N   0  0  0  0  0  0  0  0  0  0  0  0
    9.1353   -5.4053   27.8239 C   0  0  0  0  0  0  0  0  0  0  0  0
    0.9922   -9.3232   16.5995 O   0  0  0  0  0  0  0  0  0  0  0  0
    1.5232   -7.6869   27.1182 C   0  0  0  0  0  0  0  0  0  0  0  0
    8.6878   -6.6715   27.7262 N   0  0  0  0  0  0  0  0  0  0  0  0
    6.9911   -8.2423   27.1808 C   0  0  0  0  0  0  0  0  0  0  0  0
    3.8436   -7.2758   16.0578 C   0  0  0  0  0  0  0  0  0  0  0  0
    3.1882   -9.7190   17.2566 C   0  0  0  0  0  0  0  0  0  0  0  0
    5.3488   -6.1737   26.5092 C   0  0  0  0  0  0  0  0  0  0  0  0
    7.4567   -6.9464   27.2858 C   0  0  0  0  0  0  0  0  0  0  0  0
    0.1921   -5.7592   27.1123 C   0  0  0  0  0  0  0  0  0  0  0  0
    3.5517   -7.7407   25.9711 C   0  0  0  0  0  0  0  0  0  0  0  0
  1  4  4  0
  1 22  4  0
  2 20  4  0
  2 27  4  0
  3 12  4  0
  3 23  4  0
  4 25  4  0
  4 28  1  0
  5  8  4  0
  5 17  4  0
  6  7  4  0
  6 16  4  0
  7 18  4  0
  8 27  4  0
  9 13  4  0
  9 23  4  0
 10 11  1  0
 11 14  2  0
 11 27  1  0
 12 19  1  0
 12 24  4  0
 13 24  4  0
 15 18  1  0
 16 25  4  0
 16 26  4  0
 17 20  4  0
 17 28  1  0
 18 21  4  0
 21 26  4  0
 22 26  4  0
M  END
$$$$

 Created by Python create_sdf_string function

 28 30  0  0  0  0  0  0  0  0999 V2000
    5.7174   -8.4529   26.7190 C   0  0  0  0  0  0  0  0  0  0  0  0
    0.3974   -7.0711   27.5149 C   0  0  0  0  0  0  0  0  0  0  0  0
    2.5338   -7.6891   16.0102 C   0  0  0  0  0  0  0  0  0  0  0  0
    4.8690   -7.4380   26.4151 C   0  0  0  0  0  0  0  0  0  0  0  0
    2.3021   -5.6726   26.0378 C   0  0  0  0  0  0  0  0  0  0  0  0
    7.0880   -4.6163   27.0010 C   0  0  0  0  0  0  0  0  0  0  0  0
    8.3117   -4.3698   27.4436 C   0  0  0  0  0  0  0  0  0  0  0  0
    1.1339   -5.0515   26.3541 C   0  0  0  0  0  0  0  0  0  0  0  0
    4.8080   -8.0362   16.7101 C   0  0  0  0  0  0  0  0  0  0  0  0
   -1.2173   -3.9294   26.9717 O   0  0  0  0  0  0  0  0  0  0  0  0
   -1.0025   -5.0942   27.4586 C   0  0  0  0  0  0  0  0  0  0  0  0
    2.2474   -8.9123   16.6273 C   0  0  0  0  0  0  0  0  0  0  0  0
    4.4957   -9.2636   17.3041 C   0  0  0  0  0  0  0  0  0  0  0  0
   -1.8070   -5.6086   28.1920 O   0  0  0  0  0  0  0  0  0  0  0  0
   10.4296   -5.1799   28.3140 C   0  0  0  0  0  0  0  0  0  0  0  0
    6.6017   -5.9004   26.9187 C   0  0  0  0  0  0  0  0  0  0  0  0
    2.4761   -6.9940   26.4111 N   0  0  0  0  0  0  0  0  0  0  0  0
    9.1353   -5.4053   27.8239 C   0  0  0  0  0  0  0  0  0  0  0  0
    0.9922   -9.3232   16.5995 O   0  0  0  0  0  0  0  0  0  0  0  0
    1.5232   -7.6869   27.1182 C   0  0  0  0  0  0  0  0  0  0  0  0
    8.6878   -6.6715   27.7262 N   0  0  0  0  0  0  0  0  0  0  0  0
    6.9911   -8.2423   27.1808 C   0  0  0  0  0  0  0  0  0  0  0  0
    3.8436   -7.2758   16.0578 C   0  0  0  0  0  0  0  0  0  0  0  0
    3.1882   -9.7190   17.2566 C   0  0  0  0  0  0  0  0  0  0  0  0
    5.3488   -6.1737   26.5092 C   0  0  0  0  0  0  0  0  0  0  0  0
    7.4567   -6.9464   27.2858 C   0  0  0  0  0  0  0  0  0  0  0  0
    0.1921   -5.7592   27.1123 C   0  0  0  0  0  0  0  0  0  0  0  0
    3.5517   -7.7407   25.9711 C   0  0  0  0  0  0  0  0  0  0  0  0
  1  4  4  0
  1 22  4  0
  2 20  4  0
  2 27  4  0
  3 12  4  0
  3 23  4  0
  4 25  4  0
  4 28  1  0
  5  8  4  0
  5 17  4  0
  6  7  4  0
  6 16  4  0
  7 18  4  0
  8 27  4  0
  9 13  4  0
  9 23  4  0
 10 11  1  0
 11 14  2  0
 11 27  1  0
 12 19  1  0
 12 24  4  0
 13 24  4  0
 15 18  1  0
 16 25  4  0
 16 26  4  0
 17 20  4  0
 17 28  1  0
 18 21  4  0
 21 26  4  0
 22 26  4  0
M  END
$$$$

 Created by Python create_sdf_string function

 28 30  0  0  0  0  0  0  0  0999 V2000
    5.7174   -8.4529   26.7190 C   0  0  0  0  0  0  0  0  0  0  0  0
    0.3974   -7.0711   27.5149 C   0  0  0  0  0  0  0  0  0  0  0  0
    2.5338   -7.6891   16.0102 C   0  0  0  0  0  0  0  0  0  0  0  0
    4.8690   -7.4380   26.4151 C   0  0  0  0  0  0  0  0  0  0  0  0
    2.3021   -5.6726   26.0378 C   0  0  0  0  0  0  0  0  0  0  0  0
    7.0880   -4.6163   27.0010 C   0  0  0  0  0  0  0  0  0  0  0  0
    8.3117   -4.3698   27.4436 C   0  0  0  0  0  0  0  0  0  0  0  0
    1.1339   -5.0515   26.3541 C   0  0  0  0  0  0  0  0  0  0  0  0
    4.8080   -8.0362   16.7101 C   0  0  0  0  0  0  0  0  0  0  0  0
   -1.2173   -3.9294   26.9717 O   0  0  0  0  0  0  0  0  0  0  0  0
   -1.0025   -5.0942   27.4586 C   0  0  0  0  0  0  0  0  0  0  0  0
    2.2474   -8.9123   16.6273 C   0  0  0  0  0  0  0  0  0  0  0  0
    4.4957   -9.2636   17.3041 C   0  0  0  0  0  0  0  0  0  0  0  0
   -1.8070   -5.6086   28.1920 O   0  0  0  0  0  0  0  0  0  0  0  0
   10.4296   -5.1799   28.3140 C   0  0  0  0  0  0  0  0  0  0  0  0
    6.6017   -5.9004   26.9187 C   0  0  0  0  0  0  0  0  0  0  0  0
    2.4761   -6.9940   26.4111 N   0  0  0  0  0  0  0  0  0  0  0  0
    9.1353   -5.4053   27.8239 C   0  0  0  0  0  0  0  0  0  0  0  0
    0.9922   -9.3232   16.5995 O   0  0  0  0  0  0  0  0  0  0  0  0
    1.5232   -7.6869   27.1182 C   0  0  0  0  0  0  0  0  0  0  0  0
    8.6878   -6.6715   27.7262 N   0  0  0  0  0  0  0  0  0  0  0  0
    6.9911   -8.2423   27.1808 C   0  0  0  0  0  0  0  0  0  0  0  0
    3.8436   -7.2758   16.0578 C   0  0  0  0  0  0  0  0  0  0  0  0
    3.1882   -9.7190   17.2566 C   0  0  0  0  0  0  0  0  0  0  0  0
    5.3488   -6.1737   26.5092 C   0  0  0  0  0  0  0  0  0  0  0  0
    7.4567   -6.9464   27.2858 C   0  0  0  0  0  0  0  0  0  0  0  0
    0.1921   -5.7592   27.1123 C   0  0  0  0  0  0  0  0  0  0  0  0
    3.5517   -7.7407   25.9711 C   0  0  0  0  0  0  0  0  0  0  0  0
  1  4  4  0
  1 22  4  0
  2 20  4  0
  2 27  4  0
  3 12  4  0
  3 23  4  0
  4 25  4  0
  4 28  1  0
  5  8  4  0
  5 17  4  0
  6  7  4  0
  6 16  4  0
  7 18  4  0
  8 27  4  0
  9 13  4  0
  9 23  4  0
 10 11  1  0
 11 14  2  0
 11 27  1  0
 12 19  1  0
 12 24  4  0
 13 24  4  0
 15 18  1  0
 16 25  4  0
 16 26  4  0
 17 20  4  0
 17 28  1  0
 18 21  4  0
 21 26  4  0
 22 26  4  0
M  END
$$$$

 Created by Python create_sdf_string function

 28 30  0  0  0  0  0  0  0  0999 V2000
    5.7174   -8.4529   26.7190 C   0  0  0  0  0  0  0  0  0  0  0  0
    0.3974   -7.0711   27.5149 C   0  0  0  0  0  0  0  0  0  0  0  0
    2.5338   -7.6891   16.0102 C   0  0  0  0  0  0  0  0  0  0  0  0
    4.8690   -7.4380   26.4151 C   0  0  0  0  0  0  0  0  0  0  0  0
    2.3021   -5.6726   26.0378 C   0  0  0  0  0  0  0  0  0  0  0  0
    7.0880   -4.6163   27.0010 C   0  0  0  0  0  0  0  0  0  0  0  0
    8.3117   -4.3698   27.4436 C   0  0  0  0  0  0  0  0  0  0  0  0
    1.1339   -5.0515   26.3541 C   0  0  0  0  0  0  0  0  0  0  0  0
    4.8080   -8.0362   16.7101 C   0  0  0  0  0  0  0  0  0  0  0  0
   -1.2173   -3.9294   26.9717 O   0  0  0  0  0  0  0  0  0  0  0  0
   -1.0025   -5.0942   27.4586 C   0  0  0  0  0  0  0  0  0  0  0  0
    2.2474   -8.9123   16.6273 C   0  0  0  0  0  0  0  0  0  0  0  0
    4.4957   -9.2636   17.3041 C   0  0  0  0  0  0  0  0  0  0  0  0
   -1.8070   -5.6086   28.1920 O   0  0  0  0  0  0  0  0  0  0  0  0
   10.4296   -5.1799   28.3140 C   0  0  0  0  0  0  0  0  0  0  0  0
    6.6017   -5.9004   26.9187 C   0  0  0  0  0  0  0  0  0  0  0  0
    2.4761   -6.9940   26.4111 N   0  0  0  0  0  0  0  0  0  0  0  0
    9.1353   -5.4053   27.8239 C   0  0  0  0  0  0  0  0  0  0  0  0
    0.9922   -9.3232   16.5995 O   0  0  0  0  0  0  0  0  0  0  0  0
    1.5232   -7.6869   27.1182 C   0  0  0  0  0  0  0  0  0  0  0  0
    8.6878   -6.6715   27.7262 N   0  0  0  0  0  0  0  0  0  0  0  0
    6.9911   -8.2423   27.1808 C   0  0  0  0  0  0  0  0  0  0  0  0
    3.8436   -7.2758   16.0578 C   0  0  0  0  0  0  0  0  0  0  0  0
    3.1882   -9.7190   17.2566 C   0  0  0  0  0  0  0  0  0  0  0  0
    5.3488   -6.1737   26.5092 C   0  0  0  0  0  0  0  0  0  0  0  0
    7.4567   -6.9464   27.2858 C   0  0  0  0  0  0  0  0  0  0  0  0
    0.1921   -5.7592   27.1123 C   0  0  0  0  0  0  0  0  0  0  0  0
    3.5517   -7.7407   25.9711 C   0  0  0  0  0  0  0  0  0  0  0  0
  1  4  4  0
  1 22  4  0
  2 20  4  0
  2 27  4  0
  3 12  4  0
  3 23  4  0
  4 25  4  0
  4 28  1  0
  5  8  4  0
  5 17  4  0
  6  7  4  0
  6 16  4  0
  7 18  4  0
  8 27  4  0
  9 13  4  0
  9 23  4  0
 10 11  1  0
 11 14  2  0
 11 27  1  0
 12 19  1  0
 12 24  4  0
 13 24  4  0
 15 18  1  0
 16 25  4  0
 16 26  4  0
 17 20  4  0
 17 28  1  0
 18 21  4  0
 21 26  4  0
 22 26  4  0
M  END
$$$$

 Created by Python create_sdf_string function

 28 30  0  0  0  0  0  0  0  0999 V2000
    5.7174   -8.4529   26.7190 C   0  0  0  0  0  0  0  0  0  0  0  0
    0.3974   -7.0711   27.5149 C   0  0  0  0  0  0  0  0  0  0  0  0
    2.5338   -7.6891   16.0102 C   0  0  0  0  0  0  0  0  0  0  0  0
    4.8690   -7.4380   26.4151 C   0  0  0  0  0  0  0  0  0  0  0  0
    2.3021   -5.6726   26.0378 C   0  0  0  0  0  0  0  0  0  0  0  0
    7.0880   -4.6163   27.0010 C   0  0  0  0  0  0  0  0  0  0  0  0
    8.3117   -4.3698   27.4436 C   0  0  0  0  0  0  0  0  0  0  0  0
    1.1339   -5.0515   26.3541 C   0  0  0  0  0  0  0  0  0  0  0  0
    4.8080   -8.0362   16.7101 C   0  0  0  0  0  0  0  0  0  0  0  0
   -1.2173   -3.9294   26.9717 O   0  0  0  0  0  0  0  0  0  0  0  0
   -1.0025   -5.0942   27.4586 C   0  0  0  0  0  0  0  0  0  0  0  0
    2.2474   -8.9123   16.6273 C   0  0  0  0  0  0  0  0  0  0  0  0
    4.4957   -9.2636   17.3041 C   0  0  0  0  0  0  0  0  0  0  0  0
   -1.8070   -5.6086   28.1920 O   0  0  0  0  0  0  0  0  0  0  0  0
   10.4296   -5.1799   28.3140 C   0  0  0  0  0  0  0  0  0  0  0  0
    6.6017   -5.9004   26.9187 C   0  0  0  0  0  0  0  0  0  0  0  0
    2.4761   -6.9940   26.4111 N   0  0  0  0  0  0  0  0  0  0  0  0
    9.1353   -5.4053   27.8239 C   0  0  0  0  0  0  0  0  0  0  0  0
    0.9922   -9.3232   16.5995 O   0  0  0  0  0  0  0  0  0  0  0  0
    1.5232   -7.6869   27.1182 C   0  0  0  0  0  0  0  0  0  0  0  0
    8.6878   -6.6715   27.7262 N   0  0  0  0  0  0  0  0  0  0  0  0
    6.9911   -8.2423   27.1808 C   0  0  0  0  0  0  0  0  0  0  0  0
    3.8436   -7.2758   16.0578 C   0  0  0  0  0  0  0  0  0  0  0  0
    3.1882   -9.7190   17.2566 C   0  0  0  0  0  0  0  0  0  0  0  0
    5.3488   -6.1737   26.5092 C   0  0  0  0  0  0  0  0  0  0  0  0
    7.4567   -6.9464   27.2858 C   0  0  0  0  0  0  0  0  0  0  0  0
    0.1921   -5.7592   27.1123 C   0  0  0  0  0  0  0  0  0  0  0  0
    3.5517   -7.7407   25.9711 C   0  0  0  0  0  0  0  0  0  0  0  0
  1  4  4  0
  1 22  4  0
  2 20  4  0
  2 27  4  0
  3 12  4  0
  3 23  4  0
  4 25  4  0
  4 28  1  0
  5  8  4  0
  5 17  4  0
  6  7  4  0
  6 16  4  0
  7 18  4  0
  8 27  4  0
  9 13  4  0
  9 23  4  0
 10 11  1  0
 11 14  2  0
 11 27  1  0
 12 19  1  0
 12 24  4  0
 13 24  4  0
 15 18  1  0
 16 25  4  0
 16 26  4  0
 17 20  4  0
 17 28  1  0
 18 21  4  0
 21 26  4  0
 22 26  4  0
M  END
$$$$

 Created by Python create_sdf_string function

 28 30  0  0  0  0  0  0  0  0999 V2000
    5.7174   -8.4529   26.7190 C   0  0  0  0  0  0  0  0  0  0  0  0
    0.3974   -7.0711   27.5149 C   0  0  0  0  0  0  0  0  0  0  0  0
    2.5338   -7.6891   16.0102 C   0  0  0  0  0  0  0  0  0  0  0  0
    4.8690   -7.4380   26.4151 C   0  0  0  0  0  0  0  0  0  0  0  0
    2.3021   -5.6726   26.0378 C   0  0  0  0  0  0  0  0  0  0  0  0
    7.0880   -4.6163   27.0010 C   0  0  0  0  0  0  0  0  0  0  0  0
    8.3117   -4.3698   27.4436 C   0  0  0  0  0  0  0  0  0  0  0  0
    1.1339   -5.0515   26.3541 C   0  0  0  0  0  0  0  0  0  0  0  0
    4.8080   -8.0362   16.7101 C   0  0  0  0  0  0  0  0  0  0  0  0
   -1.2173   -3.9294   26.9717 O   0  0  0  0  0  0  0  0  0  0  0  0
   -1.0025   -5.0942   27.4586 C   0  0  0  0  0  0  0  0  0  0  0  0
    2.2474   -8.9123   16.6273 C   0  0  0  0  0  0  0  0  0  0  0  0
    4.4957   -9.2636   17.3041 C   0  0  0  0  0  0  0  0  0  0  0  0
   -1.8070   -5.6086   28.1920 O   0  0  0  0  0  0  0  0  0  0  0  0
   10.4296   -5.1799   28.3140 C   0  0  0  0  0  0  0  0  0  0  0  0
    6.6017   -5.9004   26.9187 C   0  0  0  0  0  0  0  0  0  0  0  0
    2.4761   -6.9940   26.4111 N   0  0  0  0  0  0  0  0  0  0  0  0
    9.1353   -5.4053   27.8239 C   0  0  0  0  0  0  0  0  0  0  0  0
    0.9922   -9.3232   16.5995 O   0  0  0  0  0  0  0  0  0  0  0  0
    1.5232   -7.6869   27.1182 C   0  0  0  0  0  0  0  0  0  0  0  0
    8.6878   -6.6715   27.7262 N   0  0  0  0  0  0  0  0  0  0  0  0
    6.9911   -8.2423   27.1808 C   0  0  0  0  0  0  0  0  0  0  0  0
    3.8436   -7.2758   16.0578 C   0  0  0  0  0  0  0  0  0  0  0  0
    3.1882   -9.7190   17.2566 C   0  0  0  0  0  0  0  0  0  0  0  0
    5.3488   -6.1737   26.5092 C   0  0  0  0  0  0  0  0  0  0  0  0
    7.4567   -6.9464   27.2858 C   0  0  0  0  0  0  0  0  0  0  0  0
    0.1921   -5.7592   27.1123 C   0  0  0  0  0  0  0  0  0  0  0  0
    3.5517   -7.7407   25.9711 C   0  0  0  0  0  0  0  0  0  0  0  0
  1  4  4  0
  1 22  4  0
  2 20  4  0
  2 27  4  0
  3 12  4  0
  3 23  4  0
  4 25  4  0
  4 28  1  0
  5  8  4  0
  5 17  4  0
  6  7  4  0
  6 16  4  0
  7 18  4  0
  8 27  4  0
  9 13  4  0
  9 23  4  0
 10 11  1  0
 11 14  2  0
 11 27  1  0
 12 19  1  0
 12 24  4  0
 13 24  4  0
 15 18  1  0
 16 25  4  0
 16 26  4  0
 17 20  4  0
 17 28  1  0
 18 21  4  0
 21 26  4  0
 22 26  4  0
M  END
$$$$

 Created by Python create_sdf_string function

 28 30  0  0  0  0  0  0  0  0999 V2000
    5.7174   -8.4529   26.7190 C   0  0  0  0  0  0  0  0  0  0  0  0
    0.3974   -7.0711   27.5149 C   0  0  0  0  0  0  0  0  0  0  0  0
    2.5338   -7.6891   16.0102 C   0  0  0  0  0  0  0  0  0  0  0  0
    4.8690   -7.4380   26.4151 C   0  0  0  0  0  0  0  0  0  0  0  0
    2.3021   -5.6726   26.0378 C   0  0  0  0  0  0  0  0  0  0  0  0
    7.0880   -4.6163   27.0010 C   0  0  0  0  0  0  0  0  0  0  0  0
    8.3117   -4.3698   27.4436 C   0  0  0  0  0  0  0  0  0  0  0  0
    1.1339   -5.0515   26.3541 C   0  0  0  0  0  0  0  0  0  0  0  0
    4.8080   -8.0362   16.7101 C   0  0  0  0  0  0  0  0  0  0  0  0
   -1.2173   -3.9294   26.9717 O   0  0  0  0  0  0  0  0  0  0  0  0
   -1.0025   -5.0942   27.4586 C   0  0  0  0  0  0  0  0  0  0  0  0
    2.2474   -8.9123   16.6273 C   0  0  0  0  0  0  0  0  0  0  0  0
    4.4957   -9.2636   17.3041 C   0  0  0  0  0  0  0  0  0  0  0  0
   -1.8070   -5.6086   28.1920 O   0  0  0  0  0  0  0  0  0  0  0  0
   10.4296   -5.1799   28.3140 C   0  0  0  0  0  0  0  0  0  0  0  0
    6.6017   -5.9004   26.9187 C   0  0  0  0  0  0  0  0  0  0  0  0
    2.4761   -6.9940   26.4111 N   0  0  0  0  0  0  0  0  0  0  0  0
    9.1353   -5.4053   27.8239 C   0  0  0  0  0  0  0  0  0  0  0  0
    0.9922   -9.3232   16.5995 O   0  0  0  0  0  0  0  0  0  0  0  0
    1.5232   -7.6869   27.1182 C   0  0  0  0  0  0  0  0  0  0  0  0
    8.6878   -6.6715   27.7262 N   0  0  0  0  0  0  0  0  0  0  0  0
    6.9911   -8.2423   27.1808 C   0  0  0  0  0  0  0  0  0  0  0  0
    3.8436   -7.2758   16.0578 C   0  0  0  0  0  0  0  0  0  0  0  0
    3.1882   -9.7190   17.2566 C   0  0  0  0  0  0  0  0  0  0  0  0
    5.3488   -6.1737   26.5092 C   0  0  0  0  0  0  0  0  0  0  0  0
    7.4567   -6.9464   27.2858 C   0  0  0  0  0  0  0  0  0  0  0  0
    0.1921   -5.7592   27.1123 C   0  0  0  0  0  0  0  0  0  0  0  0
    3.5517   -7.7407   25.9711 C   0  0  0  0  0  0  0  0  0  0  0  0
  1  4  4  0
  1 22  4  0
  2 20  4  0
  2 27  4  0
  3 12  4  0
  3 23  4  0
  4 25  4  0
  4 28  1  0
  5  8  4  0
  5 17  4  0
  6  7  4  0
  6 16  4  0
  7 18  4  0
  8 27  4  0
  9 13  4  0
  9 23  4  0
 10 11  1  0
 11 14  2  0
 11 27  1  0
 12 19  1  0
 12 24  4  0
 13 24  4  0
 15 18  1  0
 16 25  4  0
 16 26  4  0
 17 20  4  0
 17 28  1  0
 18 21  4  0
 21 26  4  0
 22 26  4  0
M  END
$$$$

 Created by Python create_sdf_string function

 28 30  0  0  0  0  0  0  0  0999 V2000
    5.7174   -8.4529   26.7190 C   0  0  0  0  0  0  0  0  0  0  0  0
    0.3974   -7.0711   27.5149 C   0  0  0  0  0  0  0  0  0  0  0  0
    2.5338   -7.6891   16.0102 C   0  0  0  0  0  0  0  0  0  0  0  0
    4.8690   -7.4380   26.4151 C   0  0  0  0  0  0  0  0  0  0  0  0
    2.3021   -5.6726   26.0378 C   0  0  0  0  0  0  0  0  0  0  0  0
    7.0880   -4.6163   27.0010 C   0  0  0  0  0  0  0  0  0  0  0  0
    8.3117   -4.3698   27.4436 C   0  0  0  0  0  0  0  0  0  0  0  0
    1.1339   -5.0515   26.3541 C   0  0  0  0  0  0  0  0  0  0  0  0
    4.8080   -8.0362   16.7101 C   0  0  0  0  0  0  0  0  0  0  0  0
   -1.2173   -3.9294   26.9717 O   0  0  0  0  0  0  0  0  0  0  0  0
   -1.0025   -5.0942   27.4586 C   0  0  0  0  0  0  0  0  0  0  0  0
    2.2474   -8.9123   16.6273 C   0  0  0  0  0  0  0  0  0  0  0  0
    4.4957   -9.2636   17.3041 C   0  0  0  0  0  0  0  0  0  0  0  0
   -1.8070   -5.6086   28.1920 O   0  0  0  0  0  0  0  0  0  0  0  0
   10.4296   -5.1799   28.3140 C   0  0  0  0  0  0  0  0  0  0  0  0
    6.6017   -5.9004   26.9187 C   0  0  0  0  0  0  0  0  0  0  0  0
    2.4761   -6.9940   26.4111 N   0  0  0  0  0  0  0  0  0  0  0  0
    9.1353   -5.4053   27.8239 C   0  0  0  0  0  0  0  0  0  0  0  0
    0.9922   -9.3232   16.5995 O   0  0  0  0  0  0  0  0  0  0  0  0
    1.5232   -7.6869   27.1182 C   0  0  0  0  0  0  0  0  0  0  0  0
    8.6878   -6.6715   27.7262 N   0  0  0  0  0  0  0  0  0  0  0  0
    6.9911   -8.2423   27.1808 C   0  0  0  0  0  0  0  0  0  0  0  0
    3.8436   -7.2758   16.0578 C   0  0  0  0  0  0  0  0  0  0  0  0
    3.1882   -9.7190   17.2566 C   0  0  0  0  0  0  0  0  0  0  0  0
    5.3488   -6.1737   26.5092 C   0  0  0  0  0  0  0  0  0  0  0  0
    7.4567   -6.9464   27.2858 C   0  0  0  0  0  0  0  0  0  0  0  0
    0.1921   -5.7592   27.1123 C   0  0  0  0  0  0  0  0  0  0  0  0
    3.5517   -7.7407   25.9711 C   0  0  0  0  0  0  0  0  0  0  0  0
  1  4  4  0
  1 22  4  0
  2 20  4  0
  2 27  4  0
  3 12  4  0
  3 23  4  0
  4 25  4  0
  4 28  1  0
  5  8  4  0
  5 17  4  0
  6  7  4  0
  6 16  4  0
  7 18  4  0
  8 27  4  0
  9 13  4  0
  9 23  4  0
 10 11  1  0
 11 14  2  0
 11 27  1  0
 12 19  1  0
 12 24  4  0
 13 24  4  0
 15 18  1  0
 16 25  4  0
 16 26  4  0
 17 20  4  0
 17 28  1  0
 18 21  4  0
 21 26  4  0
 22 26  4  0
M  END
$$$$

 Created by Python create_sdf_string function

 28 30  0  0  0  0  0  0  0  0999 V2000
    5.7174   -8.4529   26.7190 C   0  0  0  0  0  0  0  0  0  0  0  0
    0.3974   -7.0711   27.5149 C   0  0  0  0  0  0  0  0  0  0  0  0
    2.5338   -7.6891   16.0102 C   0  0  0  0  0  0  0  0  0  0  0  0
    4.8690   -7.4380   26.4151 C   0  0  0  0  0  0  0  0  0  0  0  0
    2.3021   -5.6726   26.0378 C   0  0  0  0  0  0  0  0  0  0  0  0
    7.0880   -4.6163   27.0010 C   0  0  0  0  0  0  0  0  0  0  0  0
    8.3117   -4.3698   27.4436 C   0  0  0  0  0  0  0  0  0  0  0  0
    1.1339   -5.0515   26.3541 C   0  0  0  0  0  0  0  0  0  0  0  0
    4.8080   -8.0362   16.7101 C   0  0  0  0  0  0  0  0  0  0  0  0
   -1.2173   -3.9294   26.9717 O   0  0  0  0  0  0  0  0  0  0  0  0
   -1.0025   -5.0942   27.4586 C   0  0  0  0  0  0  0  0  0  0  0  0
    2.2474   -8.9123   16.6273 C   0  0  0  0  0  0  0  0  0  0  0  0
    4.4957   -9.2636   17.3041 C   0  0  0  0  0  0  0  0  0  0  0  0
   -1.8070   -5.6086   28.1920 O   0  0  0  0  0  0  0  0  0  0  0  0
   10.4296   -5.1799   28.3140 C   0  0  0  0  0  0  0  0  0  0  0  0
    6.6017   -5.9004   26.9187 C   0  0  0  0  0  0  0  0  0  0  0  0
    2.4761   -6.9940   26.4111 N   0  0  0  0  0  0  0  0  0  0  0  0
    9.1353   -5.4053   27.8239 C   0  0  0  0  0  0  0  0  0  0  0  0
    0.9922   -9.3232   16.5995 O   0  0  0  0  0  0  0  0  0  0  0  0
    1.5232   -7.6869   27.1182 C   0  0  0  0  0  0  0  0  0  0  0  0
    8.6878   -6.6715   27.7262 N   0  0  0  0  0  0  0  0  0  0  0  0
    6.9911   -8.2423   27.1808 C   0  0  0  0  0  0  0  0  0  0  0  0
    3.8436   -7.2758   16.0578 C   0  0  0  0  0  0  0  0  0  0  0  0
    3.1882   -9.7190   17.2566 C   0  0  0  0  0  0  0  0  0  0  0  0
    5.3488   -6.1737   26.5092 C   0  0  0  0  0  0  0  0  0  0  0  0
    7.4567   -6.9464   27.2858 C   0  0  0  0  0  0  0  0  0  0  0  0
    0.1921   -5.7592   27.1123 C   0  0  0  0  0  0  0  0  0  0  0  0
    3.5517   -7.7407   25.9711 C   0  0  0  0  0  0  0  0  0  0  0  0
  1  4  4  0
  1 22  4  0
  2 20  4  0
  2 27  4  0
  3 12  4  0
  3 23  4  0
  4 25  4  0
  4 28  1  0
  5  8  4  0
  5 17  4  0
  6  7  4  0
  6 16  4  0
  7 18  4  0
  8 27  4  0
  9 13  4  0
  9 23  4  0
 10 11  1  0
 11 14  2  0
 11 27  1  0
 12 19  1  0
 12 24  4  0
 13 24  4  0
 15 18  1  0
 16 25  4  0
 16 26  4  0
 17 20  4  0
 17 28  1  0
 18 21  4  0
 21 26  4  0
 22 26  4  0
M  END
$$$$

 Created by Python create_sdf_string function

 28 30  0  0  0  0  0  0  0  0999 V2000
    5.7174   -8.4529   26.7190 C   0  0  0  0  0  0  0  0  0  0  0  0
    0.3974   -7.0711   27.5149 C   0  0  0  0  0  0  0  0  0  0  0  0
    2.5338   -7.6891   16.0102 C   0  0  0  0  0  0  0  0  0  0  0  0
    4.8690   -7.4380   26.4151 C   0  0  0  0  0  0  0  0  0  0  0  0
    2.3021   -5.6726   26.0378 C   0  0  0  0  0  0  0  0  0  0  0  0
    7.0880   -4.6163   27.0010 C   0  0  0  0  0  0  0  0  0  0  0  0
    8.3117   -4.3698   27.4436 C   0  0  0  0  0  0  0  0  0  0  0  0
    1.1339   -5.0515   26.3541 C   0  0  0  0  0  0  0  0  0  0  0  0
    4.8080   -8.0362   16.7101 C   0  0  0  0  0  0  0  0  0  0  0  0
   -1.2173   -3.9294   26.9717 O   0  0  0  0  0  0  0  0  0  0  0  0
   -1.0025   -5.0942   27.4586 C   0  0  0  0  0  0  0  0  0  0  0  0
    2.2474   -8.9123   16.6273 C   0  0  0  0  0  0  0  0  0  0  0  0
    4.4957   -9.2636   17.3041 C   0  0  0  0  0  0  0  0  0  0  0  0
   -1.8070   -5.6086   28.1920 O   0  0  0  0  0  0  0  0  0  0  0  0
   10.4296   -5.1799   28.3140 C   0  0  0  0  0  0  0  0  0  0  0  0
    6.6017   -5.9004   26.9187 C   0  0  0  0  0  0  0  0  0  0  0  0
    2.4761   -6.9940   26.4111 N   0  0  0  0  0  0  0  0  0  0  0  0
    9.1353   -5.4053   27.8239 C   0  0  0  0  0  0  0  0  0  0  0  0
    0.9922   -9.3232   16.5995 O   0  0  0  0  0  0  0  0  0  0  0  0
    1.5232   -7.6869   27.1182 C   0  0  0  0  0  0  0  0  0  0  0  0
    8.6878   -6.6715   27.7262 N   0  0  0  0  0  0  0  0  0  0  0  0
    6.9911   -8.2423   27.1808 C   0  0  0  0  0  0  0  0  0  0  0  0
    3.8436   -7.2758   16.0578 C   0  0  0  0  0  0  0  0  0  0  0  0
    3.1882   -9.7190   17.2566 C   0  0  0  0  0  0  0  0  0  0  0  0
    5.3488   -6.1737   26.5092 C   0  0  0  0  0  0  0  0  0  0  0  0
    7.4567   -6.9464   27.2858 C   0  0  0  0  0  0  0  0  0  0  0  0
    0.1921   -5.7592   27.1123 C   0  0  0  0  0  0  0  0  0  0  0  0
    3.5517   -7.7407   25.9711 C   0  0  0  0  0  0  0  0  0  0  0  0
  1  4  4  0
  1 22  4  0
  2 20  4  0
  2 27  4  0
  3 12  4  0
  3 23  4  0
  4 25  4  0
  4 28  1  0
  5  8  4  0
  5 17  4  0
  6  7  4  0
  6 16  4  0
  7 18  4  0
  8 27  4  0
  9 13  4  0
  9 23  4  0
 10 11  1  0
 11 14  2  0
 11 27  1  0
 12 19  1  0
 12 24  4  0
 13 24  4  0
 15 18  1  0
 16 25  4  0
 16 26  4  0
 17 20  4  0
 17 28  1  0
 18 21  4  0
 21 26  4  0
 22 26  4  0
M  END
$$$$

 Created by Python create_sdf_string function

 28 30  0  0  0  0  0  0  0  0999 V2000
    5.7174   -8.4529   26.7190 C   0  0  0  0  0  0  0  0  0  0  0  0
    0.3974   -7.0711   27.5149 C   0  0  0  0  0  0  0  0  0  0  0  0
    2.5338   -7.6891   16.0102 C   0  0  0  0  0  0  0  0  0  0  0  0
    4.8690   -7.4380   26.4151 C   0  0  0  0  0  0  0  0  0  0  0  0
    2.3021   -5.6726   26.0378 C   0  0  0  0  0  0  0  0  0  0  0  0
    7.0880   -4.6163   27.0010 C   0  0  0  0  0  0  0  0  0  0  0  0
    8.3117   -4.3698   27.4436 C   0  0  0  0  0  0  0  0  0  0  0  0
    1.1339   -5.0515   26.3541 C   0  0  0  0  0  0  0  0  0  0  0  0
    4.8080   -8.0362   16.7101 C   0  0  0  0  0  0  0  0  0  0  0  0
   -1.2173   -3.9294   26.9717 O   0  0  0  0  0  0  0  0  0  0  0  0
   -1.0025   -5.0942   27.4586 C   0  0  0  0  0  0  0  0  0  0  0  0
    2.2474   -8.9123   16.6273 C   0  0  0  0  0  0  0  0  0  0  0  0
    4.4957   -9.2636   17.3041 C   0  0  0  0  0  0  0  0  0  0  0  0
   -1.8070   -5.6086   28.1920 O   0  0  0  0  0  0  0  0  0  0  0  0
   10.4296   -5.1799   28.3140 C   0  0  0  0  0  0  0  0  0  0  0  0
    6.6017   -5.9004   26.9187 C   0  0  0  0  0  0  0  0  0  0  0  0
    2.4761   -6.9940   26.4111 N   0  0  0  0  0  0  0  0  0  0  0  0
    9.1353   -5.4053   27.8239 C   0  0  0  0  0  0  0  0  0  0  0  0
    0.9922   -9.3232   16.5995 O   0  0  0  0  0  0  0  0  0  0  0  0
    1.5232   -7.6869   27.1182 C   0  0  0  0  0  0  0  0  0  0  0  0
    8.6878   -6.6715   27.7262 N   0  0  0  0  0  0  0  0  0  0  0  0
    6.9911   -8.2423   27.1808 C   0  0  0  0  0  0  0  0  0  0  0  0
    3.8436   -7.2758   16.0578 C   0  0  0  0  0  0  0  0  0  0  0  0
    3.1882   -9.7190   17.2566 C   0  0  0  0  0  0  0  0  0  0  0  0
    5.3488   -6.1737   26.5092 C   0  0  0  0  0  0  0  0  0  0  0  0
    7.4567   -6.9464   27.2858 C   0  0  0  0  0  0  0  0  0  0  0  0
    0.1921   -5.7592   27.1123 C   0  0  0  0  0  0  0  0  0  0  0  0
    3.5517   -7.7407   25.9711 C   0  0  0  0  0  0  0  0  0  0  0  0
  1  4  4  0
  1 22  4  0
  2 20  4  0
  2 27  4  0
  3 12  4  0
  3 23  4  0
  4 25  4  0
  4 28  1  0
  5  8  4  0
  5 17  4  0
  6  7  4  0
  6 16  4  0
  7 18  4  0
  8 27  4  0
  9 13  4  0
  9 23  4  0
 10 11  1  0
 11 14  2  0
 11 27  1  0
 12 19  1  0
 12 24  4  0
 13 24  4  0
 15 18  1  0
 16 25  4  0
 16 26  4  0
 17 20  4  0
 17 28  1  0
 18 21  4  0
 21 26  4  0
 22 26  4  0
M  END
$$$$

 Created by Python create_sdf_string function

 28 30  0  0  0  0  0  0  0  0999 V2000
    5.7174   -8.4529   26.7190 C   0  0  0  0  0  0  0  0  0  0  0  0
    0.3974   -7.0711   27.5149 C   0  0  0  0  0  0  0  0  0  0  0  0
    2.5338   -7.6891   16.0102 C   0  0  0  0  0  0  0  0  0  0  0  0
    4.8690   -7.4380   26.4151 C   0  0  0  0  0  0  0  0  0  0  0  0
    2.3021   -5.6726   26.0378 C   0  0  0  0  0  0  0  0  0  0  0  0
    7.0880   -4.6163   27.0010 C   0  0  0  0  0  0  0  0  0  0  0  0
    8.3117   -4.3698   27.4436 C   0  0  0  0  0  0  0  0  0  0  0  0
    1.1339   -5.0515   26.3541 C   0  0  0  0  0  0  0  0  0  0  0  0
    4.8080   -8.0362   16.7101 C   0  0  0  0  0  0  0  0  0  0  0  0
   -1.2173   -3.9294   26.9717 O   0  0  0  0  0  0  0  0  0  0  0  0
   -1.0025   -5.0942   27.4586 C   0  0  0  0  0  0  0  0  0  0  0  0
    2.2474   -8.9123   16.6273 C   0  0  0  0  0  0  0  0  0  0  0  0
    4.4957   -9.2636   17.3041 C   0  0  0  0  0  0  0  0  0  0  0  0
   -1.8070   -5.6086   28.1920 O   0  0  0  0  0  0  0  0  0  0  0  0
   10.4296   -5.1799   28.3140 C   0  0  0  0  0  0  0  0  0  0  0  0
    6.6017   -5.9004   26.9187 C   0  0  0  0  0  0  0  0  0  0  0  0
    2.4761   -6.9940   26.4111 N   0  0  0  0  0  0  0  0  0  0  0  0
    9.1353   -5.4053   27.8239 C   0  0  0  0  0  0  0  0  0  0  0  0
    0.9922   -9.3232   16.5995 O   0  0  0  0  0  0  0  0  0  0  0  0
    1.5232   -7.6869   27.1182 C   0  0  0  0  0  0  0  0  0  0  0  0
    8.6878   -6.6715   27.7262 N   0  0  0  0  0  0  0  0  0  0  0  0
    6.9911   -8.2423   27.1808 C   0  0  0  0  0  0  0  0  0  0  0  0
    3.8436   -7.2758   16.0578 C   0  0  0  0  0  0  0  0  0  0  0  0
    3.1882   -9.7190   17.2566 C   0  0  0  0  0  0  0  0  0  0  0  0
    5.3488   -6.1737   26.5092 C   0  0  0  0  0  0  0  0  0  0  0  0
    7.4567   -6.9464   27.2858 C   0  0  0  0  0  0  0  0  0  0  0  0
    0.1921   -5.7592   27.1123 C   0  0  0  0  0  0  0  0  0  0  0  0
    3.5517   -7.7407   25.9711 C   0  0  0  0  0  0  0  0  0  0  0  0
  1  4  4  0
  1 22  4  0
  2 20  4  0
  2 27  4  0
  3 12  4  0
  3 23  4  0
  4 25  4  0
  4 28  1  0
  5  8  4  0
  5 17  4  0
  6  7  4  0
  6 16  4  0
  7 18  4  0
  8 27  4  0
  9 13  4  0
  9 23  4  0
 10 11  1  0
 11 14  2  0
 11 27  1  0
 12 19  1  0
 12 24  4  0
 13 24  4  0
 15 18  1  0
 16 25  4  0
 16 26  4  0
 17 20  4  0
 17 28  1  0
 18 21  4  0
 21 26  4  0
 22 26  4  0
M  END
$$$$

 Created by Python create_sdf_string function

 28 30  0  0  0  0  0  0  0  0999 V2000
    5.7174   -8.4529   26.7190 C   0  0  0  0  0  0  0  0  0  0  0  0
    0.3974   -7.0711   27.5149 C   0  0  0  0  0  0  0  0  0  0  0  0
    2.5338   -7.6891   16.0102 C   0  0  0  0  0  0  0  0  0  0  0  0
    4.8690   -7.4380   26.4151 C   0  0  0  0  0  0  0  0  0  0  0  0
    2.3021   -5.6726   26.0378 C   0  0  0  0  0  0  0  0  0  0  0  0
    7.0880   -4.6163   27.0010 C   0  0  0  0  0  0  0  0  0  0  0  0
    8.3117   -4.3698   27.4436 C   0  0  0  0  0  0  0  0  0  0  0  0
    1.1339   -5.0515   26.3541 C   0  0  0  0  0  0  0  0  0  0  0  0
    4.8080   -8.0362   16.7101 C   0  0  0  0  0  0  0  0  0  0  0  0
   -1.2173   -3.9294   26.9717 O   0  0  0  0  0  0  0  0  0  0  0  0
   -1.0025   -5.0942   27.4586 C   0  0  0  0  0  0  0  0  0  0  0  0
    2.2474   -8.9123   16.6273 C   0  0  0  0  0  0  0  0  0  0  0  0
    4.4957   -9.2636   17.3041 C   0  0  0  0  0  0  0  0  0  0  0  0
   -1.8070   -5.6086   28.1920 O   0  0  0  0  0  0  0  0  0  0  0  0
   10.4296   -5.1799   28.3140 C   0  0  0  0  0  0  0  0  0  0  0  0
    6.6017   -5.9004   26.9187 C   0  0  0  0  0  0  0  0  0  0  0  0
    2.4761   -6.9940   26.4111 N   0  0  0  0  0  0  0  0  0  0  0  0
    9.1353   -5.4053   27.8239 C   0  0  0  0  0  0  0  0  0  0  0  0
    0.9922   -9.3232   16.5995 O   0  0  0  0  0  0  0  0  0  0  0  0
    1.5232   -7.6869   27.1182 C   0  0  0  0  0  0  0  0  0  0  0  0
    8.6878   -6.6715   27.7262 N   0  0  0  0  0  0  0  0  0  0  0  0
    6.9911   -8.2423   27.1808 C   0  0  0  0  0  0  0  0  0  0  0  0
    3.8436   -7.2758   16.0578 C   0  0  0  0  0  0  0  0  0  0  0  0
    3.1882   -9.7190   17.2566 C   0  0  0  0  0  0  0  0  0  0  0  0
    5.3488   -6.1737   26.5092 C   0  0  0  0  0  0  0  0  0  0  0  0
    7.4567   -6.9464   27.2858 C   0  0  0  0  0  0  0  0  0  0  0  0
    0.1921   -5.7592   27.1123 C   0  0  0  0  0  0  0  0  0  0  0  0
    3.5517   -7.7407   25.9711 C   0  0  0  0  0  0  0  0  0  0  0  0
  1  4  4  0
  1 22  4  0
  2 20  4  0
  2 27  4  0
  3 12  4  0
  3 23  4  0
  4 25  4  0
  4 28  1  0
  5  8  4  0
  5 17  4  0
  6  7  4  0
  6 16  4  0
  7 18  4  0
  8 27  4  0
  9 13  4  0
  9 23  4  0
 10 11  1  0
 11 14  2  0
 11 27  1  0
 12 19  1  0
 12 24  4  0
 13 24  4  0
 15 18  1  0
 16 25  4  0
 16 26  4  0
 17 20  4  0
 17 28  1  0
 18 21  4  0
 21 26  4  0
 22 26  4  0
M  END
$$$$

 Created by Python create_sdf_string function

 28 30  0  0  0  0  0  0  0  0999 V2000
    5.7174   -8.4529   26.7190 C   0  0  0  0  0  0  0  0  0  0  0  0
    0.3974   -7.0711   27.5149 C   0  0  0  0  0  0  0  0  0  0  0  0
    2.5338   -7.6891   16.0102 C   0  0  0  0  0  0  0  0  0  0  0  0
    4.8690   -7.4380   26.4151 C   0  0  0  0  0  0  0  0  0  0  0  0
    2.3021   -5.6726   26.0378 C   0  0  0  0  0  0  0  0  0  0  0  0
    7.0880   -4.6163   27.0010 C   0  0  0  0  0  0  0  0  0  0  0  0
    8.3117   -4.3698   27.4436 C   0  0  0  0  0  0  0  0  0  0  0  0
    1.1339   -5.0515   26.3541 C   0  0  0  0  0  0  0  0  0  0  0  0
    4.8080   -8.0362   16.7101 C   0  0  0  0  0  0  0  0  0  0  0  0
   -1.2173   -3.9294   26.9717 O   0  0  0  0  0  0  0  0  0  0  0  0
   -1.0025   -5.0942   27.4586 C   0  0  0  0  0  0  0  0  0  0  0  0
    2.2474   -8.9123   16.6273 C   0  0  0  0  0  0  0  0  0  0  0  0
    4.4957   -9.2636   17.3041 C   0  0  0  0  0  0  0  0  0  0  0  0
   -1.8070   -5.6086   28.1920 O   0  0  0  0  0  0  0  0  0  0  0  0
   10.4296   -5.1799   28.3140 C   0  0  0  0  0  0  0  0  0  0  0  0
    6.6017   -5.9004   26.9187 C   0  0  0  0  0  0  0  0  0  0  0  0
    2.4761   -6.9940   26.4111 N   0  0  0  0  0  0  0  0  0  0  0  0
    9.1353   -5.4053   27.8239 C   0  0  0  0  0  0  0  0  0  0  0  0
    0.9922   -9.3232   16.5995 O   0  0  0  0  0  0  0  0  0  0  0  0
    1.5232   -7.6869   27.1182 C   0  0  0  0  0  0  0  0  0  0  0  0
    8.6878   -6.6715   27.7262 N   0  0  0  0  0  0  0  0  0  0  0  0
    6.9911   -8.2423   27.1808 C   0  0  0  0  0  0  0  0  0  0  0  0
    3.8436   -7.2758   16.0578 C   0  0  0  0  0  0  0  0  0  0  0  0
    3.1882   -9.7190   17.2566 C   0  0  0  0  0  0  0  0  0  0  0  0
    5.3488   -6.1737   26.5092 C   0  0  0  0  0  0  0  0  0  0  0  0
    7.4567   -6.9464   27.2858 C   0  0  0  0  0  0  0  0  0  0  0  0
    0.1921   -5.7592   27.1123 C   0  0  0  0  0  0  0  0  0  0  0  0
    3.5517   -7.7407   25.9711 C   0  0  0  0  0  0  0  0  0  0  0  0
  1  4  4  0
  1 22  4  0
  2 20  4  0
  2 27  4  0
  3 12  4  0
  3 23  4  0
  4 25  4  0
  4 28  1  0
  5  8  4  0
  5 17  4  0
  6  7  4  0
  6 16  4  0
  7 18  4  0
  8 27  4  0
  9 13  4  0
  9 23  4  0
 10 11  1  0
 11 14  2  0
 11 27  1  0
 12 19  1  0
 12 24  4  0
 13 24  4  0
 15 18  1  0
 16 25  4  0
 16 26  4  0
 17 20  4  0
 17 28  1  0
 18 21  4  0
 21 26  4  0
 22 26  4  0
M  END
$$$$

 Created by Python create_sdf_string function

 28 30  0  0  0  0  0  0  0  0999 V2000
    5.7174   -8.4529   26.7190 C   0  0  0  0  0  0  0  0  0  0  0  0
    0.3974   -7.0711   27.5149 C   0  0  0  0  0  0  0  0  0  0  0  0
    2.5338   -7.6891   16.0102 C   0  0  0  0  0  0  0  0  0  0  0  0
    4.8690   -7.4380   26.4151 C   0  0  0  0  0  0  0  0  0  0  0  0
    2.3021   -5.6726   26.0378 C   0  0  0  0  0  0  0  0  0  0  0  0
    7.0880   -4.6163   27.0010 C   0  0  0  0  0  0  0  0  0  0  0  0
    8.3117   -4.3698   27.4436 C   0  0  0  0  0  0  0  0  0  0  0  0
    1.1339   -5.0515   26.3541 C   0  0  0  0  0  0  0  0  0  0  0  0
    4.8080   -8.0362   16.7101 C   0  0  0  0  0  0  0  0  0  0  0  0
   -1.2173   -3.9294   26.9717 O   0  0  0  0  0  0  0  0  0  0  0  0
   -1.0025   -5.0942   27.4586 C   0  0  0  0  0  0  0  0  0  0  0  0
    2.2474   -8.9123   16.6273 C   0  0  0  0  0  0  0  0  0  0  0  0
    4.4957   -9.2636   17.3041 C   0  0  0  0  0  0  0  0  0  0  0  0
   -1.8070   -5.6086   28.1920 O   0  0  0  0  0  0  0  0  0  0  0  0
   10.4296   -5.1799   28.3140 C   0  0  0  0  0  0  0  0  0  0  0  0
    6.6017   -5.9004   26.9187 C   0  0  0  0  0  0  0  0  0  0  0  0
    2.4761   -6.9940   26.4111 N   0  0  0  0  0  0  0  0  0  0  0  0
    9.1353   -5.4053   27.8239 C   0  0  0  0  0  0  0  0  0  0  0  0
    0.9922   -9.3232   16.5995 O   0  0  0  0  0  0  0  0  0  0  0  0
    1.5232   -7.6869   27.1182 C   0  0  0  0  0  0  0  0  0  0  0  0
    8.6878   -6.6715   27.7262 N   0  0  0  0  0  0  0  0  0  0  0  0
    6.9911   -8.2423   27.1808 C   0  0  0  0  0  0  0  0  0  0  0  0
    3.8436   -7.2758   16.0578 C   0  0  0  0  0  0  0  0  0  0  0  0
    3.1882   -9.7190   17.2566 C   0  0  0  0  0  0  0  0  0  0  0  0
    5.3488   -6.1737   26.5092 C   0  0  0  0  0  0  0  0  0  0  0  0
    7.4567   -6.9464   27.2858 C   0  0  0  0  0  0  0  0  0  0  0  0
    0.1921   -5.7592   27.1123 C   0  0  0  0  0  0  0  0  0  0  0  0
    3.5517   -7.7407   25.9711 C   0  0  0  0  0  0  0  0  0  0  0  0
  1  4  4  0
  1 22  4  0
  2 20  4  0
  2 27  4  0
  3 12  4  0
  3 23  4  0
  4 25  4  0
  4 28  1  0
  5  8  4  0
  5 17  4  0
  6  7  4  0
  6 16  4  0
  7 18  4  0
  8 27  4  0
  9 13  4  0
  9 23  4  0
 10 11  1  0
 11 14  2  0
 11 27  1  0
 12 19  1  0
 12 24  4  0
 13 24  4  0
 15 18  1  0
 16 25  4  0
 16 26  4  0
 17 20  4  0
 17 28  1  0
 18 21  4  0
 21 26  4  0
 22 26  4  0
M  END
$$$$

 Created by Python create_sdf_string function

 28 30  0  0  0  0  0  0  0  0999 V2000
    5.7174   -8.4529   26.7190 C   0  0  0  0  0  0  0  0  0  0  0  0
    0.3974   -7.0711   27.5149 C   0  0  0  0  0  0  0  0  0  0  0  0
    2.5338   -7.6891   16.0102 C   0  0  0  0  0  0  0  0  0  0  0  0
    4.8690   -7.4380   26.4151 C   0  0  0  0  0  0  0  0  0  0  0  0
    2.3021   -5.6726   26.0378 C   0  0  0  0  0  0  0  0  0  0  0  0
    7.0880   -4.6163   27.0010 C   0  0  0  0  0  0  0  0  0  0  0  0
    8.3117   -4.3698   27.4436 C   0  0  0  0  0  0  0  0  0  0  0  0
    1.1339   -5.0515   26.3541 C   0  0  0  0  0  0  0  0  0  0  0  0
    4.8080   -8.0362   16.7101 C   0  0  0  0  0  0  0  0  0  0  0  0
   -1.2173   -3.9294   26.9717 O   0  0  0  0  0  0  0  0  0  0  0  0
   -1.0025   -5.0942   27.4586 C   0  0  0  0  0  0  0  0  0  0  0  0
    2.2474   -8.9123   16.6273 C   0  0  0  0  0  0  0  0  0  0  0  0
    4.4957   -9.2636   17.3041 C   0  0  0  0  0  0  0  0  0  0  0  0
   -1.8070   -5.6086   28.1920 O   0  0  0  0  0  0  0  0  0  0  0  0
   10.4296   -5.1799   28.3140 C   0  0  0  0  0  0  0  0  0  0  0  0
    6.6017   -5.9004   26.9187 C   0  0  0  0  0  0  0  0  0  0  0  0
    2.4761   -6.9940   26.4111 N   0  0  0  0  0  0  0  0  0  0  0  0
    9.1353   -5.4053   27.8239 C   0  0  0  0  0  0  0  0  0  0  0  0
    0.9922   -9.3232   16.5995 O   0  0  0  0  0  0  0  0  0  0  0  0
    1.5232   -7.6869   27.1182 C   0  0  0  0  0  0  0  0  0  0  0  0
    8.6878   -6.6715   27.7262 N   0  0  0  0  0  0  0  0  0  0  0  0
    6.9911   -8.2423   27.1808 C   0  0  0  0  0  0  0  0  0  0  0  0
    3.8436   -7.2758   16.0578 C   0  0  0  0  0  0  0  0  0  0  0  0
    3.1882   -9.7190   17.2566 C   0  0  0  0  0  0  0  0  0  0  0  0
    5.3488   -6.1737   26.5092 C   0  0  0  0  0  0  0  0  0  0  0  0
    7.4567   -6.9464   27.2858 C   0  0  0  0  0  0  0  0  0  0  0  0
    0.1921   -5.7592   27.1123 C   0  0  0  0  0  0  0  0  0  0  0  0
    3.5517   -7.7407   25.9711 C   0  0  0  0  0  0  0  0  0  0  0  0
  1  4  4  0
  1 22  4  0
  2 20  4  0
  2 27  4  0
  3 12  4  0
  3 23  4  0
  4 25  4  0
  4 28  1  0
  5  8  4  0
  5 17  4  0
  6  7  4  0
  6 16  4  0
  7 18  4  0
  8 27  4  0
  9 13  4  0
  9 23  4  0
 10 11  1  0
 11 14  2  0
 11 27  1  0
 12 19  1  0
 12 24  4  0
 13 24  4  0
 15 18  1  0
 16 25  4  0
 16 26  4  0
 17 20  4  0
 17 28  1  0
 18 21  4  0
 21 26  4  0
 22 26  4  0
M  END
$$$$

 Created by Python create_sdf_string function

 28 30  0  0  0  0  0  0  0  0999 V2000
    5.7174   -8.4529   26.7190 C   0  0  0  0  0  0  0  0  0  0  0  0
    0.3974   -7.0711   27.5149 C   0  0  0  0  0  0  0  0  0  0  0  0
    2.5338   -7.6891   16.0102 C   0  0  0  0  0  0  0  0  0  0  0  0
    4.8690   -7.4380   26.4151 C   0  0  0  0  0  0  0  0  0  0  0  0
    2.3021   -5.6726   26.0378 C   0  0  0  0  0  0  0  0  0  0  0  0
    7.0880   -4.6163   27.0010 C   0  0  0  0  0  0  0  0  0  0  0  0
    8.3117   -4.3698   27.4436 C   0  0  0  0  0  0  0  0  0  0  0  0
    1.1339   -5.0515   26.3541 C   0  0  0  0  0  0  0  0  0  0  0  0
    4.8080   -8.0362   16.7101 C   0  0  0  0  0  0  0  0  0  0  0  0
   -1.2173   -3.9294   26.9717 O   0  0  0  0  0  0  0  0  0  0  0  0
   -1.0025   -5.0942   27.4586 C   0  0  0  0  0  0  0  0  0  0  0  0
    2.2474   -8.9123   16.6273 C   0  0  0  0  0  0  0  0  0  0  0  0
    4.4957   -9.2636   17.3041 C   0  0  0  0  0  0  0  0  0  0  0  0
   -1.8070   -5.6086   28.1920 O   0  0  0  0  0  0  0  0  0  0  0  0
   10.4296   -5.1799   28.3140 C   0  0  0  0  0  0  0  0  0  0  0  0
    6.6017   -5.9004   26.9187 C   0  0  0  0  0  0  0  0  0  0  0  0
    2.4761   -6.9940   26.4111 N   0  0  0  0  0  0  0  0  0  0  0  0
    9.1353   -5.4053   27.8239 C   0  0  0  0  0  0  0  0  0  0  0  0
    0.9922   -9.3232   16.5995 O   0  0  0  0  0  0  0  0  0  0  0  0
    1.5232   -7.6869   27.1182 C   0  0  0  0  0  0  0  0  0  0  0  0
    8.6878   -6.6715   27.7262 N   0  0  0  0  0  0  0  0  0  0  0  0
    6.9911   -8.2423   27.1808 C   0  0  0  0  0  0  0  0  0  0  0  0
    3.8436   -7.2758   16.0578 C   0  0  0  0  0  0  0  0  0  0  0  0
    3.1882   -9.7190   17.2566 C   0  0  0  0  0  0  0  0  0  0  0  0
    5.3488   -6.1737   26.5092 C   0  0  0  0  0  0  0  0  0  0  0  0
    7.4567   -6.9464   27.2858 C   0  0  0  0  0  0  0  0  0  0  0  0
    0.1921   -5.7592   27.1123 C   0  0  0  0  0  0  0  0  0  0  0  0
    3.5517   -7.7407   25.9711 C   0  0  0  0  0  0  0  0  0  0  0  0
  1  4  4  0
  1 22  4  0
  2 20  4  0
  2 27  4  0
  3 12  4  0
  3 23  4  0
  4 25  4  0
  4 28  1  0
  5  8  4  0
  5 17  4  0
  6  7  4  0
  6 16  4  0
  7 18  4  0
  8 27  4  0
  9 13  4  0
  9 23  4  0
 10 11  1  0
 11 14  2  0
 11 27  1  0
 12 19  1  0
 12 24  4  0
 13 24  4  0
 15 18  1  0
 16 25  4  0
 16 26  4  0
 17 20  4  0
 17 28  1  0
 18 21  4  0
 21 26  4  0
 22 26  4  0
M  END
$$$$

 Created by Python create_sdf_string function

 28 30  0  0  0  0  0  0  0  0999 V2000
    5.7174   -8.4529   26.7190 C   0  0  0  0  0  0  0  0  0  0  0  0
    0.3974   -7.0711   27.5149 C   0  0  0  0  0  0  0  0  0  0  0  0
    2.5338   -7.6891   16.0102 C   0  0  0  0  0  0  0  0  0  0  0  0
    4.8690   -7.4380   26.4151 C   0  0  0  0  0  0  0  0  0  0  0  0
    2.3021   -5.6726   26.0378 C   0  0  0  0  0  0  0  0  0  0  0  0
    7.0880   -4.6163   27.0010 C   0  0  0  0  0  0  0  0  0  0  0  0
    8.3117   -4.3698   27.4436 C   0  0  0  0  0  0  0  0  0  0  0  0
    1.1339   -5.0515   26.3541 C   0  0  0  0  0  0  0  0  0  0  0  0
    4.8080   -8.0362   16.7101 C   0  0  0  0  0  0  0  0  0  0  0  0
   -1.2173   -3.9294   26.9717 O   0  0  0  0  0  0  0  0  0  0  0  0
   -1.0025   -5.0942   27.4586 C   0  0  0  0  0  0  0  0  0  0  0  0
    2.2474   -8.9123   16.6273 C   0  0  0  0  0  0  0  0  0  0  0  0
    4.4957   -9.2636   17.3041 C   0  0  0  0  0  0  0  0  0  0  0  0
   -1.8070   -5.6086   28.1920 O   0  0  0  0  0  0  0  0  0  0  0  0
   10.4296   -5.1799   28.3140 C   0  0  0  0  0  0  0  0  0  0  0  0
    6.6017   -5.9004   26.9187 C   0  0  0  0  0  0  0  0  0  0  0  0
    2.4761   -6.9940   26.4111 N   0  0  0  0  0  0  0  0  0  0  0  0
    9.1353   -5.4053   27.8239 C   0  0  0  0  0  0  0  0  0  0  0  0
    0.9922   -9.3232   16.5995 O   0  0  0  0  0  0  0  0  0  0  0  0
    1.5232   -7.6869   27.1182 C   0  0  0  0  0  0  0  0  0  0  0  0
    8.6878   -6.6715   27.7262 N   0  0  0  0  0  0  0  0  0  0  0  0
    6.9911   -8.2423   27.1808 C   0  0  0  0  0  0  0  0  0  0  0  0
    3.8436   -7.2758   16.0578 C   0  0  0  0  0  0  0  0  0  0  0  0
    3.1882   -9.7190   17.2566 C   0  0  0  0  0  0  0  0  0  0  0  0
    5.3488   -6.1737   26.5092 C   0  0  0  0  0  0  0  0  0  0  0  0
    7.4567   -6.9464   27.2858 C   0  0  0  0  0  0  0  0  0  0  0  0
    0.1921   -5.7592   27.1123 C   0  0  0  0  0  0  0  0  0  0  0  0
    3.5517   -7.7407   25.9711 C   0  0  0  0  0  0  0  0  0  0  0  0
  1  4  4  0
  1 22  4  0
  2 20  4  0
  2 27  4  0
  3 12  4  0
  3 23  4  0
  4 25  4  0
  4 28  1  0
  5  8  4  0
  5 17  4  0
  6  7  4  0
  6 16  4  0
  7 18  4  0
  8 27  4  0
  9 13  4  0
  9 23  4  0
 10 11  1  0
 11 14  2  0
 11 27  1  0
 12 19  1  0
 12 24  4  0
 13 24  4  0
 15 18  1  0
 16 25  4  0
 16 26  4  0
 17 20  4  0
 17 28  1  0
 18 21  4  0
 21 26  4  0
 22 26  4  0
M  END
$$$$

 Created by Python create_sdf_string function

 28 30  0  0  0  0  0  0  0  0999 V2000
    5.7174   -8.4529   26.7190 C   0  0  0  0  0  0  0  0  0  0  0  0
    0.3974   -7.0711   27.5149 C   0  0  0  0  0  0  0  0  0  0  0  0
    2.5338   -7.6891   16.0102 C   0  0  0  0  0  0  0  0  0  0  0  0
    4.8690   -7.4380   26.4151 C   0  0  0  0  0  0  0  0  0  0  0  0
    2.3021   -5.6726   26.0378 C   0  0  0  0  0  0  0  0  0  0  0  0
    7.0880   -4.6163   27.0010 C   0  0  0  0  0  0  0  0  0  0  0  0
    8.3117   -4.3698   27.4436 C   0  0  0  0  0  0  0  0  0  0  0  0
    1.1339   -5.0515   26.3541 C   0  0  0  0  0  0  0  0  0  0  0  0
    4.8080   -8.0362   16.7101 C   0  0  0  0  0  0  0  0  0  0  0  0
   -1.2173   -3.9294   26.9717 O   0  0  0  0  0  0  0  0  0  0  0  0
   -1.0025   -5.0942   27.4586 C   0  0  0  0  0  0  0  0  0  0  0  0
    2.2474   -8.9123   16.6273 C   0  0  0  0  0  0  0  0  0  0  0  0
    4.4957   -9.2636   17.3041 C   0  0  0  0  0  0  0  0  0  0  0  0
   -1.8070   -5.6086   28.1920 O   0  0  0  0  0  0  0  0  0  0  0  0
   10.4296   -5.1799   28.3140 C   0  0  0  0  0  0  0  0  0  0  0  0
    6.6017   -5.9004   26.9187 C   0  0  0  0  0  0  0  0  0  0  0  0
    2.4761   -6.9940   26.4111 N   0  0  0  0  0  0  0  0  0  0  0  0
    9.1353   -5.4053   27.8239 C   0  0  0  0  0  0  0  0  0  0  0  0
    0.9922   -9.3232   16.5995 O   0  0  0  0  0  0  0  0  0  0  0  0
    1.5232   -7.6869   27.1182 C   0  0  0  0  0  0  0  0  0  0  0  0
    8.6878   -6.6715   27.7262 N   0  0  0  0  0  0  0  0  0  0  0  0
    6.9911   -8.2423   27.1808 C   0  0  0  0  0  0  0  0  0  0  0  0
    3.8436   -7.2758   16.0578 C   0  0  0  0  0  0  0  0  0  0  0  0
    3.1882   -9.7190   17.2566 C   0  0  0  0  0  0  0  0  0  0  0  0
    5.3488   -6.1737   26.5092 C   0  0  0  0  0  0  0  0  0  0  0  0
    7.4567   -6.9464   27.2858 C   0  0  0  0  0  0  0  0  0  0  0  0
    0.1921   -5.7592   27.1123 C   0  0  0  0  0  0  0  0  0  0  0  0
    3.5517   -7.7407   25.9711 C   0  0  0  0  0  0  0  0  0  0  0  0
  1  4  4  0
  1 22  4  0
  2 20  4  0
  2 27  4  0
  3 12  4  0
  3 23  4  0
  4 25  4  0
  4 28  1  0
  5  8  4  0
  5 17  4  0
  6  7  4  0
  6 16  4  0
  7 18  4  0
  8 27  4  0
  9 13  4  0
  9 23  4  0
 10 11  1  0
 11 14  2  0
 11 27  1  0
 12 19  1  0
 12 24  4  0
 13 24  4  0
 15 18  1  0
 16 25  4  0
 16 26  4  0
 17 20  4  0
 17 28  1  0
 18 21  4  0
 21 26  4  0
 22 26  4  0
M  END
$$$$

 Created by Python create_sdf_string function

 28 30  0  0  0  0  0  0  0  0999 V2000
    5.7174   -8.4529   26.7190 C   0  0  0  0  0  0  0  0  0  0  0  0
    0.3974   -7.0711   27.5149 C   0  0  0  0  0  0  0  0  0  0  0  0
    2.5338   -7.6891   16.0102 C   0  0  0  0  0  0  0  0  0  0  0  0
    4.8690   -7.4380   26.4151 C   0  0  0  0  0  0  0  0  0  0  0  0
    2.3021   -5.6726   26.0378 C   0  0  0  0  0  0  0  0  0  0  0  0
    7.0880   -4.6163   27.0010 C   0  0  0  0  0  0  0  0  0  0  0  0
    8.3117   -4.3698   27.4436 C   0  0  0  0  0  0  0  0  0  0  0  0
    1.1339   -5.0515   26.3541 C   0  0  0  0  0  0  0  0  0  0  0  0
    4.8080   -8.0362   16.7101 C   0  0  0  0  0  0  0  0  0  0  0  0
   -1.2173   -3.9294   26.9717 O   0  0  0  0  0  0  0  0  0  0  0  0
   -1.0025   -5.0942   27.4586 C   0  0  0  0  0  0  0  0  0  0  0  0
    2.2474   -8.9123   16.6273 C   0  0  0  0  0  0  0  0  0  0  0  0
    4.4957   -9.2636   17.3041 C   0  0  0  0  0  0  0  0  0  0  0  0
   -1.8070   -5.6086   28.1920 O   0  0  0  0  0  0  0  0  0  0  0  0
   10.4296   -5.1799   28.3140 C   0  0  0  0  0  0  0  0  0  0  0  0
    6.6017   -5.9004   26.9187 C   0  0  0  0  0  0  0  0  0  0  0  0
    2.4761   -6.9940   26.4111 N   0  0  0  0  0  0  0  0  0  0  0  0
    9.1353   -5.4053   27.8239 C   0  0  0  0  0  0  0  0  0  0  0  0
    0.9922   -9.3232   16.5995 O   0  0  0  0  0  0  0  0  0  0  0  0
    1.5232   -7.6869   27.1182 C   0  0  0  0  0  0  0  0  0  0  0  0
    8.6878   -6.6715   27.7262 N   0  0  0  0  0  0  0  0  0  0  0  0
    6.9911   -8.2423   27.1808 C   0  0  0  0  0  0  0  0  0  0  0  0
    3.8436   -7.2758   16.0578 C   0  0  0  0  0  0  0  0  0  0  0  0
    3.1882   -9.7190   17.2566 C   0  0  0  0  0  0  0  0  0  0  0  0
    5.3488   -6.1737   26.5092 C   0  0  0  0  0  0  0  0  0  0  0  0
    7.4567   -6.9464   27.2858 C   0  0  0  0  0  0  0  0  0  0  0  0
    0.1921   -5.7592   27.1123 C   0  0  0  0  0  0  0  0  0  0  0  0
    3.5517   -7.7407   25.9711 C   0  0  0  0  0  0  0  0  0  0  0  0
  1  4  4  0
  1 22  4  0
  2 20  4  0
  2 27  4  0
  3 12  4  0
  3 23  4  0
  4 25  4  0
  4 28  1  0
  5  8  4  0
  5 17  4  0
  6  7  4  0
  6 16  4  0
  7 18  4  0
  8 27  4  0
  9 13  4  0
  9 23  4  0
 10 11  1  0
 11 14  2  0
 11 27  1  0
 12 19  1  0
 12 24  4  0
 13 24  4  0
 15 18  1  0
 16 25  4  0
 16 26  4  0
 17 20  4  0
 17 28  1  0
 18 21  4  0
 21 26  4  0
 22 26  4  0
M  END
$$$$

 Created by Python create_sdf_string function

 28 30  0  0  0  0  0  0  0  0999 V2000
    5.7174   -8.4529   26.7190 C   0  0  0  0  0  0  0  0  0  0  0  0
    0.3974   -7.0711   27.5149 C   0  0  0  0  0  0  0  0  0  0  0  0
    2.5338   -7.6891   16.0102 C   0  0  0  0  0  0  0  0  0  0  0  0
    4.8690   -7.4380   26.4151 C   0  0  0  0  0  0  0  0  0  0  0  0
    2.3021   -5.6726   26.0378 C   0  0  0  0  0  0  0  0  0  0  0  0
    7.0880   -4.6163   27.0010 C   0  0  0  0  0  0  0  0  0  0  0  0
    8.3117   -4.3698   27.4436 C   0  0  0  0  0  0  0  0  0  0  0  0
    1.1339   -5.0515   26.3541 C   0  0  0  0  0  0  0  0  0  0  0  0
    4.8080   -8.0362   16.7101 C   0  0  0  0  0  0  0  0  0  0  0  0
   -1.2173   -3.9294   26.9717 O   0  0  0  0  0  0  0  0  0  0  0  0
   -1.0025   -5.0942   27.4586 C   0  0  0  0  0  0  0  0  0  0  0  0
    2.2474   -8.9123   16.6273 C   0  0  0  0  0  0  0  0  0  0  0  0
    4.4957   -9.2636   17.3041 C   0  0  0  0  0  0  0  0  0  0  0  0
   -1.8070   -5.6086   28.1920 O   0  0  0  0  0  0  0  0  0  0  0  0
   10.4296   -5.1799   28.3140 C   0  0  0  0  0  0  0  0  0  0  0  0
    6.6017   -5.9004   26.9187 C   0  0  0  0  0  0  0  0  0  0  0  0
    2.4761   -6.9940   26.4111 N   0  0  0  0  0  0  0  0  0  0  0  0
    9.1353   -5.4053   27.8239 C   0  0  0  0  0  0  0  0  0  0  0  0
    0.9922   -9.3232   16.5995 O   0  0  0  0  0  0  0  0  0  0  0  0
    1.5232   -7.6869   27.1182 C   0  0  0  0  0  0  0  0  0  0  0  0
    8.6878   -6.6715   27.7262 N   0  0  0  0  0  0  0  0  0  0  0  0
    6.9911   -8.2423   27.1808 C   0  0  0  0  0  0  0  0  0  0  0  0
    3.8436   -7.2758   16.0578 C   0  0  0  0  0  0  0  0  0  0  0  0
    3.1882   -9.7190   17.2566 C   0  0  0  0  0  0  0  0  0  0  0  0
    5.3488   -6.1737   26.5092 C   0  0  0  0  0  0  0  0  0  0  0  0
    7.4567   -6.9464   27.2858 C   0  0  0  0  0  0  0  0  0  0  0  0
    0.1921   -5.7592   27.1123 C   0  0  0  0  0  0  0  0  0  0  0  0
    3.5517   -7.7407   25.9711 C   0  0  0  0  0  0  0  0  0  0  0  0
  1  4  4  0
  1 22  4  0
  2 20  4  0
  2 27  4  0
  3 12  4  0
  3 23  4  0
  4 25  4  0
  4 28  1  0
  5  8  4  0
  5 17  4  0
  6  7  4  0
  6 16  4  0
  7 18  4  0
  8 27  4  0
  9 13  4  0
  9 23  4  0
 10 11  1  0
 11 14  2  0
 11 27  1  0
 12 19  1  0
 12 24  4  0
 13 24  4  0
 15 18  1  0
 16 25  4  0
 16 26  4  0
 17 20  4  0
 17 28  1  0
 18 21  4  0
 21 26  4  0
 22 26  4  0
M  END
$$$$

 Created by Python create_sdf_string function

 28 30  0  0  0  0  0  0  0  0999 V2000
    5.7174   -8.4529   26.7190 C   0  0  0  0  0  0  0  0  0  0  0  0
    0.3974   -7.0711   27.5149 C   0  0  0  0  0  0  0  0  0  0  0  0
    2.5338   -7.6891   16.0102 C   0  0  0  0  0  0  0  0  0  0  0  0
    4.8690   -7.4380   26.4151 C   0  0  0  0  0  0  0  0  0  0  0  0
    2.3021   -5.6726   26.0378 C   0  0  0  0  0  0  0  0  0  0  0  0
    7.0880   -4.6163   27.0010 C   0  0  0  0  0  0  0  0  0  0  0  0
    8.3117   -4.3698   27.4436 C   0  0  0  0  0  0  0  0  0  0  0  0
    1.1339   -5.0515   26.3541 C   0  0  0  0  0  0  0  0  0  0  0  0
    4.8080   -8.0362   16.7101 C   0  0  0  0  0  0  0  0  0  0  0  0
   -1.2173   -3.9294   26.9717 O   0  0  0  0  0  0  0  0  0  0  0  0
   -1.0025   -5.0942   27.4586 C   0  0  0  0  0  0  0  0  0  0  0  0
    2.2474   -8.9123   16.6273 C   0  0  0  0  0  0  0  0  0  0  0  0
    4.4957   -9.2636   17.3041 C   0  0  0  0  0  0  0  0  0  0  0  0
   -1.8070   -5.6086   28.1920 O   0  0  0  0  0  0  0  0  0  0  0  0
   10.4296   -5.1799   28.3140 C   0  0  0  0  0  0  0  0  0  0  0  0
    6.6017   -5.9004   26.9187 C   0  0  0  0  0  0  0  0  0  0  0  0
    2.4761   -6.9940   26.4111 N   0  0  0  0  0  0  0  0  0  0  0  0
    9.1353   -5.4053   27.8239 C   0  0  0  0  0  0  0  0  0  0  0  0
    0.9922   -9.3232   16.5995 O   0  0  0  0  0  0  0  0  0  0  0  0
    1.5232   -7.6869   27.1182 C   0  0  0  0  0  0  0  0  0  0  0  0
    8.6878   -6.6715   27.7262 N   0  0  0  0  0  0  0  0  0  0  0  0
    6.9911   -8.2423   27.1808 C   0  0  0  0  0  0  0  0  0  0  0  0
    3.8436   -7.2758   16.0578 C   0  0  0  0  0  0  0  0  0  0  0  0
    3.1882   -9.7190   17.2566 C   0  0  0  0  0  0  0  0  0  0  0  0
    5.3488   -6.1737   26.5092 C   0  0  0  0  0  0  0  0  0  0  0  0
    7.4567   -6.9464   27.2858 C   0  0  0  0  0  0  0  0  0  0  0  0
    0.1921   -5.7592   27.1123 C   0  0  0  0  0  0  0  0  0  0  0  0
    3.5517   -7.7407   25.9711 C   0  0  0  0  0  0  0  0  0  0  0  0
  1  4  4  0
  1 22  4  0
  2 20  4  0
  2 27  4  0
  3 12  4  0
  3 23  4  0
  4 25  4  0
  4 28  1  0
  5  8  4  0
  5 17  4  0
  6  7  4  0
  6 16  4  0
  7 18  4  0
  8 27  4  0
  9 13  4  0
  9 23  4  0
 10 11  1  0
 11 14  2  0
 11 27  1  0
 12 19  1  0
 12 24  4  0
 13 24  4  0
 15 18  1  0
 16 25  4  0
 16 26  4  0
 17 20  4  0
 17 28  1  0
 18 21  4  0
 21 26  4  0
 22 26  4  0
M  END
$$$$

 Created by Python create_sdf_string function

 28 30  0  0  0  0  0  0  0  0999 V2000
    5.7174   -8.4529   26.7190 C   0  0  0  0  0  0  0  0  0  0  0  0
    0.3974   -7.0711   27.5149 C   0  0  0  0  0  0  0  0  0  0  0  0
    2.5338   -7.6891   16.0102 C   0  0  0  0  0  0  0  0  0  0  0  0
    4.8690   -7.4380   26.4151 C   0  0  0  0  0  0  0  0  0  0  0  0
    2.3021   -5.6726   26.0378 C   0  0  0  0  0  0  0  0  0  0  0  0
    7.0880   -4.6163   27.0010 C   0  0  0  0  0  0  0  0  0  0  0  0
    8.3117   -4.3698   27.4436 C   0  0  0  0  0  0  0  0  0  0  0  0
    1.1339   -5.0515   26.3541 C   0  0  0  0  0  0  0  0  0  0  0  0
    4.8080   -8.0362   16.7101 C   0  0  0  0  0  0  0  0  0  0  0  0
   -1.2173   -3.9294   26.9717 O   0  0  0  0  0  0  0  0  0  0  0  0
   -1.0025   -5.0942   27.4586 C   0  0  0  0  0  0  0  0  0  0  0  0
    2.2474   -8.9123   16.6273 C   0  0  0  0  0  0  0  0  0  0  0  0
    4.4957   -9.2636   17.3041 C   0  0  0  0  0  0  0  0  0  0  0  0
   -1.8070   -5.6086   28.1920 O   0  0  0  0  0  0  0  0  0  0  0  0
   10.4296   -5.1799   28.3140 C   0  0  0  0  0  0  0  0  0  0  0  0
    6.6017   -5.9004   26.9187 C   0  0  0  0  0  0  0  0  0  0  0  0
    2.4761   -6.9940   26.4111 N   0  0  0  0  0  0  0  0  0  0  0  0
    9.1353   -5.4053   27.8239 C   0  0  0  0  0  0  0  0  0  0  0  0
    0.9922   -9.3232   16.5995 O   0  0  0  0  0  0  0  0  0  0  0  0
    1.5232   -7.6869   27.1182 C   0  0  0  0  0  0  0  0  0  0  0  0
    8.6878   -6.6715   27.7262 N   0  0  0  0  0  0  0  0  0  0  0  0
    6.9911   -8.2423   27.1808 C   0  0  0  0  0  0  0  0  0  0  0  0
    3.8436   -7.2758   16.0578 C   0  0  0  0  0  0  0  0  0  0  0  0
    3.1882   -9.7190   17.2566 C   0  0  0  0  0  0  0  0  0  0  0  0
    5.3488   -6.1737   26.5092 C   0  0  0  0  0  0  0  0  0  0  0  0
    7.4567   -6.9464   27.2858 C   0  0  0  0  0  0  0  0  0  0  0  0
    0.1921   -5.7592   27.1123 C   0  0  0  0  0  0  0  0  0  0  0  0
    3.5517   -7.7407   25.9711 C   0  0  0  0  0  0  0  0  0  0  0  0
  1  4  4  0
  1 22  4  0
  2 20  4  0
  2 27  4  0
  3 12  4  0
  3 23  4  0
  4 25  4  0
  4 28  1  0
  5  8  4  0
  5 17  4  0
  6  7  4  0
  6 16  4  0
  7 18  4  0
  8 27  4  0
  9 13  4  0
  9 23  4  0
 10 11  1  0
 11 14  2  0
 11 27  1  0
 12 19  1  0
 12 24  4  0
 13 24  4  0
 15 18  1  0
 16 25  4  0
 16 26  4  0
 17 20  4  0
 17 28  1  0
 18 21  4  0
 21 26  4  0
 22 26  4  0
M  END
$$$$

 Created by Python create_sdf_string function

 28 30  0  0  0  0  0  0  0  0999 V2000
    5.7174   -8.4529   26.7190 C   0  0  0  0  0  0  0  0  0  0  0  0
    0.3974   -7.0711   27.5149 C   0  0  0  0  0  0  0  0  0  0  0  0
    2.5338   -7.6891   16.0102 C   0  0  0  0  0  0  0  0  0  0  0  0
    4.8690   -7.4380   26.4151 C   0  0  0  0  0  0  0  0  0  0  0  0
    2.3021   -5.6726   26.0378 C   0  0  0  0  0  0  0  0  0  0  0  0
    7.0880   -4.6163   27.0010 C   0  0  0  0  0  0  0  0  0  0  0  0
    8.3117   -4.3698   27.4436 C   0  0  0  0  0  0  0  0  0  0  0  0
    1.1339   -5.0515   26.3541 C   0  0  0  0  0  0  0  0  0  0  0  0
    4.8080   -8.0362   16.7101 C   0  0  0  0  0  0  0  0  0  0  0  0
   -1.2173   -3.9294   26.9717 O   0  0  0  0  0  0  0  0  0  0  0  0
   -1.0025   -5.0942   27.4586 C   0  0  0  0  0  0  0  0  0  0  0  0
    2.2474   -8.9123   16.6273 C   0  0  0  0  0  0  0  0  0  0  0  0
    4.4957   -9.2636   17.3041 C   0  0  0  0  0  0  0  0  0  0  0  0
   -1.8070   -5.6086   28.1920 O   0  0  0  0  0  0  0  0  0  0  0  0
   10.4296   -5.1799   28.3140 C   0  0  0  0  0  0  0  0  0  0  0  0
    6.6017   -5.9004   26.9187 C   0  0  0  0  0  0  0  0  0  0  0  0
    2.4761   -6.9940   26.4111 N   0  0  0  0  0  0  0  0  0  0  0  0
    9.1353   -5.4053   27.8239 C   0  0  0  0  0  0  0  0  0  0  0  0
    0.9922   -9.3232   16.5995 O   0  0  0  0  0  0  0  0  0  0  0  0
    1.5232   -7.6869   27.1182 C   0  0  0  0  0  0  0  0  0  0  0  0
    8.6878   -6.6715   27.7262 N   0  0  0  0  0  0  0  0  0  0  0  0
    6.9911   -8.2423   27.1808 C   0  0  0  0  0  0  0  0  0  0  0  0
    3.8436   -7.2758   16.0578 C   0  0  0  0  0  0  0  0  0  0  0  0
    3.1882   -9.7190   17.2566 C   0  0  0  0  0  0  0  0  0  0  0  0
    5.3488   -6.1737   26.5092 C   0  0  0  0  0  0  0  0  0  0  0  0
    7.4567   -6.9464   27.2858 C   0  0  0  0  0  0  0  0  0  0  0  0
    0.1921   -5.7592   27.1123 C   0  0  0  0  0  0  0  0  0  0  0  0
    3.5517   -7.7407   25.9711 C   0  0  0  0  0  0  0  0  0  0  0  0
  1  4  4  0
  1 22  4  0
  2 20  4  0
  2 27  4  0
  3 12  4  0
  3 23  4  0
  4 25  4  0
  4 28  1  0
  5  8  4  0
  5 17  4  0
  6  7  4  0
  6 16  4  0
  7 18  4  0
  8 27  4  0
  9 13  4  0
  9 23  4  0
 10 11  1  0
 11 14  2  0
 11 27  1  0
 12 19  1  0
 12 24  4  0
 13 24  4  0
 15 18  1  0
 16 25  4  0
 16 26  4  0
 17 20  4  0
 17 28  1  0
 18 21  4  0
 21 26  4  0
 22 26  4  0
M  END
$$$$

 Created by Python create_sdf_string function

 28 30  0  0  0  0  0  0  0  0999 V2000
    5.7174   -8.4529   26.7190 C   0  0  0  0  0  0  0  0  0  0  0  0
    0.3974   -7.0711   27.5149 C   0  0  0  0  0  0  0  0  0  0  0  0
    2.5338   -7.6891   16.0102 C   0  0  0  0  0  0  0  0  0  0  0  0
    4.8690   -7.4380   26.4151 C   0  0  0  0  0  0  0  0  0  0  0  0
    2.3021   -5.6726   26.0378 C   0  0  0  0  0  0  0  0  0  0  0  0
    7.0880   -4.6163   27.0010 C   0  0  0  0  0  0  0  0  0  0  0  0
    8.3117   -4.3698   27.4436 C   0  0  0  0  0  0  0  0  0  0  0  0
    1.1339   -5.0515   26.3541 C   0  0  0  0  0  0  0  0  0  0  0  0
    4.8080   -8.0362   16.7101 C   0  0  0  0  0  0  0  0  0  0  0  0
   -1.2173   -3.9294   26.9717 O   0  0  0  0  0  0  0  0  0  0  0  0
   -1.0025   -5.0942   27.4586 C   0  0  0  0  0  0  0  0  0  0  0  0
    2.2474   -8.9123   16.6273 C   0  0  0  0  0  0  0  0  0  0  0  0
    4.4957   -9.2636   17.3041 C   0  0  0  0  0  0  0  0  0  0  0  0
   -1.8070   -5.6086   28.1920 O   0  0  0  0  0  0  0  0  0  0  0  0
   10.4296   -5.1799   28.3140 C   0  0  0  0  0  0  0  0  0  0  0  0
    6.6017   -5.9004   26.9187 C   0  0  0  0  0  0  0  0  0  0  0  0
    2.4761   -6.9940   26.4111 N   0  0  0  0  0  0  0  0  0  0  0  0
    9.1353   -5.4053   27.8239 C   0  0  0  0  0  0  0  0  0  0  0  0
    0.9922   -9.3232   16.5995 O   0  0  0  0  0  0  0  0  0  0  0  0
    1.5232   -7.6869   27.1182 C   0  0  0  0  0  0  0  0  0  0  0  0
    8.6878   -6.6715   27.7262 N   0  0  0  0  0  0  0  0  0  0  0  0
    6.9911   -8.2423   27.1808 C   0  0  0  0  0  0  0  0  0  0  0  0
    3.8436   -7.2758   16.0578 C   0  0  0  0  0  0  0  0  0  0  0  0
    3.1882   -9.7190   17.2566 C   0  0  0  0  0  0  0  0  0  0  0  0
    5.3488   -6.1737   26.5092 C   0  0  0  0  0  0  0  0  0  0  0  0
    7.4567   -6.9464   27.2858 C   0  0  0  0  0  0  0  0  0  0  0  0
    0.1921   -5.7592   27.1123 C   0  0  0  0  0  0  0  0  0  0  0  0
    3.5517   -7.7407   25.9711 C   0  0  0  0  0  0  0  0  0  0  0  0
  1  4  4  0
  1 22  4  0
  2 20  4  0
  2 27  4  0
  3 12  4  0
  3 23  4  0
  4 25  4  0
  4 28  1  0
  5  8  4  0
  5 17  4  0
  6  7  4  0
  6 16  4  0
  7 18  4  0
  8 27  4  0
  9 13  4  0
  9 23  4  0
 10 11  1  0
 11 14  2  0
 11 27  1  0
 12 19  1  0
 12 24  4  0
 13 24  4  0
 15 18  1  0
 16 25  4  0
 16 26  4  0
 17 20  4  0
 17 28  1  0
 18 21  4  0
 21 26  4  0
 22 26  4  0
M  END
$$$$

 Created by Python create_sdf_string function

 28 30  0  0  0  0  0  0  0  0999 V2000
    5.7174   -8.4529   26.7190 C   0  0  0  0  0  0  0  0  0  0  0  0
    0.3974   -7.0711   27.5149 C   0  0  0  0  0  0  0  0  0  0  0  0
    2.5338   -7.6891   16.0102 C   0  0  0  0  0  0  0  0  0  0  0  0
    4.8690   -7.4380   26.4151 C   0  0  0  0  0  0  0  0  0  0  0  0
    2.3021   -5.6726   26.0378 C   0  0  0  0  0  0  0  0  0  0  0  0
    7.0880   -4.6163   27.0010 C   0  0  0  0  0  0  0  0  0  0  0  0
    8.3117   -4.3698   27.4436 C   0  0  0  0  0  0  0  0  0  0  0  0
    1.1339   -5.0515   26.3541 C   0  0  0  0  0  0  0  0  0  0  0  0
    4.8080   -8.0362   16.7101 C   0  0  0  0  0  0  0  0  0  0  0  0
   -1.2173   -3.9294   26.9717 O   0  0  0  0  0  0  0  0  0  0  0  0
   -1.0025   -5.0942   27.4586 C   0  0  0  0  0  0  0  0  0  0  0  0
    2.2474   -8.9123   16.6273 C   0  0  0  0  0  0  0  0  0  0  0  0
    4.4957   -9.2636   17.3041 C   0  0  0  0  0  0  0  0  0  0  0  0
   -1.8070   -5.6086   28.1920 O   0  0  0  0  0  0  0  0  0  0  0  0
   10.4296   -5.1799   28.3140 C   0  0  0  0  0  0  0  0  0  0  0  0
    6.6017   -5.9004   26.9187 C   0  0  0  0  0  0  0  0  0  0  0  0
    2.4761   -6.9940   26.4111 N   0  0  0  0  0  0  0  0  0  0  0  0
    9.1353   -5.4053   27.8239 C   0  0  0  0  0  0  0  0  0  0  0  0
    0.9922   -9.3232   16.5995 O   0  0  0  0  0  0  0  0  0  0  0  0
    1.5232   -7.6869   27.1182 C   0  0  0  0  0  0  0  0  0  0  0  0
    8.6878   -6.6715   27.7262 N   0  0  0  0  0  0  0  0  0  0  0  0
    6.9911   -8.2423   27.1808 C   0  0  0  0  0  0  0  0  0  0  0  0
    3.8436   -7.2758   16.0578 C   0  0  0  0  0  0  0  0  0  0  0  0
    3.1882   -9.7190   17.2566 C   0  0  0  0  0  0  0  0  0  0  0  0
    5.3488   -6.1737   26.5092 C   0  0  0  0  0  0  0  0  0  0  0  0
    7.4567   -6.9464   27.2858 C   0  0  0  0  0  0  0  0  0  0  0  0
    0.1921   -5.7592   27.1123 C   0  0  0  0  0  0  0  0  0  0  0  0
    3.5517   -7.7407   25.9711 C   0  0  0  0  0  0  0  0  0  0  0  0
  1  4  4  0
  1 22  4  0
  2 20  4  0
  2 27  4  0
  3 12  4  0
  3 23  4  0
  4 25  4  0
  4 28  1  0
  5  8  4  0
  5 17  4  0
  6  7  4  0
  6 16  4  0
  7 18  4  0
  8 27  4  0
  9 13  4  0
  9 23  4  0
 10 11  1  0
 11 14  2  0
 11 27  1  0
 12 19  1  0
 12 24  4  0
 13 24  4  0
 15 18  1  0
 16 25  4  0
 16 26  4  0
 17 20  4  0
 17 28  1  0
 18 21  4  0
 21 26  4  0
 22 26  4  0
M  END
$$$$

 Created by Python create_sdf_string function

 28 30  0  0  0  0  0  0  0  0999 V2000
    5.7174   -8.4529   26.7190 C   0  0  0  0  0  0  0  0  0  0  0  0
    0.3974   -7.0711   27.5149 C   0  0  0  0  0  0  0  0  0  0  0  0
    2.5338   -7.6891   16.0102 C   0  0  0  0  0  0  0  0  0  0  0  0
    4.8690   -7.4380   26.4151 C   0  0  0  0  0  0  0  0  0  0  0  0
    2.3021   -5.6726   26.0378 C   0  0  0  0  0  0  0  0  0  0  0  0
    7.0880   -4.6163   27.0010 C   0  0  0  0  0  0  0  0  0  0  0  0
    8.3117   -4.3698   27.4436 C   0  0  0  0  0  0  0  0  0  0  0  0
    1.1339   -5.0515   26.3541 C   0  0  0  0  0  0  0  0  0  0  0  0
    4.8080   -8.0362   16.7101 C   0  0  0  0  0  0  0  0  0  0  0  0
   -1.2173   -3.9294   26.9717 O   0  0  0  0  0  0  0  0  0  0  0  0
   -1.0025   -5.0942   27.4586 C   0  0  0  0  0  0  0  0  0  0  0  0
    2.2474   -8.9123   16.6273 C   0  0  0  0  0  0  0  0  0  0  0  0
    4.4957   -9.2636   17.3041 C   0  0  0  0  0  0  0  0  0  0  0  0
   -1.8070   -5.6086   28.1920 O   0  0  0  0  0  0  0  0  0  0  0  0
   10.4296   -5.1799   28.3140 C   0  0  0  0  0  0  0  0  0  0  0  0
    6.6017   -5.9004   26.9187 C   0  0  0  0  0  0  0  0  0  0  0  0
    2.4761   -6.9940   26.4111 N   0  0  0  0  0  0  0  0  0  0  0  0
    9.1353   -5.4053   27.8239 C   0  0  0  0  0  0  0  0  0  0  0  0
    0.9922   -9.3232   16.5995 O   0  0  0  0  0  0  0  0  0  0  0  0
    1.5232   -7.6869   27.1182 C   0  0  0  0  0  0  0  0  0  0  0  0
    8.6878   -6.6715   27.7262 N   0  0  0  0  0  0  0  0  0  0  0  0
    6.9911   -8.2423   27.1808 C   0  0  0  0  0  0  0  0  0  0  0  0
    3.8436   -7.2758   16.0578 C   0  0  0  0  0  0  0  0  0  0  0  0
    3.1882   -9.7190   17.2566 C   0  0  0  0  0  0  0  0  0  0  0  0
    5.3488   -6.1737   26.5092 C   0  0  0  0  0  0  0  0  0  0  0  0
    7.4567   -6.9464   27.2858 C   0  0  0  0  0  0  0  0  0  0  0  0
    0.1921   -5.7592   27.1123 C   0  0  0  0  0  0  0  0  0  0  0  0
    3.5517   -7.7407   25.9711 C   0  0  0  0  0  0  0  0  0  0  0  0
  1  4  4  0
  1 22  4  0
  2 20  4  0
  2 27  4  0
  3 12  4  0
  3 23  4  0
  4 25  4  0
  4 28  1  0
  5  8  4  0
  5 17  4  0
  6  7  4  0
  6 16  4  0
  7 18  4  0
  8 27  4  0
  9 13  4  0
  9 23  4  0
 10 11  1  0
 11 14  2  0
 11 27  1  0
 12 19  1  0
 12 24  4  0
 13 24  4  0
 15 18  1  0
 16 25  4  0
 16 26  4  0
 17 20  4  0
 17 28  1  0
 18 21  4  0
 21 26  4  0
 22 26  4  0
M  END
$$$$

 Created by Python create_sdf_string function

 28 30  0  0  0  0  0  0  0  0999 V2000
    5.7174   -8.4529   26.7190 C   0  0  0  0  0  0  0  0  0  0  0  0
    0.3974   -7.0711   27.5149 C   0  0  0  0  0  0  0  0  0  0  0  0
    2.5338   -7.6891   16.0102 C   0  0  0  0  0  0  0  0  0  0  0  0
    4.8690   -7.4380   26.4151 C   0  0  0  0  0  0  0  0  0  0  0  0
    2.3021   -5.6726   26.0378 C   0  0  0  0  0  0  0  0  0  0  0  0
    7.0880   -4.6163   27.0010 C   0  0  0  0  0  0  0  0  0  0  0  0
    8.3117   -4.3698   27.4436 C   0  0  0  0  0  0  0  0  0  0  0  0
    1.1339   -5.0515   26.3541 C   0  0  0  0  0  0  0  0  0  0  0  0
    4.8080   -8.0362   16.7101 C   0  0  0  0  0  0  0  0  0  0  0  0
   -1.2173   -3.9294   26.9717 O   0  0  0  0  0  0  0  0  0  0  0  0
   -1.0025   -5.0942   27.4586 C   0  0  0  0  0  0  0  0  0  0  0  0
    2.2474   -8.9123   16.6273 C   0  0  0  0  0  0  0  0  0  0  0  0
    4.4957   -9.2636   17.3041 C   0  0  0  0  0  0  0  0  0  0  0  0
   -1.8070   -5.6086   28.1920 O   0  0  0  0  0  0  0  0  0  0  0  0
   10.4296   -5.1799   28.3140 C   0  0  0  0  0  0  0  0  0  0  0  0
    6.6017   -5.9004   26.9187 C   0  0  0  0  0  0  0  0  0  0  0  0
    2.4761   -6.9940   26.4111 N   0  0  0  0  0  0  0  0  0  0  0  0
    9.1353   -5.4053   27.8239 C   0  0  0  0  0  0  0  0  0  0  0  0
    0.9922   -9.3232   16.5995 O   0  0  0  0  0  0  0  0  0  0  0  0
    1.5232   -7.6869   27.1182 C   0  0  0  0  0  0  0  0  0  0  0  0
    8.6878   -6.6715   27.7262 N   0  0  0  0  0  0  0  0  0  0  0  0
    6.9911   -8.2423   27.1808 C   0  0  0  0  0  0  0  0  0  0  0  0
    3.8436   -7.2758   16.0578 C   0  0  0  0  0  0  0  0  0  0  0  0
    3.1882   -9.7190   17.2566 C   0  0  0  0  0  0  0  0  0  0  0  0
    5.3488   -6.1737   26.5092 C   0  0  0  0  0  0  0  0  0  0  0  0
    7.4567   -6.9464   27.2858 C   0  0  0  0  0  0  0  0  0  0  0  0
    0.1921   -5.7592   27.1123 C   0  0  0  0  0  0  0  0  0  0  0  0
    3.5517   -7.7407   25.9711 C   0  0  0  0  0  0  0  0  0  0  0  0
  1  4  4  0
  1 22  4  0
  2 20  4  0
  2 27  4  0
  3 12  4  0
  3 23  4  0
  4 25  4  0
  4 28  1  0
  5  8  4  0
  5 17  4  0
  6  7  4  0
  6 16  4  0
  7 18  4  0
  8 27  4  0
  9 13  4  0
  9 23  4  0
 10 11  1  0
 11 14  2  0
 11 27  1  0
 12 19  1  0
 12 24  4  0
 13 24  4  0
 15 18  1  0
 16 25  4  0
 16 26  4  0
 17 20  4  0
 17 28  1  0
 18 21  4  0
 21 26  4  0
 22 26  4  0
M  END
$$$$

 Created by Python create_sdf_string function

 28 30  0  0  0  0  0  0  0  0999 V2000
    5.7174   -8.4529   26.7190 C   0  0  0  0  0  0  0  0  0  0  0  0
    0.3974   -7.0711   27.5149 C   0  0  0  0  0  0  0  0  0  0  0  0
    2.5338   -7.6891   16.0102 C   0  0  0  0  0  0  0  0  0  0  0  0
    4.8690   -7.4380   26.4151 C   0  0  0  0  0  0  0  0  0  0  0  0
    2.3021   -5.6726   26.0378 C   0  0  0  0  0  0  0  0  0  0  0  0
    7.0880   -4.6163   27.0010 C   0  0  0  0  0  0  0  0  0  0  0  0
    8.3117   -4.3698   27.4436 C   0  0  0  0  0  0  0  0  0  0  0  0
    1.1339   -5.0515   26.3541 C   0  0  0  0  0  0  0  0  0  0  0  0
    4.8080   -8.0362   16.7101 C   0  0  0  0  0  0  0  0  0  0  0  0
   -1.2173   -3.9294   26.9717 O   0  0  0  0  0  0  0  0  0  0  0  0
   -1.0025   -5.0942   27.4586 C   0  0  0  0  0  0  0  0  0  0  0  0
    2.2474   -8.9123   16.6273 C   0  0  0  0  0  0  0  0  0  0  0  0
    4.4957   -9.2636   17.3041 C   0  0  0  0  0  0  0  0  0  0  0  0
   -1.8070   -5.6086   28.1920 O   0  0  0  0  0  0  0  0  0  0  0  0
   10.4296   -5.1799   28.3140 C   0  0  0  0  0  0  0  0  0  0  0  0
    6.6017   -5.9004   26.9187 C   0  0  0  0  0  0  0  0  0  0  0  0
    2.4761   -6.9940   26.4111 N   0  0  0  0  0  0  0  0  0  0  0  0
    9.1353   -5.4053   27.8239 C   0  0  0  0  0  0  0  0  0  0  0  0
    0.9922   -9.3232   16.5995 O   0  0  0  0  0  0  0  0  0  0  0  0
    1.5232   -7.6869   27.1182 C   0  0  0  0  0  0  0  0  0  0  0  0
    8.6878   -6.6715   27.7262 N   0  0  0  0  0  0  0  0  0  0  0  0
    6.9911   -8.2423   27.1808 C   0  0  0  0  0  0  0  0  0  0  0  0
    3.8436   -7.2758   16.0578 C   0  0  0  0  0  0  0  0  0  0  0  0
    3.1882   -9.7190   17.2566 C   0  0  0  0  0  0  0  0  0  0  0  0
    5.3488   -6.1737   26.5092 C   0  0  0  0  0  0  0  0  0  0  0  0
    7.4567   -6.9464   27.2858 C   0  0  0  0  0  0  0  0  0  0  0  0
    0.1921   -5.7592   27.1123 C   0  0  0  0  0  0  0  0  0  0  0  0
    3.5517   -7.7407   25.9711 C   0  0  0  0  0  0  0  0  0  0  0  0
  1  4  4  0
  1 22  4  0
  2 20  4  0
  2 27  4  0
  3 12  4  0
  3 23  4  0
  4 25  4  0
  4 28  1  0
  5  8  4  0
  5 17  4  0
  6  7  4  0
  6 16  4  0
  7 18  4  0
  8 27  4  0
  9 13  4  0
  9 23  4  0
 10 11  1  0
 11 14  2  0
 11 27  1  0
 12 19  1  0
 12 24  4  0
 13 24  4  0
 15 18  1  0
 16 25  4  0
 16 26  4  0
 17 20  4  0
 17 28  1  0
 18 21  4  0
 21 26  4  0
 22 26  4  0
M  END
$$$$

 Created by Python create_sdf_string function

 28 30  0  0  0  0  0  0  0  0999 V2000
    5.7174   -8.4529   26.7190 C   0  0  0  0  0  0  0  0  0  0  0  0
    0.3974   -7.0711   27.5149 C   0  0  0  0  0  0  0  0  0  0  0  0
    2.5338   -7.6891   16.0102 C   0  0  0  0  0  0  0  0  0  0  0  0
    4.8690   -7.4380   26.4151 C   0  0  0  0  0  0  0  0  0  0  0  0
    2.3021   -5.6726   26.0378 C   0  0  0  0  0  0  0  0  0  0  0  0
    7.0880   -4.6163   27.0010 C   0  0  0  0  0  0  0  0  0  0  0  0
    8.3117   -4.3698   27.4436 C   0  0  0  0  0  0  0  0  0  0  0  0
    1.1339   -5.0515   26.3541 C   0  0  0  0  0  0  0  0  0  0  0  0
    4.8080   -8.0362   16.7101 C   0  0  0  0  0  0  0  0  0  0  0  0
   -1.2173   -3.9294   26.9717 O   0  0  0  0  0  0  0  0  0  0  0  0
   -1.0025   -5.0942   27.4586 C   0  0  0  0  0  0  0  0  0  0  0  0
    2.2474   -8.9123   16.6273 C   0  0  0  0  0  0  0  0  0  0  0  0
    4.4957   -9.2636   17.3041 C   0  0  0  0  0  0  0  0  0  0  0  0
   -1.8070   -5.6086   28.1920 O   0  0  0  0  0  0  0  0  0  0  0  0
   10.4296   -5.1799   28.3140 C   0  0  0  0  0  0  0  0  0  0  0  0
    6.6017   -5.9004   26.9187 C   0  0  0  0  0  0  0  0  0  0  0  0
    2.4761   -6.9940   26.4111 N   0  0  0  0  0  0  0  0  0  0  0  0
    9.1353   -5.4053   27.8239 C   0  0  0  0  0  0  0  0  0  0  0  0
    0.9922   -9.3232   16.5995 O   0  0  0  0  0  0  0  0  0  0  0  0
    1.5232   -7.6869   27.1182 C   0  0  0  0  0  0  0  0  0  0  0  0
    8.6878   -6.6715   27.7262 N   0  0  0  0  0  0  0  0  0  0  0  0
    6.9911   -8.2423   27.1808 C   0  0  0  0  0  0  0  0  0  0  0  0
    3.8436   -7.2758   16.0578 C   0  0  0  0  0  0  0  0  0  0  0  0
    3.1882   -9.7190   17.2566 C   0  0  0  0  0  0  0  0  0  0  0  0
    5.3488   -6.1737   26.5092 C   0  0  0  0  0  0  0  0  0  0  0  0
    7.4567   -6.9464   27.2858 C   0  0  0  0  0  0  0  0  0  0  0  0
    0.1921   -5.7592   27.1123 C   0  0  0  0  0  0  0  0  0  0  0  0
    3.5517   -7.7407   25.9711 C   0  0  0  0  0  0  0  0  0  0  0  0
  1  4  4  0
  1 22  4  0
  2 20  4  0
  2 27  4  0
  3 12  4  0
  3 23  4  0
  4 25  4  0
  4 28  1  0
  5  8  4  0
  5 17  4  0
  6  7  4  0
  6 16  4  0
  7 18  4  0
  8 27  4  0
  9 13  4  0
  9 23  4  0
 10 11  1  0
 11 14  2  0
 11 27  1  0
 12 19  1  0
 12 24  4  0
 13 24  4  0
 15 18  1  0
 16 25  4  0
 16 26  4  0
 17 20  4  0
 17 28  1  0
 18 21  4  0
 21 26  4  0
 22 26  4  0
M  END
$$$$

 Created by Python create_sdf_string function

 28 30  0  0  0  0  0  0  0  0999 V2000
    5.7174   -8.4529   26.7190 C   0  0  0  0  0  0  0  0  0  0  0  0
    0.3974   -7.0711   27.5149 C   0  0  0  0  0  0  0  0  0  0  0  0
    2.5338   -7.6891   16.0102 C   0  0  0  0  0  0  0  0  0  0  0  0
    4.8690   -7.4380   26.4151 C   0  0  0  0  0  0  0  0  0  0  0  0
    2.3021   -5.6726   26.0378 C   0  0  0  0  0  0  0  0  0  0  0  0
    7.0880   -4.6163   27.0010 C   0  0  0  0  0  0  0  0  0  0  0  0
    8.3117   -4.3698   27.4436 C   0  0  0  0  0  0  0  0  0  0  0  0
    1.1339   -5.0515   26.3541 C   0  0  0  0  0  0  0  0  0  0  0  0
    4.8080   -8.0362   16.7101 C   0  0  0  0  0  0  0  0  0  0  0  0
   -1.2173   -3.9294   26.9717 O   0  0  0  0  0  0  0  0  0  0  0  0
   -1.0025   -5.0942   27.4586 C   0  0  0  0  0  0  0  0  0  0  0  0
    2.2474   -8.9123   16.6273 C   0  0  0  0  0  0  0  0  0  0  0  0
    4.4957   -9.2636   17.3041 C   0  0  0  0  0  0  0  0  0  0  0  0
   -1.8070   -5.6086   28.1920 O   0  0  0  0  0  0  0  0  0  0  0  0
   10.4296   -5.1799   28.3140 C   0  0  0  0  0  0  0  0  0  0  0  0
    6.6017   -5.9004   26.9187 C   0  0  0  0  0  0  0  0  0  0  0  0
    2.4761   -6.9940   26.4111 N   0  0  0  0  0  0  0  0  0  0  0  0
    9.1353   -5.4053   27.8239 C   0  0  0  0  0  0  0  0  0  0  0  0
    0.9922   -9.3232   16.5995 O   0  0  0  0  0  0  0  0  0  0  0  0
    1.5232   -7.6869   27.1182 C   0  0  0  0  0  0  0  0  0  0  0  0
    8.6878   -6.6715   27.7262 N   0  0  0  0  0  0  0  0  0  0  0  0
    6.9911   -8.2423   27.1808 C   0  0  0  0  0  0  0  0  0  0  0  0
    3.8436   -7.2758   16.0578 C   0  0  0  0  0  0  0  0  0  0  0  0
    3.1882   -9.7190   17.2566 C   0  0  0  0  0  0  0  0  0  0  0  0
    5.3488   -6.1737   26.5092 C   0  0  0  0  0  0  0  0  0  0  0  0
    7.4567   -6.9464   27.2858 C   0  0  0  0  0  0  0  0  0  0  0  0
    0.1921   -5.7592   27.1123 C   0  0  0  0  0  0  0  0  0  0  0  0
    3.5517   -7.7407   25.9711 C   0  0  0  0  0  0  0  0  0  0  0  0
  1  4  4  0
  1 22  4  0
  2 20  4  0
  2 27  4  0
  3 12  4  0
  3 23  4  0
  4 25  4  0
  4 28  1  0
  5  8  4  0
  5 17  4  0
  6  7  4  0
  6 16  4  0
  7 18  4  0
  8 27  4  0
  9 13  4  0
  9 23  4  0
 10 11  1  0
 11 14  2  0
 11 27  1  0
 12 19  1  0
 12 24  4  0
 13 24  4  0
 15 18  1  0
 16 25  4  0
 16 26  4  0
 17 20  4  0
 17 28  1  0
 18 21  4  0
 21 26  4  0
 22 26  4  0
M  END
$$$$

 Created by Python create_sdf_string function

 28 30  0  0  0  0  0  0  0  0999 V2000
    5.7174   -8.4529   26.7190 C   0  0  0  0  0  0  0  0  0  0  0  0
    0.3974   -7.0711   27.5149 C   0  0  0  0  0  0  0  0  0  0  0  0
    2.5338   -7.6891   16.0102 C   0  0  0  0  0  0  0  0  0  0  0  0
    4.8690   -7.4380   26.4151 C   0  0  0  0  0  0  0  0  0  0  0  0
    2.3021   -5.6726   26.0378 C   0  0  0  0  0  0  0  0  0  0  0  0
    7.0880   -4.6163   27.0010 C   0  0  0  0  0  0  0  0  0  0  0  0
    8.3117   -4.3698   27.4436 C   0  0  0  0  0  0  0  0  0  0  0  0
    1.1339   -5.0515   26.3541 C   0  0  0  0  0  0  0  0  0  0  0  0
    4.8080   -8.0362   16.7101 C   0  0  0  0  0  0  0  0  0  0  0  0
   -1.2173   -3.9294   26.9717 O   0  0  0  0  0  0  0  0  0  0  0  0
   -1.0025   -5.0942   27.4586 C   0  0  0  0  0  0  0  0  0  0  0  0
    2.2474   -8.9123   16.6273 C   0  0  0  0  0  0  0  0  0  0  0  0
    4.4957   -9.2636   17.3041 C   0  0  0  0  0  0  0  0  0  0  0  0
   -1.8070   -5.6086   28.1920 O   0  0  0  0  0  0  0  0  0  0  0  0
   10.4296   -5.1799   28.3140 C   0  0  0  0  0  0  0  0  0  0  0  0
    6.6017   -5.9004   26.9187 C   0  0  0  0  0  0  0  0  0  0  0  0
    2.4761   -6.9940   26.4111 N   0  0  0  0  0  0  0  0  0  0  0  0
    9.1353   -5.4053   27.8239 C   0  0  0  0  0  0  0  0  0  0  0  0
    0.9922   -9.3232   16.5995 O   0  0  0  0  0  0  0  0  0  0  0  0
    1.5232   -7.6869   27.1182 C   0  0  0  0  0  0  0  0  0  0  0  0
    8.6878   -6.6715   27.7262 N   0  0  0  0  0  0  0  0  0  0  0  0
    6.9911   -8.2423   27.1808 C   0  0  0  0  0  0  0  0  0  0  0  0
    3.8436   -7.2758   16.0578 C   0  0  0  0  0  0  0  0  0  0  0  0
    3.1882   -9.7190   17.2566 C   0  0  0  0  0  0  0  0  0  0  0  0
    5.3488   -6.1737   26.5092 C   0  0  0  0  0  0  0  0  0  0  0  0
    7.4567   -6.9464   27.2858 C   0  0  0  0  0  0  0  0  0  0  0  0
    0.1921   -5.7592   27.1123 C   0  0  0  0  0  0  0  0  0  0  0  0
    3.5517   -7.7407   25.9711 C   0  0  0  0  0  0  0  0  0  0  0  0
  1  4  4  0
  1 22  4  0
  2 20  4  0
  2 27  4  0
  3 12  4  0
  3 23  4  0
  4 25  4  0
  4 28  1  0
  5  8  4  0
  5 17  4  0
  6  7  4  0
  6 16  4  0
  7 18  4  0
  8 27  4  0
  9 13  4  0
  9 23  4  0
 10 11  1  0
 11 14  2  0
 11 27  1  0
 12 19  1  0
 12 24  4  0
 13 24  4  0
 15 18  1  0
 16 25  4  0
 16 26  4  0
 17 20  4  0
 17 28  1  0
 18 21  4  0
 21 26  4  0
 22 26  4  0
M  END
$$$$

 Created by Python create_sdf_string function

 28 30  0  0  0  0  0  0  0  0999 V2000
    5.7174   -8.4529   26.7190 C   0  0  0  0  0  0  0  0  0  0  0  0
    0.3974   -7.0711   27.5149 C   0  0  0  0  0  0  0  0  0  0  0  0
    2.5338   -7.6891   16.0102 C   0  0  0  0  0  0  0  0  0  0  0  0
    4.8690   -7.4380   26.4151 C   0  0  0  0  0  0  0  0  0  0  0  0
    2.3021   -5.6726   26.0378 C   0  0  0  0  0  0  0  0  0  0  0  0
    7.0880   -4.6163   27.0010 C   0  0  0  0  0  0  0  0  0  0  0  0
    8.3117   -4.3698   27.4436 C   0  0  0  0  0  0  0  0  0  0  0  0
    1.1339   -5.0515   26.3541 C   0  0  0  0  0  0  0  0  0  0  0  0
    4.8080   -8.0362   16.7101 C   0  0  0  0  0  0  0  0  0  0  0  0
   -1.2173   -3.9294   26.9717 O   0  0  0  0  0  0  0  0  0  0  0  0
   -1.0025   -5.0942   27.4586 C   0  0  0  0  0  0  0  0  0  0  0  0
    2.2474   -8.9123   16.6273 C   0  0  0  0  0  0  0  0  0  0  0  0
    4.4957   -9.2636   17.3041 C   0  0  0  0  0  0  0  0  0  0  0  0
   -1.8070   -5.6086   28.1920 O   0  0  0  0  0  0  0  0  0  0  0  0
   10.4296   -5.1799   28.3140 C   0  0  0  0  0  0  0  0  0  0  0  0
    6.6017   -5.9004   26.9187 C   0  0  0  0  0  0  0  0  0  0  0  0
    2.4761   -6.9940   26.4111 N   0  0  0  0  0  0  0  0  0  0  0  0
    9.1353   -5.4053   27.8239 C   0  0  0  0  0  0  0  0  0  0  0  0
    0.9922   -9.3232   16.5995 O   0  0  0  0  0  0  0  0  0  0  0  0
    1.5232   -7.6869   27.1182 C   0  0  0  0  0  0  0  0  0  0  0  0
    8.6878   -6.6715   27.7262 N   0  0  0  0  0  0  0  0  0  0  0  0
    6.9911   -8.2423   27.1808 C   0  0  0  0  0  0  0  0  0  0  0  0
    3.8436   -7.2758   16.0578 C   0  0  0  0  0  0  0  0  0  0  0  0
    3.1882   -9.7190   17.2566 C   0  0  0  0  0  0  0  0  0  0  0  0
    5.3488   -6.1737   26.5092 C   0  0  0  0  0  0  0  0  0  0  0  0
    7.4567   -6.9464   27.2858 C   0  0  0  0  0  0  0  0  0  0  0  0
    0.1921   -5.7592   27.1123 C   0  0  0  0  0  0  0  0  0  0  0  0
    3.5517   -7.7407   25.9711 C   0  0  0  0  0  0  0  0  0  0  0  0
  1  4  4  0
  1 22  4  0
  2 20  4  0
  2 27  4  0
  3 12  4  0
  3 23  4  0
  4 25  4  0
  4 28  1  0
  5  8  4  0
  5 17  4  0
  6  7  4  0
  6 16  4  0
  7 18  4  0
  8 27  4  0
  9 13  4  0
  9 23  4  0
 10 11  1  0
 11 14  2  0
 11 27  1  0
 12 19  1  0
 12 24  4  0
 13 24  4  0
 15 18  1  0
 16 25  4  0
 16 26  4  0
 17 20  4  0
 17 28  1  0
 18 21  4  0
 21 26  4  0
 22 26  4  0
M  END
$$$$

 Created by Python create_sdf_string function

 28 30  0  0  0  0  0  0  0  0999 V2000
    5.7174   -8.4529   26.7190 C   0  0  0  0  0  0  0  0  0  0  0  0
    0.3974   -7.0711   27.5149 C   0  0  0  0  0  0  0  0  0  0  0  0
    2.5338   -7.6891   16.0102 C   0  0  0  0  0  0  0  0  0  0  0  0
    4.8690   -7.4380   26.4151 C   0  0  0  0  0  0  0  0  0  0  0  0
    2.3021   -5.6726   26.0378 C   0  0  0  0  0  0  0  0  0  0  0  0
    7.0880   -4.6163   27.0010 C   0  0  0  0  0  0  0  0  0  0  0  0
    8.3117   -4.3698   27.4436 C   0  0  0  0  0  0  0  0  0  0  0  0
    1.1339   -5.0515   26.3541 C   0  0  0  0  0  0  0  0  0  0  0  0
    4.8080   -8.0362   16.7101 C   0  0  0  0  0  0  0  0  0  0  0  0
   -1.2173   -3.9294   26.9717 O   0  0  0  0  0  0  0  0  0  0  0  0
   -1.0025   -5.0942   27.4586 C   0  0  0  0  0  0  0  0  0  0  0  0
    2.2474   -8.9123   16.6273 C   0  0  0  0  0  0  0  0  0  0  0  0
    4.4957   -9.2636   17.3041 C   0  0  0  0  0  0  0  0  0  0  0  0
   -1.8070   -5.6086   28.1920 O   0  0  0  0  0  0  0  0  0  0  0  0
   10.4296   -5.1799   28.3140 C   0  0  0  0  0  0  0  0  0  0  0  0
    6.6017   -5.9004   26.9187 C   0  0  0  0  0  0  0  0  0  0  0  0
    2.4761   -6.9940   26.4111 N   0  0  0  0  0  0  0  0  0  0  0  0
    9.1353   -5.4053   27.8239 C   0  0  0  0  0  0  0  0  0  0  0  0
    0.9922   -9.3232   16.5995 O   0  0  0  0  0  0  0  0  0  0  0  0
    1.5232   -7.6869   27.1182 C   0  0  0  0  0  0  0  0  0  0  0  0
    8.6878   -6.6715   27.7262 N   0  0  0  0  0  0  0  0  0  0  0  0
    6.9911   -8.2423   27.1808 C   0  0  0  0  0  0  0  0  0  0  0  0
    3.8436   -7.2758   16.0578 C   0  0  0  0  0  0  0  0  0  0  0  0
    3.1882   -9.7190   17.2566 C   0  0  0  0  0  0  0  0  0  0  0  0
    5.3488   -6.1737   26.5092 C   0  0  0  0  0  0  0  0  0  0  0  0
    7.4567   -6.9464   27.2858 C   0  0  0  0  0  0  0  0  0  0  0  0
    0.1921   -5.7592   27.1123 C   0  0  0  0  0  0  0  0  0  0  0  0
    3.5517   -7.7407   25.9711 C   0  0  0  0  0  0  0  0  0  0  0  0
  1  4  4  0
  1 22  4  0
  2 20  4  0
  2 27  4  0
  3 12  4  0
  3 23  4  0
  4 25  4  0
  4 28  1  0
  5  8  4  0
  5 17  4  0
  6  7  4  0
  6 16  4  0
  7 18  4  0
  8 27  4  0
  9 13  4  0
  9 23  4  0
 10 11  1  0
 11 14  2  0
 11 27  1  0
 12 19  1  0
 12 24  4  0
 13 24  4  0
 15 18  1  0
 16 25  4  0
 16 26  4  0
 17 20  4  0
 17 28  1  0
 18 21  4  0
 21 26  4  0
 22 26  4  0
M  END
$$$$

 Created by Python create_sdf_string function

 28 30  0  0  0  0  0  0  0  0999 V2000
    5.7174   -8.4529   26.7190 C   0  0  0  0  0  0  0  0  0  0  0  0
    0.3974   -7.0711   27.5149 C   0  0  0  0  0  0  0  0  0  0  0  0
    2.5338   -7.6891   16.0102 C   0  0  0  0  0  0  0  0  0  0  0  0
    4.8690   -7.4380   26.4151 C   0  0  0  0  0  0  0  0  0  0  0  0
    2.3021   -5.6726   26.0378 C   0  0  0  0  0  0  0  0  0  0  0  0
    7.0880   -4.6163   27.0010 C   0  0  0  0  0  0  0  0  0  0  0  0
    8.3117   -4.3698   27.4436 C   0  0  0  0  0  0  0  0  0  0  0  0
    1.1339   -5.0515   26.3541 C   0  0  0  0  0  0  0  0  0  0  0  0
    4.8080   -8.0362   16.7101 C   0  0  0  0  0  0  0  0  0  0  0  0
   -1.2173   -3.9294   26.9717 O   0  0  0  0  0  0  0  0  0  0  0  0
   -1.0025   -5.0942   27.4586 C   0  0  0  0  0  0  0  0  0  0  0  0
    2.2474   -8.9123   16.6273 C   0  0  0  0  0  0  0  0  0  0  0  0
    4.4957   -9.2636   17.3041 C   0  0  0  0  0  0  0  0  0  0  0  0
   -1.8070   -5.6086   28.1920 O   0  0  0  0  0  0  0  0  0  0  0  0
   10.4296   -5.1799   28.3140 C   0  0  0  0  0  0  0  0  0  0  0  0
    6.6017   -5.9004   26.9187 C   0  0  0  0  0  0  0  0  0  0  0  0
    2.4761   -6.9940   26.4111 N   0  0  0  0  0  0  0  0  0  0  0  0
    9.1353   -5.4053   27.8239 C   0  0  0  0  0  0  0  0  0  0  0  0
    0.9922   -9.3232   16.5995 O   0  0  0  0  0  0  0  0  0  0  0  0
    1.5232   -7.6869   27.1182 C   0  0  0  0  0  0  0  0  0  0  0  0
    8.6878   -6.6715   27.7262 N   0  0  0  0  0  0  0  0  0  0  0  0
    6.9911   -8.2423   27.1808 C   0  0  0  0  0  0  0  0  0  0  0  0
    3.8436   -7.2758   16.0578 C   0  0  0  0  0  0  0  0  0  0  0  0
    3.1882   -9.7190   17.2566 C   0  0  0  0  0  0  0  0  0  0  0  0
    5.3488   -6.1737   26.5092 C   0  0  0  0  0  0  0  0  0  0  0  0
    7.4567   -6.9464   27.2858 C   0  0  0  0  0  0  0  0  0  0  0  0
    0.1921   -5.7592   27.1123 C   0  0  0  0  0  0  0  0  0  0  0  0
    3.5517   -7.7407   25.9711 C   0  0  0  0  0  0  0  0  0  0  0  0
  1  4  4  0
  1 22  4  0
  2 20  4  0
  2 27  4  0
  3 12  4  0
  3 23  4  0
  4 25  4  0
  4 28  1  0
  5  8  4  0
  5 17  4  0
  6  7  4  0
  6 16  4  0
  7 18  4  0
  8 27  4  0
  9 13  4  0
  9 23  4  0
 10 11  1  0
 11 14  2  0
 11 27  1  0
 12 19  1  0
 12 24  4  0
 13 24  4  0
 15 18  1  0
 16 25  4  0
 16 26  4  0
 17 20  4  0
 17 28  1  0
 18 21  4  0
 21 26  4  0
 22 26  4  0
M  END
$$$$

 Created by Python create_sdf_string function

 28 30  0  0  0  0  0  0  0  0999 V2000
    5.7174   -8.4529   26.7190 C   0  0  0  0  0  0  0  0  0  0  0  0
    0.3974   -7.0711   27.5149 C   0  0  0  0  0  0  0  0  0  0  0  0
    2.5338   -7.6891   16.0102 C   0  0  0  0  0  0  0  0  0  0  0  0
    4.8690   -7.4380   26.4151 C   0  0  0  0  0  0  0  0  0  0  0  0
    2.3021   -5.6726   26.0378 C   0  0  0  0  0  0  0  0  0  0  0  0
    7.0880   -4.6163   27.0010 C   0  0  0  0  0  0  0  0  0  0  0  0
    8.3117   -4.3698   27.4436 C   0  0  0  0  0  0  0  0  0  0  0  0
    1.1339   -5.0515   26.3541 C   0  0  0  0  0  0  0  0  0  0  0  0
    4.8080   -8.0362   16.7101 C   0  0  0  0  0  0  0  0  0  0  0  0
   -1.2173   -3.9294   26.9717 O   0  0  0  0  0  0  0  0  0  0  0  0
   -1.0025   -5.0942   27.4586 C   0  0  0  0  0  0  0  0  0  0  0  0
    2.2474   -8.9123   16.6273 C   0  0  0  0  0  0  0  0  0  0  0  0
    4.4957   -9.2636   17.3041 C   0  0  0  0  0  0  0  0  0  0  0  0
   -1.8070   -5.6086   28.1920 O   0  0  0  0  0  0  0  0  0  0  0  0
   10.4296   -5.1799   28.3140 C   0  0  0  0  0  0  0  0  0  0  0  0
    6.6017   -5.9004   26.9187 C   0  0  0  0  0  0  0  0  0  0  0  0
    2.4761   -6.9940   26.4111 N   0  0  0  0  0  0  0  0  0  0  0  0
    9.1353   -5.4053   27.8239 C   0  0  0  0  0  0  0  0  0  0  0  0
    0.9922   -9.3232   16.5995 O   0  0  0  0  0  0  0  0  0  0  0  0
    1.5232   -7.6869   27.1182 C   0  0  0  0  0  0  0  0  0  0  0  0
    8.6878   -6.6715   27.7262 N   0  0  0  0  0  0  0  0  0  0  0  0
    6.9911   -8.2423   27.1808 C   0  0  0  0  0  0  0  0  0  0  0  0
    3.8436   -7.2758   16.0578 C   0  0  0  0  0  0  0  0  0  0  0  0
    3.1882   -9.7190   17.2566 C   0  0  0  0  0  0  0  0  0  0  0  0
    5.3488   -6.1737   26.5092 C   0  0  0  0  0  0  0  0  0  0  0  0
    7.4567   -6.9464   27.2858 C   0  0  0  0  0  0  0  0  0  0  0  0
    0.1921   -5.7592   27.1123 C   0  0  0  0  0  0  0  0  0  0  0  0
    3.5517   -7.7407   25.9711 C   0  0  0  0  0  0  0  0  0  0  0  0
  1  4  4  0
  1 22  4  0
  2 20  4  0
  2 27  4  0
  3 12  4  0
  3 23  4  0
  4 25  4  0
  4 28  1  0
  5  8  4  0
  5 17  4  0
  6  7  4  0
  6 16  4  0
  7 18  4  0
  8 27  4  0
  9 13  4  0
  9 23  4  0
 10 11  1  0
 11 14  2  0
 11 27  1  0
 12 19  1  0
 12 24  4  0
 13 24  4  0
 15 18  1  0
 16 25  4  0
 16 26  4  0
 17 20  4  0
 17 28  1  0
 18 21  4  0
 21 26  4  0
 22 26  4  0
M  END
$$$$

 Created by Python create_sdf_string function

 28 30  0  0  0  0  0  0  0  0999 V2000
    5.7174   -8.4529   26.7190 C   0  0  0  0  0  0  0  0  0  0  0  0
    0.3974   -7.0711   27.5149 C   0  0  0  0  0  0  0  0  0  0  0  0
    2.5338   -7.6891   16.0102 C   0  0  0  0  0  0  0  0  0  0  0  0
    4.8690   -7.4380   26.4151 C   0  0  0  0  0  0  0  0  0  0  0  0
    2.3021   -5.6726   26.0378 C   0  0  0  0  0  0  0  0  0  0  0  0
    7.0880   -4.6163   27.0010 C   0  0  0  0  0  0  0  0  0  0  0  0
    8.3117   -4.3698   27.4436 C   0  0  0  0  0  0  0  0  0  0  0  0
    1.1339   -5.0515   26.3541 C   0  0  0  0  0  0  0  0  0  0  0  0
    4.8080   -8.0362   16.7101 C   0  0  0  0  0  0  0  0  0  0  0  0
   -1.2173   -3.9294   26.9717 O   0  0  0  0  0  0  0  0  0  0  0  0
   -1.0025   -5.0942   27.4586 C   0  0  0  0  0  0  0  0  0  0  0  0
    2.2474   -8.9123   16.6273 C   0  0  0  0  0  0  0  0  0  0  0  0
    4.4957   -9.2636   17.3041 C   0  0  0  0  0  0  0  0  0  0  0  0
   -1.8070   -5.6086   28.1920 O   0  0  0  0  0  0  0  0  0  0  0  0
   10.4296   -5.1799   28.3140 C   0  0  0  0  0  0  0  0  0  0  0  0
    6.6017   -5.9004   26.9187 C   0  0  0  0  0  0  0  0  0  0  0  0
    2.4761   -6.9940   26.4111 N   0  0  0  0  0  0  0  0  0  0  0  0
    9.1353   -5.4053   27.8239 C   0  0  0  0  0  0  0  0  0  0  0  0
    0.9922   -9.3232   16.5995 O   0  0  0  0  0  0  0  0  0  0  0  0
    1.5232   -7.6869   27.1182 C   0  0  0  0  0  0  0  0  0  0  0  0
    8.6878   -6.6715   27.7262 N   0  0  0  0  0  0  0  0  0  0  0  0
    6.9911   -8.2423   27.1808 C   0  0  0  0  0  0  0  0  0  0  0  0
    3.8436   -7.2758   16.0578 C   0  0  0  0  0  0  0  0  0  0  0  0
    3.1882   -9.7190   17.2566 C   0  0  0  0  0  0  0  0  0  0  0  0
    5.3488   -6.1737   26.5092 C   0  0  0  0  0  0  0  0  0  0  0  0
    7.4567   -6.9464   27.2858 C   0  0  0  0  0  0  0  0  0  0  0  0
    0.1921   -5.7592   27.1123 C   0  0  0  0  0  0  0  0  0  0  0  0
    3.5517   -7.7407   25.9711 C   0  0  0  0  0  0  0  0  0  0  0  0
  1  4  4  0
  1 22  4  0
  2 20  4  0
  2 27  4  0
  3 12  4  0
  3 23  4  0
  4 25  4  0
  4 28  1  0
  5  8  4  0
  5 17  4  0
  6  7  4  0
  6 16  4  0
  7 18  4  0
  8 27  4  0
  9 13  4  0
  9 23  4  0
 10 11  1  0
 11 14  2  0
 11 27  1  0
 12 19  1  0
 12 24  4  0
 13 24  4  0
 15 18  1  0
 16 25  4  0
 16 26  4  0
 17 20  4  0
 17 28  1  0
 18 21  4  0
 21 26  4  0
 22 26  4  0
M  END
$$$$

 Created by Python create_sdf_string function

 28 30  0  0  0  0  0  0  0  0999 V2000
    5.7174   -8.4529   26.7190 C   0  0  0  0  0  0  0  0  0  0  0  0
    0.3974   -7.0711   27.5149 C   0  0  0  0  0  0  0  0  0  0  0  0
    2.5338   -7.6891   16.0102 C   0  0  0  0  0  0  0  0  0  0  0  0
    4.8690   -7.4380   26.4151 C   0  0  0  0  0  0  0  0  0  0  0  0
    2.3021   -5.6726   26.0378 C   0  0  0  0  0  0  0  0  0  0  0  0
    7.0880   -4.6163   27.0010 C   0  0  0  0  0  0  0  0  0  0  0  0
    8.3117   -4.3698   27.4436 C   0  0  0  0  0  0  0  0  0  0  0  0
    1.1339   -5.0515   26.3541 C   0  0  0  0  0  0  0  0  0  0  0  0
    4.8080   -8.0362   16.7101 C   0  0  0  0  0  0  0  0  0  0  0  0
   -1.2173   -3.9294   26.9717 O   0  0  0  0  0  0  0  0  0  0  0  0
   -1.0025   -5.0942   27.4586 C   0  0  0  0  0  0  0  0  0  0  0  0
    2.2474   -8.9123   16.6273 C   0  0  0  0  0  0  0  0  0  0  0  0
    4.4957   -9.2636   17.3041 C   0  0  0  0  0  0  0  0  0  0  0  0
   -1.8070   -5.6086   28.1920 O   0  0  0  0  0  0  0  0  0  0  0  0
   10.4296   -5.1799   28.3140 C   0  0  0  0  0  0  0  0  0  0  0  0
    6.6017   -5.9004   26.9187 C   0  0  0  0  0  0  0  0  0  0  0  0
    2.4761   -6.9940   26.4111 N   0  0  0  0  0  0  0  0  0  0  0  0
    9.1353   -5.4053   27.8239 C   0  0  0  0  0  0  0  0  0  0  0  0
    0.9922   -9.3232   16.5995 O   0  0  0  0  0  0  0  0  0  0  0  0
    1.5232   -7.6869   27.1182 C   0  0  0  0  0  0  0  0  0  0  0  0
    8.6878   -6.6715   27.7262 N   0  0  0  0  0  0  0  0  0  0  0  0
    6.9911   -8.2423   27.1808 C   0  0  0  0  0  0  0  0  0  0  0  0
    3.8436   -7.2758   16.0578 C   0  0  0  0  0  0  0  0  0  0  0  0
    3.1882   -9.7190   17.2566 C   0  0  0  0  0  0  0  0  0  0  0  0
    5.3488   -6.1737   26.5092 C   0  0  0  0  0  0  0  0  0  0  0  0
    7.4567   -6.9464   27.2858 C   0  0  0  0  0  0  0  0  0  0  0  0
    0.1921   -5.7592   27.1123 C   0  0  0  0  0  0  0  0  0  0  0  0
    3.5517   -7.7407   25.9711 C   0  0  0  0  0  0  0  0  0  0  0  0
  1  4  4  0
  1 22  4  0
  2 20  4  0
  2 27  4  0
  3 12  4  0
  3 23  4  0
  4 25  4  0
  4 28  1  0
  5  8  4  0
  5 17  4  0
  6  7  4  0
  6 16  4  0
  7 18  4  0
  8 27  4  0
  9 13  4  0
  9 23  4  0
 10 11  1  0
 11 14  2  0
 11 27  1  0
 12 19  1  0
 12 24  4  0
 13 24  4  0
 15 18  1  0
 16 25  4  0
 16 26  4  0
 17 20  4  0
 17 28  1  0
 18 21  4  0
 21 26  4  0
 22 26  4  0
M  END
$$$$

 Created by Python create_sdf_string function

 28 30  0  0  0  0  0  0  0  0999 V2000
    5.7174   -8.4529   26.7190 C   0  0  0  0  0  0  0  0  0  0  0  0
    0.3974   -7.0711   27.5149 C   0  0  0  0  0  0  0  0  0  0  0  0
    2.5338   -7.6891   16.0102 C   0  0  0  0  0  0  0  0  0  0  0  0
    4.8690   -7.4380   26.4151 C   0  0  0  0  0  0  0  0  0  0  0  0
    2.3021   -5.6726   26.0378 C   0  0  0  0  0  0  0  0  0  0  0  0
    7.0880   -4.6163   27.0010 C   0  0  0  0  0  0  0  0  0  0  0  0
    8.3117   -4.3698   27.4436 C   0  0  0  0  0  0  0  0  0  0  0  0
    1.1339   -5.0515   26.3541 C   0  0  0  0  0  0  0  0  0  0  0  0
    4.8080   -8.0362   16.7101 C   0  0  0  0  0  0  0  0  0  0  0  0
   -1.2173   -3.9294   26.9717 O   0  0  0  0  0  0  0  0  0  0  0  0
   -1.0025   -5.0942   27.4586 C   0  0  0  0  0  0  0  0  0  0  0  0
    2.2474   -8.9123   16.6273 C   0  0  0  0  0  0  0  0  0  0  0  0
    4.4957   -9.2636   17.3041 C   0  0  0  0  0  0  0  0  0  0  0  0
   -1.8070   -5.6086   28.1920 O   0  0  0  0  0  0  0  0  0  0  0  0
   10.4296   -5.1799   28.3140 C   0  0  0  0  0  0  0  0  0  0  0  0
    6.6017   -5.9004   26.9187 C   0  0  0  0  0  0  0  0  0  0  0  0
    2.4761   -6.9940   26.4111 N   0  0  0  0  0  0  0  0  0  0  0  0
    9.1353   -5.4053   27.8239 C   0  0  0  0  0  0  0  0  0  0  0  0
    0.9922   -9.3232   16.5995 O   0  0  0  0  0  0  0  0  0  0  0  0
    1.5232   -7.6869   27.1182 C   0  0  0  0  0  0  0  0  0  0  0  0
    8.6878   -6.6715   27.7262 N   0  0  0  0  0  0  0  0  0  0  0  0
    6.9911   -8.2423   27.1808 C   0  0  0  0  0  0  0  0  0  0  0  0
    3.8436   -7.2758   16.0578 C   0  0  0  0  0  0  0  0  0  0  0  0
    3.1882   -9.7190   17.2566 C   0  0  0  0  0  0  0  0  0  0  0  0
    5.3488   -6.1737   26.5092 C   0  0  0  0  0  0  0  0  0  0  0  0
    7.4567   -6.9464   27.2858 C   0  0  0  0  0  0  0  0  0  0  0  0
    0.1921   -5.7592   27.1123 C   0  0  0  0  0  0  0  0  0  0  0  0
    3.5517   -7.7407   25.9711 C   0  0  0  0  0  0  0  0  0  0  0  0
  1  4  4  0
  1 22  4  0
  2 20  4  0
  2 27  4  0
  3 12  4  0
  3 23  4  0
  4 25  4  0
  4 28  1  0
  5  8  4  0
  5 17  4  0
  6  7  4  0
  6 16  4  0
  7 18  4  0
  8 27  4  0
  9 13  4  0
  9 23  4  0
 10 11  1  0
 11 14  2  0
 11 27  1  0
 12 19  1  0
 12 24  4  0
 13 24  4  0
 15 18  1  0
 16 25  4  0
 16 26  4  0
 17 20  4  0
 17 28  1  0
 18 21  4  0
 21 26  4  0
 22 26  4  0
M  END
$$$$

 Created by Python create_sdf_string function

 28 30  0  0  0  0  0  0  0  0999 V2000
    5.7174   -8.4529   26.7190 C   0  0  0  0  0  0  0  0  0  0  0  0
    0.3974   -7.0711   27.5149 C   0  0  0  0  0  0  0  0  0  0  0  0
    2.5338   -7.6891   16.0102 C   0  0  0  0  0  0  0  0  0  0  0  0
    4.8690   -7.4380   26.4151 C   0  0  0  0  0  0  0  0  0  0  0  0
    2.3021   -5.6726   26.0378 C   0  0  0  0  0  0  0  0  0  0  0  0
    7.0880   -4.6163   27.0010 C   0  0  0  0  0  0  0  0  0  0  0  0
    8.3117   -4.3698   27.4436 C   0  0  0  0  0  0  0  0  0  0  0  0
    1.1339   -5.0515   26.3541 C   0  0  0  0  0  0  0  0  0  0  0  0
    4.8080   -8.0362   16.7101 C   0  0  0  0  0  0  0  0  0  0  0  0
   -1.2173   -3.9294   26.9717 O   0  0  0  0  0  0  0  0  0  0  0  0
   -1.0025   -5.0942   27.4586 C   0  0  0  0  0  0  0  0  0  0  0  0
    2.2474   -8.9123   16.6273 C   0  0  0  0  0  0  0  0  0  0  0  0
    4.4957   -9.2636   17.3041 C   0  0  0  0  0  0  0  0  0  0  0  0
   -1.8070   -5.6086   28.1920 O   0  0  0  0  0  0  0  0  0  0  0  0
   10.4296   -5.1799   28.3140 C   0  0  0  0  0  0  0  0  0  0  0  0
    6.6017   -5.9004   26.9187 C   0  0  0  0  0  0  0  0  0  0  0  0
    2.4761   -6.9940   26.4111 N   0  0  0  0  0  0  0  0  0  0  0  0
    9.1353   -5.4053   27.8239 C   0  0  0  0  0  0  0  0  0  0  0  0
    0.9922   -9.3232   16.5995 O   0  0  0  0  0  0  0  0  0  0  0  0
    1.5232   -7.6869   27.1182 C   0  0  0  0  0  0  0  0  0  0  0  0
    8.6878   -6.6715   27.7262 N   0  0  0  0  0  0  0  0  0  0  0  0
    6.9911   -8.2423   27.1808 C   0  0  0  0  0  0  0  0  0  0  0  0
    3.8436   -7.2758   16.0578 C   0  0  0  0  0  0  0  0  0  0  0  0
    3.1882   -9.7190   17.2566 C   0  0  0  0  0  0  0  0  0  0  0  0
    5.3488   -6.1737   26.5092 C   0  0  0  0  0  0  0  0  0  0  0  0
    7.4567   -6.9464   27.2858 C   0  0  0  0  0  0  0  0  0  0  0  0
    0.1921   -5.7592   27.1123 C   0  0  0  0  0  0  0  0  0  0  0  0
    3.5517   -7.7407   25.9711 C   0  0  0  0  0  0  0  0  0  0  0  0
  1  4  4  0
  1 22  4  0
  2 20  4  0
  2 27  4  0
  3 12  4  0
  3 23  4  0
  4 25  4  0
  4 28  1  0
  5  8  4  0
  5 17  4  0
  6  7  4  0
  6 16  4  0
  7 18  4  0
  8 27  4  0
  9 13  4  0
  9 23  4  0
 10 11  1  0
 11 14  2  0
 11 27  1  0
 12 19  1  0
 12 24  4  0
 13 24  4  0
 15 18  1  0
 16 25  4  0
 16 26  4  0
 17 20  4  0
 17 28  1  0
 18 21  4  0
 21 26  4  0
 22 26  4  0
M  END
$$$$

 Created by Python create_sdf_string function

 28 30  0  0  0  0  0  0  0  0999 V2000
    5.7174   -8.4529   26.7190 C   0  0  0  0  0  0  0  0  0  0  0  0
    0.3974   -7.0711   27.5149 C   0  0  0  0  0  0  0  0  0  0  0  0
    2.5338   -7.6891   16.0102 C   0  0  0  0  0  0  0  0  0  0  0  0
    4.8690   -7.4380   26.4151 C   0  0  0  0  0  0  0  0  0  0  0  0
    2.3021   -5.6726   26.0378 C   0  0  0  0  0  0  0  0  0  0  0  0
    7.0880   -4.6163   27.0010 C   0  0  0  0  0  0  0  0  0  0  0  0
    8.3117   -4.3698   27.4436 C   0  0  0  0  0  0  0  0  0  0  0  0
    1.1339   -5.0515   26.3541 C   0  0  0  0  0  0  0  0  0  0  0  0
    4.8080   -8.0362   16.7101 C   0  0  0  0  0  0  0  0  0  0  0  0
   -1.2173   -3.9294   26.9717 O   0  0  0  0  0  0  0  0  0  0  0  0
   -1.0025   -5.0942   27.4586 C   0  0  0  0  0  0  0  0  0  0  0  0
    2.2474   -8.9123   16.6273 C   0  0  0  0  0  0  0  0  0  0  0  0
    4.4957   -9.2636   17.3041 C   0  0  0  0  0  0  0  0  0  0  0  0
   -1.8070   -5.6086   28.1920 O   0  0  0  0  0  0  0  0  0  0  0  0
   10.4296   -5.1799   28.3140 C   0  0  0  0  0  0  0  0  0  0  0  0
    6.6017   -5.9004   26.9187 C   0  0  0  0  0  0  0  0  0  0  0  0
    2.4761   -6.9940   26.4111 N   0  0  0  0  0  0  0  0  0  0  0  0
    9.1353   -5.4053   27.8239 C   0  0  0  0  0  0  0  0  0  0  0  0
    0.9922   -9.3232   16.5995 O   0  0  0  0  0  0  0  0  0  0  0  0
    1.5232   -7.6869   27.1182 C   0  0  0  0  0  0  0  0  0  0  0  0
    8.6878   -6.6715   27.7262 N   0  0  0  0  0  0  0  0  0  0  0  0
    6.9911   -8.2423   27.1808 C   0  0  0  0  0  0  0  0  0  0  0  0
    3.8436   -7.2758   16.0578 C   0  0  0  0  0  0  0  0  0  0  0  0
    3.1882   -9.7190   17.2566 C   0  0  0  0  0  0  0  0  0  0  0  0
    5.3488   -6.1737   26.5092 C   0  0  0  0  0  0  0  0  0  0  0  0
    7.4567   -6.9464   27.2858 C   0  0  0  0  0  0  0  0  0  0  0  0
    0.1921   -5.7592   27.1123 C   0  0  0  0  0  0  0  0  0  0  0  0
    3.5517   -7.7407   25.9711 C   0  0  0  0  0  0  0  0  0  0  0  0
  1  4  4  0
  1 22  4  0
  2 20  4  0
  2 27  4  0
  3 12  4  0
  3 23  4  0
  4 25  4  0
  4 28  1  0
  5  8  4  0
  5 17  4  0
  6  7  4  0
  6 16  4  0
  7 18  4  0
  8 27  4  0
  9 13  4  0
  9 23  4  0
 10 11  1  0
 11 14  2  0
 11 27  1  0
 12 19  1  0
 12 24  4  0
 13 24  4  0
 15 18  1  0
 16 25  4  0
 16 26  4  0
 17 20  4  0
 17 28  1  0
 18 21  4  0
 21 26  4  0
 22 26  4  0
M  END
$$$$

 Created by Python create_sdf_string function

 28 30  0  0  0  0  0  0  0  0999 V2000
    5.7174   -8.4529   26.7190 C   0  0  0  0  0  0  0  0  0  0  0  0
    0.3974   -7.0711   27.5149 C   0  0  0  0  0  0  0  0  0  0  0  0
    2.5338   -7.6891   16.0102 C   0  0  0  0  0  0  0  0  0  0  0  0
    4.8690   -7.4380   26.4151 C   0  0  0  0  0  0  0  0  0  0  0  0
    2.3021   -5.6726   26.0378 C   0  0  0  0  0  0  0  0  0  0  0  0
    7.0880   -4.6163   27.0010 C   0  0  0  0  0  0  0  0  0  0  0  0
    8.3117   -4.3698   27.4436 C   0  0  0  0  0  0  0  0  0  0  0  0
    1.1339   -5.0515   26.3541 C   0  0  0  0  0  0  0  0  0  0  0  0
    4.8080   -8.0362   16.7101 C   0  0  0  0  0  0  0  0  0  0  0  0
   -1.2173   -3.9294   26.9717 O   0  0  0  0  0  0  0  0  0  0  0  0
   -1.0025   -5.0942   27.4586 C   0  0  0  0  0  0  0  0  0  0  0  0
    2.2474   -8.9123   16.6273 C   0  0  0  0  0  0  0  0  0  0  0  0
    4.4957   -9.2636   17.3041 C   0  0  0  0  0  0  0  0  0  0  0  0
   -1.8070   -5.6086   28.1920 O   0  0  0  0  0  0  0  0  0  0  0  0
   10.4296   -5.1799   28.3140 C   0  0  0  0  0  0  0  0  0  0  0  0
    6.6017   -5.9004   26.9187 C   0  0  0  0  0  0  0  0  0  0  0  0
    2.4761   -6.9940   26.4111 N   0  0  0  0  0  0  0  0  0  0  0  0
    9.1353   -5.4053   27.8239 C   0  0  0  0  0  0  0  0  0  0  0  0
    0.9922   -9.3232   16.5995 O   0  0  0  0  0  0  0  0  0  0  0  0
    1.5232   -7.6869   27.1182 C   0  0  0  0  0  0  0  0  0  0  0  0
    8.6878   -6.6715   27.7262 N   0  0  0  0  0  0  0  0  0  0  0  0
    6.9911   -8.2423   27.1808 C   0  0  0  0  0  0  0  0  0  0  0  0
    3.8436   -7.2758   16.0578 C   0  0  0  0  0  0  0  0  0  0  0  0
    3.1882   -9.7190   17.2566 C   0  0  0  0  0  0  0  0  0  0  0  0
    5.3488   -6.1737   26.5092 C   0  0  0  0  0  0  0  0  0  0  0  0
    7.4567   -6.9464   27.2858 C   0  0  0  0  0  0  0  0  0  0  0  0
    0.1921   -5.7592   27.1123 C   0  0  0  0  0  0  0  0  0  0  0  0
    3.5517   -7.7407   25.9711 C   0  0  0  0  0  0  0  0  0  0  0  0
  1  4  4  0
  1 22  4  0
  2 20  4  0
  2 27  4  0
  3 12  4  0
  3 23  4  0
  4 25  4  0
  4 28  1  0
  5  8  4  0
  5 17  4  0
  6  7  4  0
  6 16  4  0
  7 18  4  0
  8 27  4  0
  9 13  4  0
  9 23  4  0
 10 11  1  0
 11 14  2  0
 11 27  1  0
 12 19  1  0
 12 24  4  0
 13 24  4  0
 15 18  1  0
 16 25  4  0
 16 26  4  0
 17 20  4  0
 17 28  1  0
 18 21  4  0
 21 26  4  0
 22 26  4  0
M  END
$$$$

 Created by Python create_sdf_string function

 28 30  0  0  0  0  0  0  0  0999 V2000
    5.7174   -8.4529   26.7190 C   0  0  0  0  0  0  0  0  0  0  0  0
    0.3974   -7.0711   27.5149 C   0  0  0  0  0  0  0  0  0  0  0  0
    2.5338   -7.6891   16.0102 C   0  0  0  0  0  0  0  0  0  0  0  0
    4.8690   -7.4380   26.4151 C   0  0  0  0  0  0  0  0  0  0  0  0
    2.3021   -5.6726   26.0378 C   0  0  0  0  0  0  0  0  0  0  0  0
    7.0880   -4.6163   27.0010 C   0  0  0  0  0  0  0  0  0  0  0  0
    8.3117   -4.3698   27.4436 C   0  0  0  0  0  0  0  0  0  0  0  0
    1.1339   -5.0515   26.3541 C   0  0  0  0  0  0  0  0  0  0  0  0
    4.8080   -8.0362   16.7101 C   0  0  0  0  0  0  0  0  0  0  0  0
   -1.2173   -3.9294   26.9717 O   0  0  0  0  0  0  0  0  0  0  0  0
   -1.0025   -5.0942   27.4586 C   0  0  0  0  0  0  0  0  0  0  0  0
    2.2474   -8.9123   16.6273 C   0  0  0  0  0  0  0  0  0  0  0  0
    4.4957   -9.2636   17.3041 C   0  0  0  0  0  0  0  0  0  0  0  0
   -1.8070   -5.6086   28.1920 O   0  0  0  0  0  0  0  0  0  0  0  0
   10.4296   -5.1799   28.3140 C   0  0  0  0  0  0  0  0  0  0  0  0
    6.6017   -5.9004   26.9187 C   0  0  0  0  0  0  0  0  0  0  0  0
    2.4761   -6.9940   26.4111 N   0  0  0  0  0  0  0  0  0  0  0  0
    9.1353   -5.4053   27.8239 C   0  0  0  0  0  0  0  0  0  0  0  0
    0.9922   -9.3232   16.5995 O   0  0  0  0  0  0  0  0  0  0  0  0
    1.5232   -7.6869   27.1182 C   0  0  0  0  0  0  0  0  0  0  0  0
    8.6878   -6.6715   27.7262 N   0  0  0  0  0  0  0  0  0  0  0  0
    6.9911   -8.2423   27.1808 C   0  0  0  0  0  0  0  0  0  0  0  0
    3.8436   -7.2758   16.0578 C   0  0  0  0  0  0  0  0  0  0  0  0
    3.1882   -9.7190   17.2566 C   0  0  0  0  0  0  0  0  0  0  0  0
    5.3488   -6.1737   26.5092 C   0  0  0  0  0  0  0  0  0  0  0  0
    7.4567   -6.9464   27.2858 C   0  0  0  0  0  0  0  0  0  0  0  0
    0.1921   -5.7592   27.1123 C   0  0  0  0  0  0  0  0  0  0  0  0
    3.5517   -7.7407   25.9711 C   0  0  0  0  0  0  0  0  0  0  0  0
  1  4  4  0
  1 22  4  0
  2 20  4  0
  2 27  4  0
  3 12  4  0
  3 23  4  0
  4 25  4  0
  4 28  1  0
  5  8  4  0
  5 17  4  0
  6  7  4  0
  6 16  4  0
  7 18  4  0
  8 27  4  0
  9 13  4  0
  9 23  4  0
 10 11  1  0
 11 14  2  0
 11 27  1  0
 12 19  1  0
 12 24  4  0
 13 24  4  0
 15 18  1  0
 16 25  4  0
 16 26  4  0
 17 20  4  0
 17 28  1  0
 18 21  4  0
 21 26  4  0
 22 26  4  0
M  END
$$$$

 Created by Python create_sdf_string function

 28 30  0  0  0  0  0  0  0  0999 V2000
    5.7174   -8.4529   26.7190 C   0  0  0  0  0  0  0  0  0  0  0  0
    0.3974   -7.0711   27.5149 C   0  0  0  0  0  0  0  0  0  0  0  0
    2.5338   -7.6891   16.0102 C   0  0  0  0  0  0  0  0  0  0  0  0
    4.8690   -7.4380   26.4151 C   0  0  0  0  0  0  0  0  0  0  0  0
    2.3021   -5.6726   26.0378 C   0  0  0  0  0  0  0  0  0  0  0  0
    7.0880   -4.6163   27.0010 C   0  0  0  0  0  0  0  0  0  0  0  0
    8.3117   -4.3698   27.4436 C   0  0  0  0  0  0  0  0  0  0  0  0
    1.1339   -5.0515   26.3541 C   0  0  0  0  0  0  0  0  0  0  0  0
    4.8080   -8.0362   16.7101 C   0  0  0  0  0  0  0  0  0  0  0  0
   -1.2173   -3.9294   26.9717 O   0  0  0  0  0  0  0  0  0  0  0  0
   -1.0025   -5.0942   27.4586 C   0  0  0  0  0  0  0  0  0  0  0  0
    2.2474   -8.9123   16.6273 C   0  0  0  0  0  0  0  0  0  0  0  0
    4.4957   -9.2636   17.3041 C   0  0  0  0  0  0  0  0  0  0  0  0
   -1.8070   -5.6086   28.1920 O   0  0  0  0  0  0  0  0  0  0  0  0
   10.4296   -5.1799   28.3140 C   0  0  0  0  0  0  0  0  0  0  0  0
    6.6017   -5.9004   26.9187 C   0  0  0  0  0  0  0  0  0  0  0  0
    2.4761   -6.9940   26.4111 N   0  0  0  0  0  0  0  0  0  0  0  0
    9.1353   -5.4053   27.8239 C   0  0  0  0  0  0  0  0  0  0  0  0
    0.9922   -9.3232   16.5995 O   0  0  0  0  0  0  0  0  0  0  0  0
    1.5232   -7.6869   27.1182 C   0  0  0  0  0  0  0  0  0  0  0  0
    8.6878   -6.6715   27.7262 N   0  0  0  0  0  0  0  0  0  0  0  0
    6.9911   -8.2423   27.1808 C   0  0  0  0  0  0  0  0  0  0  0  0
    3.8436   -7.2758   16.0578 C   0  0  0  0  0  0  0  0  0  0  0  0
    3.1882   -9.7190   17.2566 C   0  0  0  0  0  0  0  0  0  0  0  0
    5.3488   -6.1737   26.5092 C   0  0  0  0  0  0  0  0  0  0  0  0
    7.4567   -6.9464   27.2858 C   0  0  0  0  0  0  0  0  0  0  0  0
    0.1921   -5.7592   27.1123 C   0  0  0  0  0  0  0  0  0  0  0  0
    3.5517   -7.7407   25.9711 C   0  0  0  0  0  0  0  0  0  0  0  0
  1  4  4  0
  1 22  4  0
  2 20  4  0
  2 27  4  0
  3 12  4  0
  3 23  4  0
  4 25  4  0
  4 28  1  0
  5  8  4  0
  5 17  4  0
  6  7  4  0
  6 16  4  0
  7 18  4  0
  8 27  4  0
  9 13  4  0
  9 23  4  0
 10 11  1  0
 11 14  2  0
 11 27  1  0
 12 19  1  0
 12 24  4  0
 13 24  4  0
 15 18  1  0
 16 25  4  0
 16 26  4  0
 17 20  4  0
 17 28  1  0
 18 21  4  0
 21 26  4  0
 22 26  4  0
M  END
$$$$

 Created by Python create_sdf_string function

 28 30  0  0  0  0  0  0  0  0999 V2000
    5.7174   -8.4529   26.7190 C   0  0  0  0  0  0  0  0  0  0  0  0
    0.3974   -7.0711   27.5149 C   0  0  0  0  0  0  0  0  0  0  0  0
    2.5338   -7.6891   16.0102 C   0  0  0  0  0  0  0  0  0  0  0  0
    4.8690   -7.4380   26.4151 C   0  0  0  0  0  0  0  0  0  0  0  0
    2.3021   -5.6726   26.0378 C   0  0  0  0  0  0  0  0  0  0  0  0
    7.0880   -4.6163   27.0010 C   0  0  0  0  0  0  0  0  0  0  0  0
    8.3117   -4.3698   27.4436 C   0  0  0  0  0  0  0  0  0  0  0  0
    1.1339   -5.0515   26.3541 C   0  0  0  0  0  0  0  0  0  0  0  0
    4.8080   -8.0362   16.7101 C   0  0  0  0  0  0  0  0  0  0  0  0
   -1.2173   -3.9294   26.9717 O   0  0  0  0  0  0  0  0  0  0  0  0
   -1.0025   -5.0942   27.4586 C   0  0  0  0  0  0  0  0  0  0  0  0
    2.2474   -8.9123   16.6273 C   0  0  0  0  0  0  0  0  0  0  0  0
    4.4957   -9.2636   17.3041 C   0  0  0  0  0  0  0  0  0  0  0  0
   -1.8070   -5.6086   28.1920 O   0  0  0  0  0  0  0  0  0  0  0  0
   10.4296   -5.1799   28.3140 C   0  0  0  0  0  0  0  0  0  0  0  0
    6.6017   -5.9004   26.9187 C   0  0  0  0  0  0  0  0  0  0  0  0
    2.4761   -6.9940   26.4111 N   0  0  0  0  0  0  0  0  0  0  0  0
    9.1353   -5.4053   27.8239 C   0  0  0  0  0  0  0  0  0  0  0  0
    0.9922   -9.3232   16.5995 O   0  0  0  0  0  0  0  0  0  0  0  0
    1.5232   -7.6869   27.1182 C   0  0  0  0  0  0  0  0  0  0  0  0
    8.6878   -6.6715   27.7262 N   0  0  0  0  0  0  0  0  0  0  0  0
    6.9911   -8.2423   27.1808 C   0  0  0  0  0  0  0  0  0  0  0  0
    3.8436   -7.2758   16.0578 C   0  0  0  0  0  0  0  0  0  0  0  0
    3.1882   -9.7190   17.2566 C   0  0  0  0  0  0  0  0  0  0  0  0
    5.3488   -6.1737   26.5092 C   0  0  0  0  0  0  0  0  0  0  0  0
    7.4567   -6.9464   27.2858 C   0  0  0  0  0  0  0  0  0  0  0  0
    0.1921   -5.7592   27.1123 C   0  0  0  0  0  0  0  0  0  0  0  0
    3.5517   -7.7407   25.9711 C   0  0  0  0  0  0  0  0  0  0  0  0
  1  4  4  0
  1 22  4  0
  2 20  4  0
  2 27  4  0
  3 12  4  0
  3 23  4  0
  4 25  4  0
  4 28  1  0
  5  8  4  0
  5 17  4  0
  6  7  4  0
  6 16  4  0
  7 18  4  0
  8 27  4  0
  9 13  4  0
  9 23  4  0
 10 11  1  0
 11 14  2  0
 11 27  1  0
 12 19  1  0
 12 24  4  0
 13 24  4  0
 15 18  1  0
 16 25  4  0
 16 26  4  0
 17 20  4  0
 17 28  1  0
 18 21  4  0
 21 26  4  0
 22 26  4  0
M  END
$$$$

 Created by Python create_sdf_string function

 28 30  0  0  0  0  0  0  0  0999 V2000
    5.7174   -8.4529   26.7190 C   0  0  0  0  0  0  0  0  0  0  0  0
    0.3974   -7.0711   27.5149 C   0  0  0  0  0  0  0  0  0  0  0  0
    2.5338   -7.6891   16.0102 C   0  0  0  0  0  0  0  0  0  0  0  0
    4.8690   -7.4380   26.4151 C   0  0  0  0  0  0  0  0  0  0  0  0
    2.3021   -5.6726   26.0378 C   0  0  0  0  0  0  0  0  0  0  0  0
    7.0880   -4.6163   27.0010 C   0  0  0  0  0  0  0  0  0  0  0  0
    8.3117   -4.3698   27.4436 C   0  0  0  0  0  0  0  0  0  0  0  0
    1.1339   -5.0515   26.3541 C   0  0  0  0  0  0  0  0  0  0  0  0
    4.8080   -8.0362   16.7101 C   0  0  0  0  0  0  0  0  0  0  0  0
   -1.2173   -3.9294   26.9717 O   0  0  0  0  0  0  0  0  0  0  0  0
   -1.0025   -5.0942   27.4586 C   0  0  0  0  0  0  0  0  0  0  0  0
    2.2474   -8.9123   16.6273 C   0  0  0  0  0  0  0  0  0  0  0  0
    4.4957   -9.2636   17.3041 C   0  0  0  0  0  0  0  0  0  0  0  0
   -1.8070   -5.6086   28.1920 O   0  0  0  0  0  0  0  0  0  0  0  0
   10.4296   -5.1799   28.3140 C   0  0  0  0  0  0  0  0  0  0  0  0
    6.6017   -5.9004   26.9187 C   0  0  0  0  0  0  0  0  0  0  0  0
    2.4761   -6.9940   26.4111 N   0  0  0  0  0  0  0  0  0  0  0  0
    9.1353   -5.4053   27.8239 C   0  0  0  0  0  0  0  0  0  0  0  0
    0.9922   -9.3232   16.5995 O   0  0  0  0  0  0  0  0  0  0  0  0
    1.5232   -7.6869   27.1182 C   0  0  0  0  0  0  0  0  0  0  0  0
    8.6878   -6.6715   27.7262 N   0  0  0  0  0  0  0  0  0  0  0  0
    6.9911   -8.2423   27.1808 C   0  0  0  0  0  0  0  0  0  0  0  0
    3.8436   -7.2758   16.0578 C   0  0  0  0  0  0  0  0  0  0  0  0
    3.1882   -9.7190   17.2566 C   0  0  0  0  0  0  0  0  0  0  0  0
    5.3488   -6.1737   26.5092 C   0  0  0  0  0  0  0  0  0  0  0  0
    7.4567   -6.9464   27.2858 C   0  0  0  0  0  0  0  0  0  0  0  0
    0.1921   -5.7592   27.1123 C   0  0  0  0  0  0  0  0  0  0  0  0
    3.5517   -7.7407   25.9711 C   0  0  0  0  0  0  0  0  0  0  0  0
  1  4  4  0
  1 22  4  0
  2 20  4  0
  2 27  4  0
  3 12  4  0
  3 23  4  0
  4 25  4  0
  4 28  1  0
  5  8  4  0
  5 17  4  0
  6  7  4  0
  6 16  4  0
  7 18  4  0
  8 27  4  0
  9 13  4  0
  9 23  4  0
 10 11  1  0
 11 14  2  0
 11 27  1  0
 12 19  1  0
 12 24  4  0
 13 24  4  0
 15 18  1  0
 16 25  4  0
 16 26  4  0
 17 20  4  0
 17 28  1  0
 18 21  4  0
 21 26  4  0
 22 26  4  0
M  END
$$$$

 Created by Python create_sdf_string function

 28 30  0  0  0  0  0  0  0  0999 V2000
    5.7174   -8.4529   26.7190 C   0  0  0  0  0  0  0  0  0  0  0  0
    0.3974   -7.0711   27.5149 C   0  0  0  0  0  0  0  0  0  0  0  0
    2.5338   -7.6891   16.0102 C   0  0  0  0  0  0  0  0  0  0  0  0
    4.8690   -7.4380   26.4151 C   0  0  0  0  0  0  0  0  0  0  0  0
    2.3021   -5.6726   26.0378 C   0  0  0  0  0  0  0  0  0  0  0  0
    7.0880   -4.6163   27.0010 C   0  0  0  0  0  0  0  0  0  0  0  0
    8.3117   -4.3698   27.4436 C   0  0  0  0  0  0  0  0  0  0  0  0
    1.1339   -5.0515   26.3541 C   0  0  0  0  0  0  0  0  0  0  0  0
    4.8080   -8.0362   16.7101 C   0  0  0  0  0  0  0  0  0  0  0  0
   -1.2173   -3.9294   26.9717 O   0  0  0  0  0  0  0  0  0  0  0  0
   -1.0025   -5.0942   27.4586 C   0  0  0  0  0  0  0  0  0  0  0  0
    2.2474   -8.9123   16.6273 C   0  0  0  0  0  0  0  0  0  0  0  0
    4.4957   -9.2636   17.3041 C   0  0  0  0  0  0  0  0  0  0  0  0
   -1.8070   -5.6086   28.1920 O   0  0  0  0  0  0  0  0  0  0  0  0
   10.4296   -5.1799   28.3140 C   0  0  0  0  0  0  0  0  0  0  0  0
    6.6017   -5.9004   26.9187 C   0  0  0  0  0  0  0  0  0  0  0  0
    2.4761   -6.9940   26.4111 N   0  0  0  0  0  0  0  0  0  0  0  0
    9.1353   -5.4053   27.8239 C   0  0  0  0  0  0  0  0  0  0  0  0
    0.9922   -9.3232   16.5995 O   0  0  0  0  0  0  0  0  0  0  0  0
    1.5232   -7.6869   27.1182 C   0  0  0  0  0  0  0  0  0  0  0  0
    8.6878   -6.6715   27.7262 N   0  0  0  0  0  0  0  0  0  0  0  0
    6.9911   -8.2423   27.1808 C   0  0  0  0  0  0  0  0  0  0  0  0
    3.8436   -7.2758   16.0578 C   0  0  0  0  0  0  0  0  0  0  0  0
    3.1882   -9.7190   17.2566 C   0  0  0  0  0  0  0  0  0  0  0  0
    5.3488   -6.1737   26.5092 C   0  0  0  0  0  0  0  0  0  0  0  0
    7.4567   -6.9464   27.2858 C   0  0  0  0  0  0  0  0  0  0  0  0
    0.1921   -5.7592   27.1123 C   0  0  0  0  0  0  0  0  0  0  0  0
    3.5517   -7.7407   25.9711 C   0  0  0  0  0  0  0  0  0  0  0  0
  1  4  4  0
  1 22  4  0
  2 20  4  0
  2 27  4  0
  3 12  4  0
  3 23  4  0
  4 25  4  0
  4 28  1  0
  5  8  4  0
  5 17  4  0
  6  7  4  0
  6 16  4  0
  7 18  4  0
  8 27  4  0
  9 13  4  0
  9 23  4  0
 10 11  1  0
 11 14  2  0
 11 27  1  0
 12 19  1  0
 12 24  4  0
 13 24  4  0
 15 18  1  0
 16 25  4  0
 16 26  4  0
 17 20  4  0
 17 28  1  0
 18 21  4  0
 21 26  4  0
 22 26  4  0
M  END
$$$$

 Created by Python create_sdf_string function

 28 30  0  0  0  0  0  0  0  0999 V2000
    5.7174   -8.4529   26.7190 C   0  0  0  0  0  0  0  0  0  0  0  0
    0.3974   -7.0711   27.5149 C   0  0  0  0  0  0  0  0  0  0  0  0
    2.5338   -7.6891   16.0102 C   0  0  0  0  0  0  0  0  0  0  0  0
    4.8690   -7.4380   26.4151 C   0  0  0  0  0  0  0  0  0  0  0  0
    2.3021   -5.6726   26.0378 C   0  0  0  0  0  0  0  0  0  0  0  0
    7.0880   -4.6163   27.0010 C   0  0  0  0  0  0  0  0  0  0  0  0
    8.3117   -4.3698   27.4436 C   0  0  0  0  0  0  0  0  0  0  0  0
    1.1339   -5.0515   26.3541 C   0  0  0  0  0  0  0  0  0  0  0  0
    4.8080   -8.0362   16.7101 C   0  0  0  0  0  0  0  0  0  0  0  0
   -1.2173   -3.9294   26.9717 O   0  0  0  0  0  0  0  0  0  0  0  0
   -1.0025   -5.0942   27.4586 C   0  0  0  0  0  0  0  0  0  0  0  0
    2.2474   -8.9123   16.6273 C   0  0  0  0  0  0  0  0  0  0  0  0
    4.4957   -9.2636   17.3041 C   0  0  0  0  0  0  0  0  0  0  0  0
   -1.8070   -5.6086   28.1920 O   0  0  0  0  0  0  0  0  0  0  0  0
   10.4296   -5.1799   28.3140 C   0  0  0  0  0  0  0  0  0  0  0  0
    6.6017   -5.9004   26.9187 C   0  0  0  0  0  0  0  0  0  0  0  0
    2.4761   -6.9940   26.4111 N   0  0  0  0  0  0  0  0  0  0  0  0
    9.1353   -5.4053   27.8239 C   0  0  0  0  0  0  0  0  0  0  0  0
    0.9922   -9.3232   16.5995 O   0  0  0  0  0  0  0  0  0  0  0  0
    1.5232   -7.6869   27.1182 C   0  0  0  0  0  0  0  0  0  0  0  0
    8.6878   -6.6715   27.7262 N   0  0  0  0  0  0  0  0  0  0  0  0
    6.9911   -8.2423   27.1808 C   0  0  0  0  0  0  0  0  0  0  0  0
    3.8436   -7.2758   16.0578 C   0  0  0  0  0  0  0  0  0  0  0  0
    3.1882   -9.7190   17.2566 C   0  0  0  0  0  0  0  0  0  0  0  0
    5.3488   -6.1737   26.5092 C   0  0  0  0  0  0  0  0  0  0  0  0
    7.4567   -6.9464   27.2858 C   0  0  0  0  0  0  0  0  0  0  0  0
    0.1921   -5.7592   27.1123 C   0  0  0  0  0  0  0  0  0  0  0  0
    3.5517   -7.7407   25.9711 C   0  0  0  0  0  0  0  0  0  0  0  0
  1  4  4  0
  1 22  4  0
  2 20  4  0
  2 27  4  0
  3 12  4  0
  3 23  4  0
  4 25  4  0
  4 28  1  0
  5  8  4  0
  5 17  4  0
  6  7  4  0
  6 16  4  0
  7 18  4  0
  8 27  4  0
  9 13  4  0
  9 23  4  0
 10 11  1  0
 11 14  2  0
 11 27  1  0
 12 19  1  0
 12 24  4  0
 13 24  4  0
 15 18  1  0
 16 25  4  0
 16 26  4  0
 17 20  4  0
 17 28  1  0
 18 21  4  0
 21 26  4  0
 22 26  4  0
M  END
$$$$

 Created by Python create_sdf_string function

 28 30  0  0  0  0  0  0  0  0999 V2000
    5.7174   -8.4529   26.7190 C   0  0  0  0  0  0  0  0  0  0  0  0
    0.3974   -7.0711   27.5149 C   0  0  0  0  0  0  0  0  0  0  0  0
    2.5338   -7.6891   16.0102 C   0  0  0  0  0  0  0  0  0  0  0  0
    4.8690   -7.4380   26.4151 C   0  0  0  0  0  0  0  0  0  0  0  0
    2.3021   -5.6726   26.0378 C   0  0  0  0  0  0  0  0  0  0  0  0
    7.0880   -4.6163   27.0010 C   0  0  0  0  0  0  0  0  0  0  0  0
    8.3117   -4.3698   27.4436 C   0  0  0  0  0  0  0  0  0  0  0  0
    1.1339   -5.0515   26.3541 C   0  0  0  0  0  0  0  0  0  0  0  0
    4.8080   -8.0362   16.7101 C   0  0  0  0  0  0  0  0  0  0  0  0
   -1.2173   -3.9294   26.9717 O   0  0  0  0  0  0  0  0  0  0  0  0
   -1.0025   -5.0942   27.4586 C   0  0  0  0  0  0  0  0  0  0  0  0
    2.2474   -8.9123   16.6273 C   0  0  0  0  0  0  0  0  0  0  0  0
    4.4957   -9.2636   17.3041 C   0  0  0  0  0  0  0  0  0  0  0  0
   -1.8070   -5.6086   28.1920 O   0  0  0  0  0  0  0  0  0  0  0  0
   10.4296   -5.1799   28.3140 C   0  0  0  0  0  0  0  0  0  0  0  0
    6.6017   -5.9004   26.9187 C   0  0  0  0  0  0  0  0  0  0  0  0
    2.4761   -6.9940   26.4111 N   0  0  0  0  0  0  0  0  0  0  0  0
    9.1353   -5.4053   27.8239 C   0  0  0  0  0  0  0  0  0  0  0  0
    0.9922   -9.3232   16.5995 O   0  0  0  0  0  0  0  0  0  0  0  0
    1.5232   -7.6869   27.1182 C   0  0  0  0  0  0  0  0  0  0  0  0
    8.6878   -6.6715   27.7262 N   0  0  0  0  0  0  0  0  0  0  0  0
    6.9911   -8.2423   27.1808 C   0  0  0  0  0  0  0  0  0  0  0  0
    3.8436   -7.2758   16.0578 C   0  0  0  0  0  0  0  0  0  0  0  0
    3.1882   -9.7190   17.2566 C   0  0  0  0  0  0  0  0  0  0  0  0
    5.3488   -6.1737   26.5092 C   0  0  0  0  0  0  0  0  0  0  0  0
    7.4567   -6.9464   27.2858 C   0  0  0  0  0  0  0  0  0  0  0  0
    0.1921   -5.7592   27.1123 C   0  0  0  0  0  0  0  0  0  0  0  0
    3.5517   -7.7407   25.9711 C   0  0  0  0  0  0  0  0  0  0  0  0
  1  4  4  0
  1 22  4  0
  2 20  4  0
  2 27  4  0
  3 12  4  0
  3 23  4  0
  4 25  4  0
  4 28  1  0
  5  8  4  0
  5 17  4  0
  6  7  4  0
  6 16  4  0
  7 18  4  0
  8 27  4  0
  9 13  4  0
  9 23  4  0
 10 11  1  0
 11 14  2  0
 11 27  1  0
 12 19  1  0
 12 24  4  0
 13 24  4  0
 15 18  1  0
 16 25  4  0
 16 26  4  0
 17 20  4  0
 17 28  1  0
 18 21  4  0
 21 26  4  0
 22 26  4  0
M  END
$$$$

 Created by Python create_sdf_string function

 28 30  0  0  0  0  0  0  0  0999 V2000
    5.7174   -8.4529   26.7190 C   0  0  0  0  0  0  0  0  0  0  0  0
    0.3974   -7.0711   27.5149 C   0  0  0  0  0  0  0  0  0  0  0  0
    2.5338   -7.6891   16.0102 C   0  0  0  0  0  0  0  0  0  0  0  0
    4.8690   -7.4380   26.4151 C   0  0  0  0  0  0  0  0  0  0  0  0
    2.3021   -5.6726   26.0378 C   0  0  0  0  0  0  0  0  0  0  0  0
    7.0880   -4.6163   27.0010 C   0  0  0  0  0  0  0  0  0  0  0  0
    8.3117   -4.3698   27.4436 C   0  0  0  0  0  0  0  0  0  0  0  0
    1.1339   -5.0515   26.3541 C   0  0  0  0  0  0  0  0  0  0  0  0
    4.8080   -8.0362   16.7101 C   0  0  0  0  0  0  0  0  0  0  0  0
   -1.2173   -3.9294   26.9717 O   0  0  0  0  0  0  0  0  0  0  0  0
   -1.0025   -5.0942   27.4586 C   0  0  0  0  0  0  0  0  0  0  0  0
    2.2474   -8.9123   16.6273 C   0  0  0  0  0  0  0  0  0  0  0  0
    4.4957   -9.2636   17.3041 C   0  0  0  0  0  0  0  0  0  0  0  0
   -1.8070   -5.6086   28.1920 O   0  0  0  0  0  0  0  0  0  0  0  0
   10.4296   -5.1799   28.3140 C   0  0  0  0  0  0  0  0  0  0  0  0
    6.6017   -5.9004   26.9187 C   0  0  0  0  0  0  0  0  0  0  0  0
    2.4761   -6.9940   26.4111 N   0  0  0  0  0  0  0  0  0  0  0  0
    9.1353   -5.4053   27.8239 C   0  0  0  0  0  0  0  0  0  0  0  0
    0.9922   -9.3232   16.5995 O   0  0  0  0  0  0  0  0  0  0  0  0
    1.5232   -7.6869   27.1182 C   0  0  0  0  0  0  0  0  0  0  0  0
    8.6878   -6.6715   27.7262 N   0  0  0  0  0  0  0  0  0  0  0  0
    6.9911   -8.2423   27.1808 C   0  0  0  0  0  0  0  0  0  0  0  0
    3.8436   -7.2758   16.0578 C   0  0  0  0  0  0  0  0  0  0  0  0
    3.1882   -9.7190   17.2566 C   0  0  0  0  0  0  0  0  0  0  0  0
    5.3488   -6.1737   26.5092 C   0  0  0  0  0  0  0  0  0  0  0  0
    7.4567   -6.9464   27.2858 C   0  0  0  0  0  0  0  0  0  0  0  0
    0.1921   -5.7592   27.1123 C   0  0  0  0  0  0  0  0  0  0  0  0
    3.5517   -7.7407   25.9711 C   0  0  0  0  0  0  0  0  0  0  0  0
  1  4  4  0
  1 22  4  0
  2 20  4  0
  2 27  4  0
  3 12  4  0
  3 23  4  0
  4 25  4  0
  4 28  1  0
  5  8  4  0
  5 17  4  0
  6  7  4  0
  6 16  4  0
  7 18  4  0
  8 27  4  0
  9 13  4  0
  9 23  4  0
 10 11  1  0
 11 14  2  0
 11 27  1  0
 12 19  1  0
 12 24  4  0
 13 24  4  0
 15 18  1  0
 16 25  4  0
 16 26  4  0
 17 20  4  0
 17 28  1  0
 18 21  4  0
 21 26  4  0
 22 26  4  0
M  END
$$$$

 Created by Python create_sdf_string function

 28 30  0  0  0  0  0  0  0  0999 V2000
    5.7174   -8.4529   26.7190 C   0  0  0  0  0  0  0  0  0  0  0  0
    0.3974   -7.0711   27.5149 C   0  0  0  0  0  0  0  0  0  0  0  0
    2.5338   -7.6891   16.0102 C   0  0  0  0  0  0  0  0  0  0  0  0
    4.8690   -7.4380   26.4151 C   0  0  0  0  0  0  0  0  0  0  0  0
    2.3021   -5.6726   26.0378 C   0  0  0  0  0  0  0  0  0  0  0  0
    7.0880   -4.6163   27.0010 C   0  0  0  0  0  0  0  0  0  0  0  0
    8.3117   -4.3698   27.4436 C   0  0  0  0  0  0  0  0  0  0  0  0
    1.1339   -5.0515   26.3541 C   0  0  0  0  0  0  0  0  0  0  0  0
    4.8080   -8.0362   16.7101 C   0  0  0  0  0  0  0  0  0  0  0  0
   -1.2173   -3.9294   26.9717 O   0  0  0  0  0  0  0  0  0  0  0  0
   -1.0025   -5.0942   27.4586 C   0  0  0  0  0  0  0  0  0  0  0  0
    2.2474   -8.9123   16.6273 C   0  0  0  0  0  0  0  0  0  0  0  0
    4.4957   -9.2636   17.3041 C   0  0  0  0  0  0  0  0  0  0  0  0
   -1.8070   -5.6086   28.1920 O   0  0  0  0  0  0  0  0  0  0  0  0
   10.4296   -5.1799   28.3140 C   0  0  0  0  0  0  0  0  0  0  0  0
    6.6017   -5.9004   26.9187 C   0  0  0  0  0  0  0  0  0  0  0  0
    2.4761   -6.9940   26.4111 N   0  0  0  0  0  0  0  0  0  0  0  0
    9.1353   -5.4053   27.8239 C   0  0  0  0  0  0  0  0  0  0  0  0
    0.9922   -9.3232   16.5995 O   0  0  0  0  0  0  0  0  0  0  0  0
    1.5232   -7.6869   27.1182 C   0  0  0  0  0  0  0  0  0  0  0  0
    8.6878   -6.6715   27.7262 N   0  0  0  0  0  0  0  0  0  0  0  0
    6.9911   -8.2423   27.1808 C   0  0  0  0  0  0  0  0  0  0  0  0
    3.8436   -7.2758   16.0578 C   0  0  0  0  0  0  0  0  0  0  0  0
    3.1882   -9.7190   17.2566 C   0  0  0  0  0  0  0  0  0  0  0  0
    5.3488   -6.1737   26.5092 C   0  0  0  0  0  0  0  0  0  0  0  0
    7.4567   -6.9464   27.2858 C   0  0  0  0  0  0  0  0  0  0  0  0
    0.1921   -5.7592   27.1123 C   0  0  0  0  0  0  0  0  0  0  0  0
    3.5517   -7.7407   25.9711 C   0  0  0  0  0  0  0  0  0  0  0  0
  1  4  4  0
  1 22  4  0
  2 20  4  0
  2 27  4  0
  3 12  4  0
  3 23  4  0
  4 25  4  0
  4 28  1  0
  5  8  4  0
  5 17  4  0
  6  7  4  0
  6 16  4  0
  7 18  4  0
  8 27  4  0
  9 13  4  0
  9 23  4  0
 10 11  1  0
 11 14  2  0
 11 27  1  0
 12 19  1  0
 12 24  4  0
 13 24  4  0
 15 18  1  0
 16 25  4  0
 16 26  4  0
 17 20  4  0
 17 28  1  0
 18 21  4  0
 21 26  4  0
 22 26  4  0
M  END
$$$$

 Created by Python create_sdf_string function

 28 30  0  0  0  0  0  0  0  0999 V2000
    5.7174   -8.4529   26.7190 C   0  0  0  0  0  0  0  0  0  0  0  0
    0.3974   -7.0711   27.5149 C   0  0  0  0  0  0  0  0  0  0  0  0
    2.5338   -7.6891   16.0102 C   0  0  0  0  0  0  0  0  0  0  0  0
    4.8690   -7.4380   26.4151 C   0  0  0  0  0  0  0  0  0  0  0  0
    2.3021   -5.6726   26.0378 C   0  0  0  0  0  0  0  0  0  0  0  0
    7.0880   -4.6163   27.0010 C   0  0  0  0  0  0  0  0  0  0  0  0
    8.3117   -4.3698   27.4436 C   0  0  0  0  0  0  0  0  0  0  0  0
    1.1339   -5.0515   26.3541 C   0  0  0  0  0  0  0  0  0  0  0  0
    4.8080   -8.0362   16.7101 C   0  0  0  0  0  0  0  0  0  0  0  0
   -1.2173   -3.9294   26.9717 O   0  0  0  0  0  0  0  0  0  0  0  0
   -1.0025   -5.0942   27.4586 C   0  0  0  0  0  0  0  0  0  0  0  0
    2.2474   -8.9123   16.6273 C   0  0  0  0  0  0  0  0  0  0  0  0
    4.4957   -9.2636   17.3041 C   0  0  0  0  0  0  0  0  0  0  0  0
   -1.8070   -5.6086   28.1920 O   0  0  0  0  0  0  0  0  0  0  0  0
   10.4296   -5.1799   28.3140 C   0  0  0  0  0  0  0  0  0  0  0  0
    6.6017   -5.9004   26.9187 C   0  0  0  0  0  0  0  0  0  0  0  0
    2.4761   -6.9940   26.4111 N   0  0  0  0  0  0  0  0  0  0  0  0
    9.1353   -5.4053   27.8239 C   0  0  0  0  0  0  0  0  0  0  0  0
    0.9922   -9.3232   16.5995 O   0  0  0  0  0  0  0  0  0  0  0  0
    1.5232   -7.6869   27.1182 C   0  0  0  0  0  0  0  0  0  0  0  0
    8.6878   -6.6715   27.7262 N   0  0  0  0  0  0  0  0  0  0  0  0
    6.9911   -8.2423   27.1808 C   0  0  0  0  0  0  0  0  0  0  0  0
    3.8436   -7.2758   16.0578 C   0  0  0  0  0  0  0  0  0  0  0  0
    3.1882   -9.7190   17.2566 C   0  0  0  0  0  0  0  0  0  0  0  0
    5.3488   -6.1737   26.5092 C   0  0  0  0  0  0  0  0  0  0  0  0
    7.4567   -6.9464   27.2858 C   0  0  0  0  0  0  0  0  0  0  0  0
    0.1921   -5.7592   27.1123 C   0  0  0  0  0  0  0  0  0  0  0  0
    3.5517   -7.7407   25.9711 C   0  0  0  0  0  0  0  0  0  0  0  0
  1  4  4  0
  1 22  4  0
  2 20  4  0
  2 27  4  0
  3 12  4  0
  3 23  4  0
  4 25  4  0
  4 28  1  0
  5  8  4  0
  5 17  4  0
  6  7  4  0
  6 16  4  0
  7 18  4  0
  8 27  4  0
  9 13  4  0
  9 23  4  0
 10 11  1  0
 11 14  2  0
 11 27  1  0
 12 19  1  0
 12 24  4  0
 13 24  4  0
 15 18  1  0
 16 25  4  0
 16 26  4  0
 17 20  4  0
 17 28  1  0
 18 21  4  0
 21 26  4  0
 22 26  4  0
M  END
$$$$

 Created by Python create_sdf_string function

 28 30  0  0  0  0  0  0  0  0999 V2000
    5.7174   -8.4529   26.7190 C   0  0  0  0  0  0  0  0  0  0  0  0
    0.3974   -7.0711   27.5149 C   0  0  0  0  0  0  0  0  0  0  0  0
    2.5338   -7.6891   16.0102 C   0  0  0  0  0  0  0  0  0  0  0  0
    4.8690   -7.4380   26.4151 C   0  0  0  0  0  0  0  0  0  0  0  0
    2.3021   -5.6726   26.0378 C   0  0  0  0  0  0  0  0  0  0  0  0
    7.0880   -4.6163   27.0010 C   0  0  0  0  0  0  0  0  0  0  0  0
    8.3117   -4.3698   27.4436 C   0  0  0  0  0  0  0  0  0  0  0  0
    1.1339   -5.0515   26.3541 C   0  0  0  0  0  0  0  0  0  0  0  0
    4.8080   -8.0362   16.7101 C   0  0  0  0  0  0  0  0  0  0  0  0
   -1.2173   -3.9294   26.9717 O   0  0  0  0  0  0  0  0  0  0  0  0
   -1.0025   -5.0942   27.4586 C   0  0  0  0  0  0  0  0  0  0  0  0
    2.2474   -8.9123   16.6273 C   0  0  0  0  0  0  0  0  0  0  0  0
    4.4957   -9.2636   17.3041 C   0  0  0  0  0  0  0  0  0  0  0  0
   -1.8070   -5.6086   28.1920 O   0  0  0  0  0  0  0  0  0  0  0  0
   10.4296   -5.1799   28.3140 C   0  0  0  0  0  0  0  0  0  0  0  0
    6.6017   -5.9004   26.9187 C   0  0  0  0  0  0  0  0  0  0  0  0
    2.4761   -6.9940   26.4111 N   0  0  0  0  0  0  0  0  0  0  0  0
    9.1353   -5.4053   27.8239 C   0  0  0  0  0  0  0  0  0  0  0  0
    0.9922   -9.3232   16.5995 O   0  0  0  0  0  0  0  0  0  0  0  0
    1.5232   -7.6869   27.1182 C   0  0  0  0  0  0  0  0  0  0  0  0
    8.6878   -6.6715   27.7262 N   0  0  0  0  0  0  0  0  0  0  0  0
    6.9911   -8.2423   27.1808 C   0  0  0  0  0  0  0  0  0  0  0  0
    3.8436   -7.2758   16.0578 C   0  0  0  0  0  0  0  0  0  0  0  0
    3.1882   -9.7190   17.2566 C   0  0  0  0  0  0  0  0  0  0  0  0
    5.3488   -6.1737   26.5092 C   0  0  0  0  0  0  0  0  0  0  0  0
    7.4567   -6.9464   27.2858 C   0  0  0  0  0  0  0  0  0  0  0  0
    0.1921   -5.7592   27.1123 C   0  0  0  0  0  0  0  0  0  0  0  0
    3.5517   -7.7407   25.9711 C   0  0  0  0  0  0  0  0  0  0  0  0
  1  4  4  0
  1 22  4  0
  2 20  4  0
  2 27  4  0
  3 12  4  0
  3 23  4  0
  4 25  4  0
  4 28  1  0
  5  8  4  0
  5 17  4  0
  6  7  4  0
  6 16  4  0
  7 18  4  0
  8 27  4  0
  9 13  4  0
  9 23  4  0
 10 11  1  0
 11 14  2  0
 11 27  1  0
 12 19  1  0
 12 24  4  0
 13 24  4  0
 15 18  1  0
 16 25  4  0
 16 26  4  0
 17 20  4  0
 17 28  1  0
 18 21  4  0
 21 26  4  0
 22 26  4  0
M  END
$$$$

 Created by Python create_sdf_string function

 28 30  0  0  0  0  0  0  0  0999 V2000
    5.7174   -8.4529   26.7190 C   0  0  0  0  0  0  0  0  0  0  0  0
    0.3974   -7.0711   27.5149 C   0  0  0  0  0  0  0  0  0  0  0  0
    2.5338   -7.6891   16.0102 C   0  0  0  0  0  0  0  0  0  0  0  0
    4.8690   -7.4380   26.4151 C   0  0  0  0  0  0  0  0  0  0  0  0
    2.3021   -5.6726   26.0378 C   0  0  0  0  0  0  0  0  0  0  0  0
    7.0880   -4.6163   27.0010 C   0  0  0  0  0  0  0  0  0  0  0  0
    8.3117   -4.3698   27.4436 C   0  0  0  0  0  0  0  0  0  0  0  0
    1.1339   -5.0515   26.3541 C   0  0  0  0  0  0  0  0  0  0  0  0
    4.8080   -8.0362   16.7101 C   0  0  0  0  0  0  0  0  0  0  0  0
   -1.2173   -3.9294   26.9717 O   0  0  0  0  0  0  0  0  0  0  0  0
   -1.0025   -5.0942   27.4586 C   0  0  0  0  0  0  0  0  0  0  0  0
    2.2474   -8.9123   16.6273 C   0  0  0  0  0  0  0  0  0  0  0  0
    4.4957   -9.2636   17.3041 C   0  0  0  0  0  0  0  0  0  0  0  0
   -1.8070   -5.6086   28.1920 O   0  0  0  0  0  0  0  0  0  0  0  0
   10.4296   -5.1799   28.3140 C   0  0  0  0  0  0  0  0  0  0  0  0
    6.6017   -5.9004   26.9187 C   0  0  0  0  0  0  0  0  0  0  0  0
    2.4761   -6.9940   26.4111 N   0  0  0  0  0  0  0  0  0  0  0  0
    9.1353   -5.4053   27.8239 C   0  0  0  0  0  0  0  0  0  0  0  0
    0.9922   -9.3232   16.5995 O   0  0  0  0  0  0  0  0  0  0  0  0
    1.5232   -7.6869   27.1182 C   0  0  0  0  0  0  0  0  0  0  0  0
    8.6878   -6.6715   27.7262 N   0  0  0  0  0  0  0  0  0  0  0  0
    6.9911   -8.2423   27.1808 C   0  0  0  0  0  0  0  0  0  0  0  0
    3.8436   -7.2758   16.0578 C   0  0  0  0  0  0  0  0  0  0  0  0
    3.1882   -9.7190   17.2566 C   0  0  0  0  0  0  0  0  0  0  0  0
    5.3488   -6.1737   26.5092 C   0  0  0  0  0  0  0  0  0  0  0  0
    7.4567   -6.9464   27.2858 C   0  0  0  0  0  0  0  0  0  0  0  0
    0.1921   -5.7592   27.1123 C   0  0  0  0  0  0  0  0  0  0  0  0
    3.5517   -7.7407   25.9711 C   0  0  0  0  0  0  0  0  0  0  0  0
  1  4  4  0
  1 22  4  0
  2 20  4  0
  2 27  4  0
  3 12  4  0
  3 23  4  0
  4 25  4  0
  4 28  1  0
  5  8  4  0
  5 17  4  0
  6  7  4  0
  6 16  4  0
  7 18  4  0
  8 27  4  0
  9 13  4  0
  9 23  4  0
 10 11  1  0
 11 14  2  0
 11 27  1  0
 12 19  1  0
 12 24  4  0
 13 24  4  0
 15 18  1  0
 16 25  4  0
 16 26  4  0
 17 20  4  0
 17 28  1  0
 18 21  4  0
 21 26  4  0
 22 26  4  0
M  END
$$$$

 Created by Python create_sdf_string function

 28 30  0  0  0  0  0  0  0  0999 V2000
    5.7174   -8.4529   26.7190 C   0  0  0  0  0  0  0  0  0  0  0  0
    0.3974   -7.0711   27.5149 C   0  0  0  0  0  0  0  0  0  0  0  0
    2.5338   -7.6891   16.0102 C   0  0  0  0  0  0  0  0  0  0  0  0
    4.8690   -7.4380   26.4151 C   0  0  0  0  0  0  0  0  0  0  0  0
    2.3021   -5.6726   26.0378 C   0  0  0  0  0  0  0  0  0  0  0  0
    7.0880   -4.6163   27.0010 C   0  0  0  0  0  0  0  0  0  0  0  0
    8.3117   -4.3698   27.4436 C   0  0  0  0  0  0  0  0  0  0  0  0
    1.1339   -5.0515   26.3541 C   0  0  0  0  0  0  0  0  0  0  0  0
    4.8080   -8.0362   16.7101 C   0  0  0  0  0  0  0  0  0  0  0  0
   -1.2173   -3.9294   26.9717 O   0  0  0  0  0  0  0  0  0  0  0  0
   -1.0025   -5.0942   27.4586 C   0  0  0  0  0  0  0  0  0  0  0  0
    2.2474   -8.9123   16.6273 C   0  0  0  0  0  0  0  0  0  0  0  0
    4.4957   -9.2636   17.3041 C   0  0  0  0  0  0  0  0  0  0  0  0
   -1.8070   -5.6086   28.1920 O   0  0  0  0  0  0  0  0  0  0  0  0
   10.4296   -5.1799   28.3140 C   0  0  0  0  0  0  0  0  0  0  0  0
    6.6017   -5.9004   26.9187 C   0  0  0  0  0  0  0  0  0  0  0  0
    2.4761   -6.9940   26.4111 N   0  0  0  0  0  0  0  0  0  0  0  0
    9.1353   -5.4053   27.8239 C   0  0  0  0  0  0  0  0  0  0  0  0
    0.9922   -9.3232   16.5995 O   0  0  0  0  0  0  0  0  0  0  0  0
    1.5232   -7.6869   27.1182 C   0  0  0  0  0  0  0  0  0  0  0  0
    8.6878   -6.6715   27.7262 N   0  0  0  0  0  0  0  0  0  0  0  0
    6.9911   -8.2423   27.1808 C   0  0  0  0  0  0  0  0  0  0  0  0
    3.8436   -7.2758   16.0578 C   0  0  0  0  0  0  0  0  0  0  0  0
    3.1882   -9.7190   17.2566 C   0  0  0  0  0  0  0  0  0  0  0  0
    5.3488   -6.1737   26.5092 C   0  0  0  0  0  0  0  0  0  0  0  0
    7.4567   -6.9464   27.2858 C   0  0  0  0  0  0  0  0  0  0  0  0
    0.1921   -5.7592   27.1123 C   0  0  0  0  0  0  0  0  0  0  0  0
    3.5517   -7.7407   25.9711 C   0  0  0  0  0  0  0  0  0  0  0  0
  1  4  4  0
  1 22  4  0
  2 20  4  0
  2 27  4  0
  3 12  4  0
  3 23  4  0
  4 25  4  0
  4 28  1  0
  5  8  4  0
  5 17  4  0
  6  7  4  0
  6 16  4  0
  7 18  4  0
  8 27  4  0
  9 13  4  0
  9 23  4  0
 10 11  1  0
 11 14  2  0
 11 27  1  0
 12 19  1  0
 12 24  4  0
 13 24  4  0
 15 18  1  0
 16 25  4  0
 16 26  4  0
 17 20  4  0
 17 28  1  0
 18 21  4  0
 21 26  4  0
 22 26  4  0
M  END
$$$$

 Created by Python create_sdf_string function

 28 30  0  0  0  0  0  0  0  0999 V2000
    5.7174   -8.4529   26.7190 C   0  0  0  0  0  0  0  0  0  0  0  0
    0.3974   -7.0711   27.5149 C   0  0  0  0  0  0  0  0  0  0  0  0
    2.5338   -7.6891   16.0102 C   0  0  0  0  0  0  0  0  0  0  0  0
    4.8690   -7.4380   26.4151 C   0  0  0  0  0  0  0  0  0  0  0  0
    2.3021   -5.6726   26.0378 C   0  0  0  0  0  0  0  0  0  0  0  0
    7.0880   -4.6163   27.0010 C   0  0  0  0  0  0  0  0  0  0  0  0
    8.3117   -4.3698   27.4436 C   0  0  0  0  0  0  0  0  0  0  0  0
    1.1339   -5.0515   26.3541 C   0  0  0  0  0  0  0  0  0  0  0  0
    4.8080   -8.0362   16.7101 C   0  0  0  0  0  0  0  0  0  0  0  0
   -1.2173   -3.9294   26.9717 O   0  0  0  0  0  0  0  0  0  0  0  0
   -1.0025   -5.0942   27.4586 C   0  0  0  0  0  0  0  0  0  0  0  0
    2.2474   -8.9123   16.6273 C   0  0  0  0  0  0  0  0  0  0  0  0
    4.4957   -9.2636   17.3041 C   0  0  0  0  0  0  0  0  0  0  0  0
   -1.8070   -5.6086   28.1920 O   0  0  0  0  0  0  0  0  0  0  0  0
   10.4296   -5.1799   28.3140 C   0  0  0  0  0  0  0  0  0  0  0  0
    6.6017   -5.9004   26.9187 C   0  0  0  0  0  0  0  0  0  0  0  0
    2.4761   -6.9940   26.4111 N   0  0  0  0  0  0  0  0  0  0  0  0
    9.1353   -5.4053   27.8239 C   0  0  0  0  0  0  0  0  0  0  0  0
    0.9922   -9.3232   16.5995 O   0  0  0  0  0  0  0  0  0  0  0  0
    1.5232   -7.6869   27.1182 C   0  0  0  0  0  0  0  0  0  0  0  0
    8.6878   -6.6715   27.7262 N   0  0  0  0  0  0  0  0  0  0  0  0
    6.9911   -8.2423   27.1808 C   0  0  0  0  0  0  0  0  0  0  0  0
    3.8436   -7.2758   16.0578 C   0  0  0  0  0  0  0  0  0  0  0  0
    3.1882   -9.7190   17.2566 C   0  0  0  0  0  0  0  0  0  0  0  0
    5.3488   -6.1737   26.5092 C   0  0  0  0  0  0  0  0  0  0  0  0
    7.4567   -6.9464   27.2858 C   0  0  0  0  0  0  0  0  0  0  0  0
    0.1921   -5.7592   27.1123 C   0  0  0  0  0  0  0  0  0  0  0  0
    3.5517   -7.7407   25.9711 C   0  0  0  0  0  0  0  0  0  0  0  0
  1  4  4  0
  1 22  4  0
  2 20  4  0
  2 27  4  0
  3 12  4  0
  3 23  4  0
  4 25  4  0
  4 28  1  0
  5  8  4  0
  5 17  4  0
  6  7  4  0
  6 16  4  0
  7 18  4  0
  8 27  4  0
  9 13  4  0
  9 23  4  0
 10 11  1  0
 11 14  2  0
 11 27  1  0
 12 19  1  0
 12 24  4  0
 13 24  4  0
 15 18  1  0
 16 25  4  0
 16 26  4  0
 17 20  4  0
 17 28  1  0
 18 21  4  0
 21 26  4  0
 22 26  4  0
M  END
$$$$

 Created by Python create_sdf_string function

 28 30  0  0  0  0  0  0  0  0999 V2000
    5.7174   -8.4529   26.7190 C   0  0  0  0  0  0  0  0  0  0  0  0
    0.3974   -7.0711   27.5149 C   0  0  0  0  0  0  0  0  0  0  0  0
    2.5338   -7.6891   16.0102 C   0  0  0  0  0  0  0  0  0  0  0  0
    4.8690   -7.4380   26.4151 C   0  0  0  0  0  0  0  0  0  0  0  0
    2.3021   -5.6726   26.0378 C   0  0  0  0  0  0  0  0  0  0  0  0
    7.0880   -4.6163   27.0010 C   0  0  0  0  0  0  0  0  0  0  0  0
    8.3117   -4.3698   27.4436 C   0  0  0  0  0  0  0  0  0  0  0  0
    1.1339   -5.0515   26.3541 C   0  0  0  0  0  0  0  0  0  0  0  0
    4.8080   -8.0362   16.7101 C   0  0  0  0  0  0  0  0  0  0  0  0
   -1.2173   -3.9294   26.9717 O   0  0  0  0  0  0  0  0  0  0  0  0
   -1.0025   -5.0942   27.4586 C   0  0  0  0  0  0  0  0  0  0  0  0
    2.2474   -8.9123   16.6273 C   0  0  0  0  0  0  0  0  0  0  0  0
    4.4957   -9.2636   17.3041 C   0  0  0  0  0  0  0  0  0  0  0  0
   -1.8070   -5.6086   28.1920 O   0  0  0  0  0  0  0  0  0  0  0  0
   10.4296   -5.1799   28.3140 C   0  0  0  0  0  0  0  0  0  0  0  0
    6.6017   -5.9004   26.9187 C   0  0  0  0  0  0  0  0  0  0  0  0
    2.4761   -6.9940   26.4111 N   0  0  0  0  0  0  0  0  0  0  0  0
    9.1353   -5.4053   27.8239 C   0  0  0  0  0  0  0  0  0  0  0  0
    0.9922   -9.3232   16.5995 O   0  0  0  0  0  0  0  0  0  0  0  0
    1.5232   -7.6869   27.1182 C   0  0  0  0  0  0  0  0  0  0  0  0
    8.6878   -6.6715   27.7262 N   0  0  0  0  0  0  0  0  0  0  0  0
    6.9911   -8.2423   27.1808 C   0  0  0  0  0  0  0  0  0  0  0  0
    3.8436   -7.2758   16.0578 C   0  0  0  0  0  0  0  0  0  0  0  0
    3.1882   -9.7190   17.2566 C   0  0  0  0  0  0  0  0  0  0  0  0
    5.3488   -6.1737   26.5092 C   0  0  0  0  0  0  0  0  0  0  0  0
    7.4567   -6.9464   27.2858 C   0  0  0  0  0  0  0  0  0  0  0  0
    0.1921   -5.7592   27.1123 C   0  0  0  0  0  0  0  0  0  0  0  0
    3.5517   -7.7407   25.9711 C   0  0  0  0  0  0  0  0  0  0  0  0
  1  4  4  0
  1 22  4  0
  2 20  4  0
  2 27  4  0
  3 12  4  0
  3 23  4  0
  4 25  4  0
  4 28  1  0
  5  8  4  0
  5 17  4  0
  6  7  4  0
  6 16  4  0
  7 18  4  0
  8 27  4  0
  9 13  4  0
  9 23  4  0
 10 11  1  0
 11 14  2  0
 11 27  1  0
 12 19  1  0
 12 24  4  0
 13 24  4  0
 15 18  1  0
 16 25  4  0
 16 26  4  0
 17 20  4  0
 17 28  1  0
 18 21  4  0
 21 26  4  0
 22 26  4  0
M  END
$$$$

 Created by Python create_sdf_string function

 28 30  0  0  0  0  0  0  0  0999 V2000
    5.7174   -8.4529   26.7190 C   0  0  0  0  0  0  0  0  0  0  0  0
    0.3974   -7.0711   27.5149 C   0  0  0  0  0  0  0  0  0  0  0  0
    2.5338   -7.6891   16.0102 C   0  0  0  0  0  0  0  0  0  0  0  0
    4.8690   -7.4380   26.4151 C   0  0  0  0  0  0  0  0  0  0  0  0
    2.3021   -5.6726   26.0378 C   0  0  0  0  0  0  0  0  0  0  0  0
    7.0880   -4.6163   27.0010 C   0  0  0  0  0  0  0  0  0  0  0  0
    8.3117   -4.3698   27.4436 C   0  0  0  0  0  0  0  0  0  0  0  0
    1.1339   -5.0515   26.3541 C   0  0  0  0  0  0  0  0  0  0  0  0
    4.8080   -8.0362   16.7101 C   0  0  0  0  0  0  0  0  0  0  0  0
   -1.2173   -3.9294   26.9717 O   0  0  0  0  0  0  0  0  0  0  0  0
   -1.0025   -5.0942   27.4586 C   0  0  0  0  0  0  0  0  0  0  0  0
    2.2474   -8.9123   16.6273 C   0  0  0  0  0  0  0  0  0  0  0  0
    4.4957   -9.2636   17.3041 C   0  0  0  0  0  0  0  0  0  0  0  0
   -1.8070   -5.6086   28.1920 O   0  0  0  0  0  0  0  0  0  0  0  0
   10.4296   -5.1799   28.3140 C   0  0  0  0  0  0  0  0  0  0  0  0
    6.6017   -5.9004   26.9187 C   0  0  0  0  0  0  0  0  0  0  0  0
    2.4761   -6.9940   26.4111 N   0  0  0  0  0  0  0  0  0  0  0  0
    9.1353   -5.4053   27.8239 C   0  0  0  0  0  0  0  0  0  0  0  0
    0.9922   -9.3232   16.5995 O   0  0  0  0  0  0  0  0  0  0  0  0
    1.5232   -7.6869   27.1182 C   0  0  0  0  0  0  0  0  0  0  0  0
    8.6878   -6.6715   27.7262 N   0  0  0  0  0  0  0  0  0  0  0  0
    6.9911   -8.2423   27.1808 C   0  0  0  0  0  0  0  0  0  0  0  0
    3.8436   -7.2758   16.0578 C   0  0  0  0  0  0  0  0  0  0  0  0
    3.1882   -9.7190   17.2566 C   0  0  0  0  0  0  0  0  0  0  0  0
    5.3488   -6.1737   26.5092 C   0  0  0  0  0  0  0  0  0  0  0  0
    7.4567   -6.9464   27.2858 C   0  0  0  0  0  0  0  0  0  0  0  0
    0.1921   -5.7592   27.1123 C   0  0  0  0  0  0  0  0  0  0  0  0
    3.5517   -7.7407   25.9711 C   0  0  0  0  0  0  0  0  0  0  0  0
  1  4  4  0
  1 22  4  0
  2 20  4  0
  2 27  4  0
  3 12  4  0
  3 23  4  0
  4 25  4  0
  4 28  1  0
  5  8  4  0
  5 17  4  0
  6  7  4  0
  6 16  4  0
  7 18  4  0
  8 27  4  0
  9 13  4  0
  9 23  4  0
 10 11  1  0
 11 14  2  0
 11 27  1  0
 12 19  1  0
 12 24  4  0
 13 24  4  0
 15 18  1  0
 16 25  4  0
 16 26  4  0
 17 20  4  0
 17 28  1  0
 18 21  4  0
 21 26  4  0
 22 26  4  0
M  END
$$$$

 Created by Python create_sdf_string function

 28 30  0  0  0  0  0  0  0  0999 V2000
    5.7174   -8.4529   26.7190 C   0  0  0  0  0  0  0  0  0  0  0  0
    0.3974   -7.0711   27.5149 C   0  0  0  0  0  0  0  0  0  0  0  0
    2.5338   -7.6891   16.0102 C   0  0  0  0  0  0  0  0  0  0  0  0
    4.8690   -7.4380   26.4151 C   0  0  0  0  0  0  0  0  0  0  0  0
    2.3021   -5.6726   26.0378 C   0  0  0  0  0  0  0  0  0  0  0  0
    7.0880   -4.6163   27.0010 C   0  0  0  0  0  0  0  0  0  0  0  0
    8.3117   -4.3698   27.4436 C   0  0  0  0  0  0  0  0  0  0  0  0
    1.1339   -5.0515   26.3541 C   0  0  0  0  0  0  0  0  0  0  0  0
    4.8080   -8.0362   16.7101 C   0  0  0  0  0  0  0  0  0  0  0  0
   -1.2173   -3.9294   26.9717 O   0  0  0  0  0  0  0  0  0  0  0  0
   -1.0025   -5.0942   27.4586 C   0  0  0  0  0  0  0  0  0  0  0  0
    2.2474   -8.9123   16.6273 C   0  0  0  0  0  0  0  0  0  0  0  0
    4.4957   -9.2636   17.3041 C   0  0  0  0  0  0  0  0  0  0  0  0
   -1.8070   -5.6086   28.1920 O   0  0  0  0  0  0  0  0  0  0  0  0
   10.4296   -5.1799   28.3140 C   0  0  0  0  0  0  0  0  0  0  0  0
    6.6017   -5.9004   26.9187 C   0  0  0  0  0  0  0  0  0  0  0  0
    2.4761   -6.9940   26.4111 N   0  0  0  0  0  0  0  0  0  0  0  0
    9.1353   -5.4053   27.8239 C   0  0  0  0  0  0  0  0  0  0  0  0
    0.9922   -9.3232   16.5995 O   0  0  0  0  0  0  0  0  0  0  0  0
    1.5232   -7.6869   27.1182 C   0  0  0  0  0  0  0  0  0  0  0  0
    8.6878   -6.6715   27.7262 N   0  0  0  0  0  0  0  0  0  0  0  0
    6.9911   -8.2423   27.1808 C   0  0  0  0  0  0  0  0  0  0  0  0
    3.8436   -7.2758   16.0578 C   0  0  0  0  0  0  0  0  0  0  0  0
    3.1882   -9.7190   17.2566 C   0  0  0  0  0  0  0  0  0  0  0  0
    5.3488   -6.1737   26.5092 C   0  0  0  0  0  0  0  0  0  0  0  0
    7.4567   -6.9464   27.2858 C   0  0  0  0  0  0  0  0  0  0  0  0
    0.1921   -5.7592   27.1123 C   0  0  0  0  0  0  0  0  0  0  0  0
    3.5517   -7.7407   25.9711 C   0  0  0  0  0  0  0  0  0  0  0  0
  1  4  4  0
  1 22  4  0
  2 20  4  0
  2 27  4  0
  3 12  4  0
  3 23  4  0
  4 25  4  0
  4 28  1  0
  5  8  4  0
  5 17  4  0
  6  7  4  0
  6 16  4  0
  7 18  4  0
  8 27  4  0
  9 13  4  0
  9 23  4  0
 10 11  1  0
 11 14  2  0
 11 27  1  0
 12 19  1  0
 12 24  4  0
 13 24  4  0
 15 18  1  0
 16 25  4  0
 16 26  4  0
 17 20  4  0
 17 28  1  0
 18 21  4  0
 21 26  4  0
 22 26  4  0
M  END
$$$$

 Created by Python create_sdf_string function

 28 30  0  0  0  0  0  0  0  0999 V2000
    5.7174   -8.4529   26.7190 C   0  0  0  0  0  0  0  0  0  0  0  0
    0.3974   -7.0711   27.5149 C   0  0  0  0  0  0  0  0  0  0  0  0
    2.5338   -7.6891   16.0102 C   0  0  0  0  0  0  0  0  0  0  0  0
    4.8690   -7.4380   26.4151 C   0  0  0  0  0  0  0  0  0  0  0  0
    2.3021   -5.6726   26.0378 C   0  0  0  0  0  0  0  0  0  0  0  0
    7.0880   -4.6163   27.0010 C   0  0  0  0  0  0  0  0  0  0  0  0
    8.3117   -4.3698   27.4436 C   0  0  0  0  0  0  0  0  0  0  0  0
    1.1339   -5.0515   26.3541 C   0  0  0  0  0  0  0  0  0  0  0  0
    4.8080   -8.0362   16.7101 C   0  0  0  0  0  0  0  0  0  0  0  0
   -1.2173   -3.9294   26.9717 O   0  0  0  0  0  0  0  0  0  0  0  0
   -1.0025   -5.0942   27.4586 C   0  0  0  0  0  0  0  0  0  0  0  0
    2.2474   -8.9123   16.6273 C   0  0  0  0  0  0  0  0  0  0  0  0
    4.4957   -9.2636   17.3041 C   0  0  0  0  0  0  0  0  0  0  0  0
   -1.8070   -5.6086   28.1920 O   0  0  0  0  0  0  0  0  0  0  0  0
   10.4296   -5.1799   28.3140 C   0  0  0  0  0  0  0  0  0  0  0  0
    6.6017   -5.9004   26.9187 C   0  0  0  0  0  0  0  0  0  0  0  0
    2.4761   -6.9940   26.4111 N   0  0  0  0  0  0  0  0  0  0  0  0
    9.1353   -5.4053   27.8239 C   0  0  0  0  0  0  0  0  0  0  0  0
    0.9922   -9.3232   16.5995 O   0  0  0  0  0  0  0  0  0  0  0  0
    1.5232   -7.6869   27.1182 C   0  0  0  0  0  0  0  0  0  0  0  0
    8.6878   -6.6715   27.7262 N   0  0  0  0  0  0  0  0  0  0  0  0
    6.9911   -8.2423   27.1808 C   0  0  0  0  0  0  0  0  0  0  0  0
    3.8436   -7.2758   16.0578 C   0  0  0  0  0  0  0  0  0  0  0  0
    3.1882   -9.7190   17.2566 C   0  0  0  0  0  0  0  0  0  0  0  0
    5.3488   -6.1737   26.5092 C   0  0  0  0  0  0  0  0  0  0  0  0
    7.4567   -6.9464   27.2858 C   0  0  0  0  0  0  0  0  0  0  0  0
    0.1921   -5.7592   27.1123 C   0  0  0  0  0  0  0  0  0  0  0  0
    3.5517   -7.7407   25.9711 C   0  0  0  0  0  0  0  0  0  0  0  0
  1  4  4  0
  1 22  4  0
  2 20  4  0
  2 27  4  0
  3 12  4  0
  3 23  4  0
  4 25  4  0
  4 28  1  0
  5  8  4  0
  5 17  4  0
  6  7  4  0
  6 16  4  0
  7 18  4  0
  8 27  4  0
  9 13  4  0
  9 23  4  0
 10 11  1  0
 11 14  2  0
 11 27  1  0
 12 19  1  0
 12 24  4  0
 13 24  4  0
 15 18  1  0
 16 25  4  0
 16 26  4  0
 17 20  4  0
 17 28  1  0
 18 21  4  0
 21 26  4  0
 22 26  4  0
M  END
$$$$

 Created by Python create_sdf_string function

 28 30  0  0  0  0  0  0  0  0999 V2000
    5.7174   -8.4529   26.7190 C   0  0  0  0  0  0  0  0  0  0  0  0
    0.3974   -7.0711   27.5149 C   0  0  0  0  0  0  0  0  0  0  0  0
    2.5338   -7.6891   16.0102 C   0  0  0  0  0  0  0  0  0  0  0  0
    4.8690   -7.4380   26.4151 C   0  0  0  0  0  0  0  0  0  0  0  0
    2.3021   -5.6726   26.0378 C   0  0  0  0  0  0  0  0  0  0  0  0
    7.0880   -4.6163   27.0010 C   0  0  0  0  0  0  0  0  0  0  0  0
    8.3117   -4.3698   27.4436 C   0  0  0  0  0  0  0  0  0  0  0  0
    1.1339   -5.0515   26.3541 C   0  0  0  0  0  0  0  0  0  0  0  0
    4.8080   -8.0362   16.7101 C   0  0  0  0  0  0  0  0  0  0  0  0
   -1.2173   -3.9294   26.9717 O   0  0  0  0  0  0  0  0  0  0  0  0
   -1.0025   -5.0942   27.4586 C   0  0  0  0  0  0  0  0  0  0  0  0
    2.2474   -8.9123   16.6273 C   0  0  0  0  0  0  0  0  0  0  0  0
    4.4957   -9.2636   17.3041 C   0  0  0  0  0  0  0  0  0  0  0  0
   -1.8070   -5.6086   28.1920 O   0  0  0  0  0  0  0  0  0  0  0  0
   10.4296   -5.1799   28.3140 C   0  0  0  0  0  0  0  0  0  0  0  0
    6.6017   -5.9004   26.9187 C   0  0  0  0  0  0  0  0  0  0  0  0
    2.4761   -6.9940   26.4111 N   0  0  0  0  0  0  0  0  0  0  0  0
    9.1353   -5.4053   27.8239 C   0  0  0  0  0  0  0  0  0  0  0  0
    0.9922   -9.3232   16.5995 O   0  0  0  0  0  0  0  0  0  0  0  0
    1.5232   -7.6869   27.1182 C   0  0  0  0  0  0  0  0  0  0  0  0
    8.6878   -6.6715   27.7262 N   0  0  0  0  0  0  0  0  0  0  0  0
    6.9911   -8.2423   27.1808 C   0  0  0  0  0  0  0  0  0  0  0  0
    3.8436   -7.2758   16.0578 C   0  0  0  0  0  0  0  0  0  0  0  0
    3.1882   -9.7190   17.2566 C   0  0  0  0  0  0  0  0  0  0  0  0
    5.3488   -6.1737   26.5092 C   0  0  0  0  0  0  0  0  0  0  0  0
    7.4567   -6.9464   27.2858 C   0  0  0  0  0  0  0  0  0  0  0  0
    0.1921   -5.7592   27.1123 C   0  0  0  0  0  0  0  0  0  0  0  0
    3.5517   -7.7407   25.9711 C   0  0  0  0  0  0  0  0  0  0  0  0
  1  4  4  0
  1 22  4  0
  2 20  4  0
  2 27  4  0
  3 12  4  0
  3 23  4  0
  4 25  4  0
  4 28  1  0
  5  8  4  0
  5 17  4  0
  6  7  4  0
  6 16  4  0
  7 18  4  0
  8 27  4  0
  9 13  4  0
  9 23  4  0
 10 11  1  0
 11 14  2  0
 11 27  1  0
 12 19  1  0
 12 24  4  0
 13 24  4  0
 15 18  1  0
 16 25  4  0
 16 26  4  0
 17 20  4  0
 17 28  1  0
 18 21  4  0
 21 26  4  0
 22 26  4  0
M  END
$$$$

 Created by Python create_sdf_string function

 28 30  0  0  0  0  0  0  0  0999 V2000
    5.7174   -8.4529   26.7190 C   0  0  0  0  0  0  0  0  0  0  0  0
    0.3974   -7.0711   27.5149 C   0  0  0  0  0  0  0  0  0  0  0  0
    2.5338   -7.6891   16.0102 C   0  0  0  0  0  0  0  0  0  0  0  0
    4.8690   -7.4380   26.4151 C   0  0  0  0  0  0  0  0  0  0  0  0
    2.3021   -5.6726   26.0378 C   0  0  0  0  0  0  0  0  0  0  0  0
    7.0880   -4.6163   27.0010 C   0  0  0  0  0  0  0  0  0  0  0  0
    8.3117   -4.3698   27.4436 C   0  0  0  0  0  0  0  0  0  0  0  0
    1.1339   -5.0515   26.3541 C   0  0  0  0  0  0  0  0  0  0  0  0
    4.8080   -8.0362   16.7101 C   0  0  0  0  0  0  0  0  0  0  0  0
   -1.2173   -3.9294   26.9717 O   0  0  0  0  0  0  0  0  0  0  0  0
   -1.0025   -5.0942   27.4586 C   0  0  0  0  0  0  0  0  0  0  0  0
    2.2474   -8.9123   16.6273 C   0  0  0  0  0  0  0  0  0  0  0  0
    4.4957   -9.2636   17.3041 C   0  0  0  0  0  0  0  0  0  0  0  0
   -1.8070   -5.6086   28.1920 O   0  0  0  0  0  0  0  0  0  0  0  0
   10.4296   -5.1799   28.3140 C   0  0  0  0  0  0  0  0  0  0  0  0
    6.6017   -5.9004   26.9187 C   0  0  0  0  0  0  0  0  0  0  0  0
    2.4761   -6.9940   26.4111 N   0  0  0  0  0  0  0  0  0  0  0  0
    9.1353   -5.4053   27.8239 C   0  0  0  0  0  0  0  0  0  0  0  0
    0.9922   -9.3232   16.5995 O   0  0  0  0  0  0  0  0  0  0  0  0
    1.5232   -7.6869   27.1182 C   0  0  0  0  0  0  0  0  0  0  0  0
    8.6878   -6.6715   27.7262 N   0  0  0  0  0  0  0  0  0  0  0  0
    6.9911   -8.2423   27.1808 C   0  0  0  0  0  0  0  0  0  0  0  0
    3.8436   -7.2758   16.0578 C   0  0  0  0  0  0  0  0  0  0  0  0
    3.1882   -9.7190   17.2566 C   0  0  0  0  0  0  0  0  0  0  0  0
    5.3488   -6.1737   26.5092 C   0  0  0  0  0  0  0  0  0  0  0  0
    7.4567   -6.9464   27.2858 C   0  0  0  0  0  0  0  0  0  0  0  0
    0.1921   -5.7592   27.1123 C   0  0  0  0  0  0  0  0  0  0  0  0
    3.5517   -7.7407   25.9711 C   0  0  0  0  0  0  0  0  0  0  0  0
  1  4  4  0
  1 22  4  0
  2 20  4  0
  2 27  4  0
  3 12  4  0
  3 23  4  0
  4 25  4  0
  4 28  1  0
  5  8  4  0
  5 17  4  0
  6  7  4  0
  6 16  4  0
  7 18  4  0
  8 27  4  0
  9 13  4  0
  9 23  4  0
 10 11  1  0
 11 14  2  0
 11 27  1  0
 12 19  1  0
 12 24  4  0
 13 24  4  0
 15 18  1  0
 16 25  4  0
 16 26  4  0
 17 20  4  0
 17 28  1  0
 18 21  4  0
 21 26  4  0
 22 26  4  0
M  END
$$$$

 Created by Python create_sdf_string function

 28 30  0  0  0  0  0  0  0  0999 V2000
    5.7174   -8.4529   26.7190 C   0  0  0  0  0  0  0  0  0  0  0  0
    0.3974   -7.0711   27.5149 C   0  0  0  0  0  0  0  0  0  0  0  0
    2.5338   -7.6891   16.0102 C   0  0  0  0  0  0  0  0  0  0  0  0
    4.8690   -7.4380   26.4151 C   0  0  0  0  0  0  0  0  0  0  0  0
    2.3021   -5.6726   26.0378 C   0  0  0  0  0  0  0  0  0  0  0  0
    7.0880   -4.6163   27.0010 C   0  0  0  0  0  0  0  0  0  0  0  0
    8.3117   -4.3698   27.4436 C   0  0  0  0  0  0  0  0  0  0  0  0
    1.1339   -5.0515   26.3541 C   0  0  0  0  0  0  0  0  0  0  0  0
    4.8080   -8.0362   16.7101 C   0  0  0  0  0  0  0  0  0  0  0  0
   -1.2173   -3.9294   26.9717 O   0  0  0  0  0  0  0  0  0  0  0  0
   -1.0025   -5.0942   27.4586 C   0  0  0  0  0  0  0  0  0  0  0  0
    2.2474   -8.9123   16.6273 C   0  0  0  0  0  0  0  0  0  0  0  0
    4.4957   -9.2636   17.3041 C   0  0  0  0  0  0  0  0  0  0  0  0
   -1.8070   -5.6086   28.1920 O   0  0  0  0  0  0  0  0  0  0  0  0
   10.4296   -5.1799   28.3140 C   0  0  0  0  0  0  0  0  0  0  0  0
    6.6017   -5.9004   26.9187 C   0  0  0  0  0  0  0  0  0  0  0  0
    2.4761   -6.9940   26.4111 N   0  0  0  0  0  0  0  0  0  0  0  0
    9.1353   -5.4053   27.8239 C   0  0  0  0  0  0  0  0  0  0  0  0
    0.9922   -9.3232   16.5995 O   0  0  0  0  0  0  0  0  0  0  0  0
    1.5232   -7.6869   27.1182 C   0  0  0  0  0  0  0  0  0  0  0  0
    8.6878   -6.6715   27.7262 N   0  0  0  0  0  0  0  0  0  0  0  0
    6.9911   -8.2423   27.1808 C   0  0  0  0  0  0  0  0  0  0  0  0
    3.8436   -7.2758   16.0578 C   0  0  0  0  0  0  0  0  0  0  0  0
    3.1882   -9.7190   17.2566 C   0  0  0  0  0  0  0  0  0  0  0  0
    5.3488   -6.1737   26.5092 C   0  0  0  0  0  0  0  0  0  0  0  0
    7.4567   -6.9464   27.2858 C   0  0  0  0  0  0  0  0  0  0  0  0
    0.1921   -5.7592   27.1123 C   0  0  0  0  0  0  0  0  0  0  0  0
    3.5517   -7.7407   25.9711 C   0  0  0  0  0  0  0  0  0  0  0  0
  1  4  4  0
  1 22  4  0
  2 20  4  0
  2 27  4  0
  3 12  4  0
  3 23  4  0
  4 25  4  0
  4 28  1  0
  5  8  4  0
  5 17  4  0
  6  7  4  0
  6 16  4  0
  7 18  4  0
  8 27  4  0
  9 13  4  0
  9 23  4  0
 10 11  1  0
 11 14  2  0
 11 27  1  0
 12 19  1  0
 12 24  4  0
 13 24  4  0
 15 18  1  0
 16 25  4  0
 16 26  4  0
 17 20  4  0
 17 28  1  0
 18 21  4  0
 21 26  4  0
 22 26  4  0
M  END
$$$$

 Created by Python create_sdf_string function

 28 30  0  0  0  0  0  0  0  0999 V2000
    5.7174   -8.4529   26.7190 C   0  0  0  0  0  0  0  0  0  0  0  0
    0.3974   -7.0711   27.5149 C   0  0  0  0  0  0  0  0  0  0  0  0
    2.5338   -7.6891   16.0102 C   0  0  0  0  0  0  0  0  0  0  0  0
    4.8690   -7.4380   26.4151 C   0  0  0  0  0  0  0  0  0  0  0  0
    2.3021   -5.6726   26.0378 C   0  0  0  0  0  0  0  0  0  0  0  0
    7.0880   -4.6163   27.0010 C   0  0  0  0  0  0  0  0  0  0  0  0
    8.3117   -4.3698   27.4436 C   0  0  0  0  0  0  0  0  0  0  0  0
    1.1339   -5.0515   26.3541 C   0  0  0  0  0  0  0  0  0  0  0  0
    4.8080   -8.0362   16.7101 C   0  0  0  0  0  0  0  0  0  0  0  0
   -1.2173   -3.9294   26.9717 O   0  0  0  0  0  0  0  0  0  0  0  0
   -1.0025   -5.0942   27.4586 C   0  0  0  0  0  0  0  0  0  0  0  0
    2.2474   -8.9123   16.6273 C   0  0  0  0  0  0  0  0  0  0  0  0
    4.4957   -9.2636   17.3041 C   0  0  0  0  0  0  0  0  0  0  0  0
   -1.8070   -5.6086   28.1920 O   0  0  0  0  0  0  0  0  0  0  0  0
   10.4296   -5.1799   28.3140 C   0  0  0  0  0  0  0  0  0  0  0  0
    6.6017   -5.9004   26.9187 C   0  0  0  0  0  0  0  0  0  0  0  0
    2.4761   -6.9940   26.4111 N   0  0  0  0  0  0  0  0  0  0  0  0
    9.1353   -5.4053   27.8239 C   0  0  0  0  0  0  0  0  0  0  0  0
    0.9922   -9.3232   16.5995 O   0  0  0  0  0  0  0  0  0  0  0  0
    1.5232   -7.6869   27.1182 C   0  0  0  0  0  0  0  0  0  0  0  0
    8.6878   -6.6715   27.7262 N   0  0  0  0  0  0  0  0  0  0  0  0
    6.9911   -8.2423   27.1808 C   0  0  0  0  0  0  0  0  0  0  0  0
    3.8436   -7.2758   16.0578 C   0  0  0  0  0  0  0  0  0  0  0  0
    3.1882   -9.7190   17.2566 C   0  0  0  0  0  0  0  0  0  0  0  0
    5.3488   -6.1737   26.5092 C   0  0  0  0  0  0  0  0  0  0  0  0
    7.4567   -6.9464   27.2858 C   0  0  0  0  0  0  0  0  0  0  0  0
    0.1921   -5.7592   27.1123 C   0  0  0  0  0  0  0  0  0  0  0  0
    3.5517   -7.7407   25.9711 C   0  0  0  0  0  0  0  0  0  0  0  0
  1  4  4  0
  1 22  4  0
  2 20  4  0
  2 27  4  0
  3 12  4  0
  3 23  4  0
  4 25  4  0
  4 28  1  0
  5  8  4  0
  5 17  4  0
  6  7  4  0
  6 16  4  0
  7 18  4  0
  8 27  4  0
  9 13  4  0
  9 23  4  0
 10 11  1  0
 11 14  2  0
 11 27  1  0
 12 19  1  0
 12 24  4  0
 13 24  4  0
 15 18  1  0
 16 25  4  0
 16 26  4  0
 17 20  4  0
 17 28  1  0
 18 21  4  0
 21 26  4  0
 22 26  4  0
M  END
$$$$

 Created by Python create_sdf_string function

 28 30  0  0  0  0  0  0  0  0999 V2000
    5.7174   -8.4529   26.7190 C   0  0  0  0  0  0  0  0  0  0  0  0
    0.3974   -7.0711   27.5149 C   0  0  0  0  0  0  0  0  0  0  0  0
    2.5338   -7.6891   16.0102 C   0  0  0  0  0  0  0  0  0  0  0  0
    4.8690   -7.4380   26.4151 C   0  0  0  0  0  0  0  0  0  0  0  0
    2.3021   -5.6726   26.0378 C   0  0  0  0  0  0  0  0  0  0  0  0
    7.0880   -4.6163   27.0010 C   0  0  0  0  0  0  0  0  0  0  0  0
    8.3117   -4.3698   27.4436 C   0  0  0  0  0  0  0  0  0  0  0  0
    1.1339   -5.0515   26.3541 C   0  0  0  0  0  0  0  0  0  0  0  0
    4.8080   -8.0362   16.7101 C   0  0  0  0  0  0  0  0  0  0  0  0
   -1.2173   -3.9294   26.9717 O   0  0  0  0  0  0  0  0  0  0  0  0
   -1.0025   -5.0942   27.4586 C   0  0  0  0  0  0  0  0  0  0  0  0
    2.2474   -8.9123   16.6273 C   0  0  0  0  0  0  0  0  0  0  0  0
    4.4957   -9.2636   17.3041 C   0  0  0  0  0  0  0  0  0  0  0  0
   -1.8070   -5.6086   28.1920 O   0  0  0  0  0  0  0  0  0  0  0  0
   10.4296   -5.1799   28.3140 C   0  0  0  0  0  0  0  0  0  0  0  0
    6.6017   -5.9004   26.9187 C   0  0  0  0  0  0  0  0  0  0  0  0
    2.4761   -6.9940   26.4111 N   0  0  0  0  0  0  0  0  0  0  0  0
    9.1353   -5.4053   27.8239 C   0  0  0  0  0  0  0  0  0  0  0  0
    0.9922   -9.3232   16.5995 O   0  0  0  0  0  0  0  0  0  0  0  0
    1.5232   -7.6869   27.1182 C   0  0  0  0  0  0  0  0  0  0  0  0
    8.6878   -6.6715   27.7262 N   0  0  0  0  0  0  0  0  0  0  0  0
    6.9911   -8.2423   27.1808 C   0  0  0  0  0  0  0  0  0  0  0  0
    3.8436   -7.2758   16.0578 C   0  0  0  0  0  0  0  0  0  0  0  0
    3.1882   -9.7190   17.2566 C   0  0  0  0  0  0  0  0  0  0  0  0
    5.3488   -6.1737   26.5092 C   0  0  0  0  0  0  0  0  0  0  0  0
    7.4567   -6.9464   27.2858 C   0  0  0  0  0  0  0  0  0  0  0  0
    0.1921   -5.7592   27.1123 C   0  0  0  0  0  0  0  0  0  0  0  0
    3.5517   -7.7407   25.9711 C   0  0  0  0  0  0  0  0  0  0  0  0
  1  4  4  0
  1 22  4  0
  2 20  4  0
  2 27  4  0
  3 12  4  0
  3 23  4  0
  4 25  4  0
  4 28  1  0
  5  8  4  0
  5 17  4  0
  6  7  4  0
  6 16  4  0
  7 18  4  0
  8 27  4  0
  9 13  4  0
  9 23  4  0
 10 11  1  0
 11 14  2  0
 11 27  1  0
 12 19  1  0
 12 24  4  0
 13 24  4  0
 15 18  1  0
 16 25  4  0
 16 26  4  0
 17 20  4  0
 17 28  1  0
 18 21  4  0
 21 26  4  0
 22 26  4  0
M  END
$$$$

 Created by Python create_sdf_string function

 28 30  0  0  0  0  0  0  0  0999 V2000
    5.7174   -8.4529   26.7190 C   0  0  0  0  0  0  0  0  0  0  0  0
    0.3974   -7.0711   27.5149 C   0  0  0  0  0  0  0  0  0  0  0  0
    2.5338   -7.6891   16.0102 C   0  0  0  0  0  0  0  0  0  0  0  0
    4.8690   -7.4380   26.4151 C   0  0  0  0  0  0  0  0  0  0  0  0
    2.3021   -5.6726   26.0378 C   0  0  0  0  0  0  0  0  0  0  0  0
    7.0880   -4.6163   27.0010 C   0  0  0  0  0  0  0  0  0  0  0  0
    8.3117   -4.3698   27.4436 C   0  0  0  0  0  0  0  0  0  0  0  0
    1.1339   -5.0515   26.3541 C   0  0  0  0  0  0  0  0  0  0  0  0
    4.8080   -8.0362   16.7101 C   0  0  0  0  0  0  0  0  0  0  0  0
   -1.2173   -3.9294   26.9717 O   0  0  0  0  0  0  0  0  0  0  0  0
   -1.0025   -5.0942   27.4586 C   0  0  0  0  0  0  0  0  0  0  0  0
    2.2474   -8.9123   16.6273 C   0  0  0  0  0  0  0  0  0  0  0  0
    4.4957   -9.2636   17.3041 C   0  0  0  0  0  0  0  0  0  0  0  0
   -1.8070   -5.6086   28.1920 O   0  0  0  0  0  0  0  0  0  0  0  0
   10.4296   -5.1799   28.3140 C   0  0  0  0  0  0  0  0  0  0  0  0
    6.6017   -5.9004   26.9187 C   0  0  0  0  0  0  0  0  0  0  0  0
    2.4761   -6.9940   26.4111 N   0  0  0  0  0  0  0  0  0  0  0  0
    9.1353   -5.4053   27.8239 C   0  0  0  0  0  0  0  0  0  0  0  0
    0.9922   -9.3232   16.5995 O   0  0  0  0  0  0  0  0  0  0  0  0
    1.5232   -7.6869   27.1182 C   0  0  0  0  0  0  0  0  0  0  0  0
    8.6878   -6.6715   27.7262 N   0  0  0  0  0  0  0  0  0  0  0  0
    6.9911   -8.2423   27.1808 C   0  0  0  0  0  0  0  0  0  0  0  0
    3.8436   -7.2758   16.0578 C   0  0  0  0  0  0  0  0  0  0  0  0
    3.1882   -9.7190   17.2566 C   0  0  0  0  0  0  0  0  0  0  0  0
    5.3488   -6.1737   26.5092 C   0  0  0  0  0  0  0  0  0  0  0  0
    7.4567   -6.9464   27.2858 C   0  0  0  0  0  0  0  0  0  0  0  0
    0.1921   -5.7592   27.1123 C   0  0  0  0  0  0  0  0  0  0  0  0
    3.5517   -7.7407   25.9711 C   0  0  0  0  0  0  0  0  0  0  0  0
  1  4  4  0
  1 22  4  0
  2 20  4  0
  2 27  4  0
  3 12  4  0
  3 23  4  0
  4 25  4  0
  4 28  1  0
  5  8  4  0
  5 17  4  0
  6  7  4  0
  6 16  4  0
  7 18  4  0
  8 27  4  0
  9 13  4  0
  9 23  4  0
 10 11  1  0
 11 14  2  0
 11 27  1  0
 12 19  1  0
 12 24  4  0
 13 24  4  0
 15 18  1  0
 16 25  4  0
 16 26  4  0
 17 20  4  0
 17 28  1  0
 18 21  4  0
 21 26  4  0
 22 26  4  0
M  END
$$$$

 Created by Python create_sdf_string function

 28 30  0  0  0  0  0  0  0  0999 V2000
    5.7174   -8.4529   26.7190 C   0  0  0  0  0  0  0  0  0  0  0  0
    0.3974   -7.0711   27.5149 C   0  0  0  0  0  0  0  0  0  0  0  0
    2.5338   -7.6891   16.0102 C   0  0  0  0  0  0  0  0  0  0  0  0
    4.8690   -7.4380   26.4151 C   0  0  0  0  0  0  0  0  0  0  0  0
    2.3021   -5.6726   26.0378 C   0  0  0  0  0  0  0  0  0  0  0  0
    7.0880   -4.6163   27.0010 C   0  0  0  0  0  0  0  0  0  0  0  0
    8.3117   -4.3698   27.4436 C   0  0  0  0  0  0  0  0  0  0  0  0
    1.1339   -5.0515   26.3541 C   0  0  0  0  0  0  0  0  0  0  0  0
    4.8080   -8.0362   16.7101 C   0  0  0  0  0  0  0  0  0  0  0  0
   -1.2173   -3.9294   26.9717 O   0  0  0  0  0  0  0  0  0  0  0  0
   -1.0025   -5.0942   27.4586 C   0  0  0  0  0  0  0  0  0  0  0  0
    2.2474   -8.9123   16.6273 C   0  0  0  0  0  0  0  0  0  0  0  0
    4.4957   -9.2636   17.3041 C   0  0  0  0  0  0  0  0  0  0  0  0
   -1.8070   -5.6086   28.1920 O   0  0  0  0  0  0  0  0  0  0  0  0
   10.4296   -5.1799   28.3140 C   0  0  0  0  0  0  0  0  0  0  0  0
    6.6017   -5.9004   26.9187 C   0  0  0  0  0  0  0  0  0  0  0  0
    2.4761   -6.9940   26.4111 N   0  0  0  0  0  0  0  0  0  0  0  0
    9.1353   -5.4053   27.8239 C   0  0  0  0  0  0  0  0  0  0  0  0
    0.9922   -9.3232   16.5995 O   0  0  0  0  0  0  0  0  0  0  0  0
    1.5232   -7.6869   27.1182 C   0  0  0  0  0  0  0  0  0  0  0  0
    8.6878   -6.6715   27.7262 N   0  0  0  0  0  0  0  0  0  0  0  0
    6.9911   -8.2423   27.1808 C   0  0  0  0  0  0  0  0  0  0  0  0
    3.8436   -7.2758   16.0578 C   0  0  0  0  0  0  0  0  0  0  0  0
    3.1882   -9.7190   17.2566 C   0  0  0  0  0  0  0  0  0  0  0  0
    5.3488   -6.1737   26.5092 C   0  0  0  0  0  0  0  0  0  0  0  0
    7.4567   -6.9464   27.2858 C   0  0  0  0  0  0  0  0  0  0  0  0
    0.1921   -5.7592   27.1123 C   0  0  0  0  0  0  0  0  0  0  0  0
    3.5517   -7.7407   25.9711 C   0  0  0  0  0  0  0  0  0  0  0  0
  1  4  4  0
  1 22  4  0
  2 20  4  0
  2 27  4  0
  3 12  4  0
  3 23  4  0
  4 25  4  0
  4 28  1  0
  5  8  4  0
  5 17  4  0
  6  7  4  0
  6 16  4  0
  7 18  4  0
  8 27  4  0
  9 13  4  0
  9 23  4  0
 10 11  1  0
 11 14  2  0
 11 27  1  0
 12 19  1  0
 12 24  4  0
 13 24  4  0
 15 18  1  0
 16 25  4  0
 16 26  4  0
 17 20  4  0
 17 28  1  0
 18 21  4  0
 21 26  4  0
 22 26  4  0
M  END
$$$$

 Created by Python create_sdf_string function

 28 30  0  0  0  0  0  0  0  0999 V2000
    5.7174   -8.4529   26.7190 C   0  0  0  0  0  0  0  0  0  0  0  0
    0.3974   -7.0711   27.5149 C   0  0  0  0  0  0  0  0  0  0  0  0
    2.5338   -7.6891   16.0102 C   0  0  0  0  0  0  0  0  0  0  0  0
    4.8690   -7.4380   26.4151 C   0  0  0  0  0  0  0  0  0  0  0  0
    2.3021   -5.6726   26.0378 C   0  0  0  0  0  0  0  0  0  0  0  0
    7.0880   -4.6163   27.0010 C   0  0  0  0  0  0  0  0  0  0  0  0
    8.3117   -4.3698   27.4436 C   0  0  0  0  0  0  0  0  0  0  0  0
    1.1339   -5.0515   26.3541 C   0  0  0  0  0  0  0  0  0  0  0  0
    4.8080   -8.0362   16.7101 C   0  0  0  0  0  0  0  0  0  0  0  0
   -1.2173   -3.9294   26.9717 O   0  0  0  0  0  0  0  0  0  0  0  0
   -1.0025   -5.0942   27.4586 C   0  0  0  0  0  0  0  0  0  0  0  0
    2.2474   -8.9123   16.6273 C   0  0  0  0  0  0  0  0  0  0  0  0
    4.4957   -9.2636   17.3041 C   0  0  0  0  0  0  0  0  0  0  0  0
   -1.8070   -5.6086   28.1920 O   0  0  0  0  0  0  0  0  0  0  0  0
   10.4296   -5.1799   28.3140 C   0  0  0  0  0  0  0  0  0  0  0  0
    6.6017   -5.9004   26.9187 C   0  0  0  0  0  0  0  0  0  0  0  0
    2.4761   -6.9940   26.4111 N   0  0  0  0  0  0  0  0  0  0  0  0
    9.1353   -5.4053   27.8239 C   0  0  0  0  0  0  0  0  0  0  0  0
    0.9922   -9.3232   16.5995 O   0  0  0  0  0  0  0  0  0  0  0  0
    1.5232   -7.6869   27.1182 C   0  0  0  0  0  0  0  0  0  0  0  0
    8.6878   -6.6715   27.7262 N   0  0  0  0  0  0  0  0  0  0  0  0
    6.9911   -8.2423   27.1808 C   0  0  0  0  0  0  0  0  0  0  0  0
    3.8436   -7.2758   16.0578 C   0  0  0  0  0  0  0  0  0  0  0  0
    3.1882   -9.7190   17.2566 C   0  0  0  0  0  0  0  0  0  0  0  0
    5.3488   -6.1737   26.5092 C   0  0  0  0  0  0  0  0  0  0  0  0
    7.4567   -6.9464   27.2858 C   0  0  0  0  0  0  0  0  0  0  0  0
    0.1921   -5.7592   27.1123 C   0  0  0  0  0  0  0  0  0  0  0  0
    3.5517   -7.7407   25.9711 C   0  0  0  0  0  0  0  0  0  0  0  0
  1  4  4  0
  1 22  4  0
  2 20  4  0
  2 27  4  0
  3 12  4  0
  3 23  4  0
  4 25  4  0
  4 28  1  0
  5  8  4  0
  5 17  4  0
  6  7  4  0
  6 16  4  0
  7 18  4  0
  8 27  4  0
  9 13  4  0
  9 23  4  0
 10 11  1  0
 11 14  2  0
 11 27  1  0
 12 19  1  0
 12 24  4  0
 13 24  4  0
 15 18  1  0
 16 25  4  0
 16 26  4  0
 17 20  4  0
 17 28  1  0
 18 21  4  0
 21 26  4  0
 22 26  4  0
M  END
$$$$

 Created by Python create_sdf_string function

 28 30  0  0  0  0  0  0  0  0999 V2000
    5.7174   -8.4529   26.7190 C   0  0  0  0  0  0  0  0  0  0  0  0
    0.3974   -7.0711   27.5149 C   0  0  0  0  0  0  0  0  0  0  0  0
    2.5338   -7.6891   16.0102 C   0  0  0  0  0  0  0  0  0  0  0  0
    4.8690   -7.4380   26.4151 C   0  0  0  0  0  0  0  0  0  0  0  0
    2.3021   -5.6726   26.0378 C   0  0  0  0  0  0  0  0  0  0  0  0
    7.0880   -4.6163   27.0010 C   0  0  0  0  0  0  0  0  0  0  0  0
    8.3117   -4.3698   27.4436 C   0  0  0  0  0  0  0  0  0  0  0  0
    1.1339   -5.0515   26.3541 C   0  0  0  0  0  0  0  0  0  0  0  0
    4.8080   -8.0362   16.7101 C   0  0  0  0  0  0  0  0  0  0  0  0
   -1.2173   -3.9294   26.9717 O   0  0  0  0  0  0  0  0  0  0  0  0
   -1.0025   -5.0942   27.4586 C   0  0  0  0  0  0  0  0  0  0  0  0
    2.2474   -8.9123   16.6273 C   0  0  0  0  0  0  0  0  0  0  0  0
    4.4957   -9.2636   17.3041 C   0  0  0  0  0  0  0  0  0  0  0  0
   -1.8070   -5.6086   28.1920 O   0  0  0  0  0  0  0  0  0  0  0  0
   10.4296   -5.1799   28.3140 C   0  0  0  0  0  0  0  0  0  0  0  0
    6.6017   -5.9004   26.9187 C   0  0  0  0  0  0  0  0  0  0  0  0
    2.4761   -6.9940   26.4111 N   0  0  0  0  0  0  0  0  0  0  0  0
    9.1353   -5.4053   27.8239 C   0  0  0  0  0  0  0  0  0  0  0  0
    0.9922   -9.3232   16.5995 O   0  0  0  0  0  0  0  0  0  0  0  0
    1.5232   -7.6869   27.1182 C   0  0  0  0  0  0  0  0  0  0  0  0
    8.6878   -6.6715   27.7262 N   0  0  0  0  0  0  0  0  0  0  0  0
    6.9911   -8.2423   27.1808 C   0  0  0  0  0  0  0  0  0  0  0  0
    3.8436   -7.2758   16.0578 C   0  0  0  0  0  0  0  0  0  0  0  0
    3.1882   -9.7190   17.2566 C   0  0  0  0  0  0  0  0  0  0  0  0
    5.3488   -6.1737   26.5092 C   0  0  0  0  0  0  0  0  0  0  0  0
    7.4567   -6.9464   27.2858 C   0  0  0  0  0  0  0  0  0  0  0  0
    0.1921   -5.7592   27.1123 C   0  0  0  0  0  0  0  0  0  0  0  0
    3.5517   -7.7407   25.9711 C   0  0  0  0  0  0  0  0  0  0  0  0
  1  4  4  0
  1 22  4  0
  2 20  4  0
  2 27  4  0
  3 12  4  0
  3 23  4  0
  4 25  4  0
  4 28  1  0
  5  8  4  0
  5 17  4  0
  6  7  4  0
  6 16  4  0
  7 18  4  0
  8 27  4  0
  9 13  4  0
  9 23  4  0
 10 11  1  0
 11 14  2  0
 11 27  1  0
 12 19  1  0
 12 24  4  0
 13 24  4  0
 15 18  1  0
 16 25  4  0
 16 26  4  0
 17 20  4  0
 17 28  1  0
 18 21  4  0
 21 26  4  0
 22 26  4  0
M  END
$$$$

 Created by Python create_sdf_string function

 28 30  0  0  0  0  0  0  0  0999 V2000
    5.7174   -8.4529   26.7190 C   0  0  0  0  0  0  0  0  0  0  0  0
    0.3974   -7.0711   27.5149 C   0  0  0  0  0  0  0  0  0  0  0  0
    2.5338   -7.6891   16.0102 C   0  0  0  0  0  0  0  0  0  0  0  0
    4.8690   -7.4380   26.4151 C   0  0  0  0  0  0  0  0  0  0  0  0
    2.3021   -5.6726   26.0378 C   0  0  0  0  0  0  0  0  0  0  0  0
    7.0880   -4.6163   27.0010 C   0  0  0  0  0  0  0  0  0  0  0  0
    8.3117   -4.3698   27.4436 C   0  0  0  0  0  0  0  0  0  0  0  0
    1.1339   -5.0515   26.3541 C   0  0  0  0  0  0  0  0  0  0  0  0
    4.8080   -8.0362   16.7101 C   0  0  0  0  0  0  0  0  0  0  0  0
   -1.2173   -3.9294   26.9717 O   0  0  0  0  0  0  0  0  0  0  0  0
   -1.0025   -5.0942   27.4586 C   0  0  0  0  0  0  0  0  0  0  0  0
    2.2474   -8.9123   16.6273 C   0  0  0  0  0  0  0  0  0  0  0  0
    4.4957   -9.2636   17.3041 C   0  0  0  0  0  0  0  0  0  0  0  0
   -1.8070   -5.6086   28.1920 O   0  0  0  0  0  0  0  0  0  0  0  0
   10.4296   -5.1799   28.3140 C   0  0  0  0  0  0  0  0  0  0  0  0
    6.6017   -5.9004   26.9187 C   0  0  0  0  0  0  0  0  0  0  0  0
    2.4761   -6.9940   26.4111 N   0  0  0  0  0  0  0  0  0  0  0  0
    9.1353   -5.4053   27.8239 C   0  0  0  0  0  0  0  0  0  0  0  0
    0.9922   -9.3232   16.5995 O   0  0  0  0  0  0  0  0  0  0  0  0
    1.5232   -7.6869   27.1182 C   0  0  0  0  0  0  0  0  0  0  0  0
    8.6878   -6.6715   27.7262 N   0  0  0  0  0  0  0  0  0  0  0  0
    6.9911   -8.2423   27.1808 C   0  0  0  0  0  0  0  0  0  0  0  0
    3.8436   -7.2758   16.0578 C   0  0  0  0  0  0  0  0  0  0  0  0
    3.1882   -9.7190   17.2566 C   0  0  0  0  0  0  0  0  0  0  0  0
    5.3488   -6.1737   26.5092 C   0  0  0  0  0  0  0  0  0  0  0  0
    7.4567   -6.9464   27.2858 C   0  0  0  0  0  0  0  0  0  0  0  0
    0.1921   -5.7592   27.1123 C   0  0  0  0  0  0  0  0  0  0  0  0
    3.5517   -7.7407   25.9711 C   0  0  0  0  0  0  0  0  0  0  0  0
  1  4  4  0
  1 22  4  0
  2 20  4  0
  2 27  4  0
  3 12  4  0
  3 23  4  0
  4 25  4  0
  4 28  1  0
  5  8  4  0
  5 17  4  0
  6  7  4  0
  6 16  4  0
  7 18  4  0
  8 27  4  0
  9 13  4  0
  9 23  4  0
 10 11  1  0
 11 14  2  0
 11 27  1  0
 12 19  1  0
 12 24  4  0
 13 24  4  0
 15 18  1  0
 16 25  4  0
 16 26  4  0
 17 20  4  0
 17 28  1  0
 18 21  4  0
 21 26  4  0
 22 26  4  0
M  END
$$$$

 Created by Python create_sdf_string function

 28 30  0  0  0  0  0  0  0  0999 V2000
    5.7174   -8.4529   26.7190 C   0  0  0  0  0  0  0  0  0  0  0  0
    0.3974   -7.0711   27.5149 C   0  0  0  0  0  0  0  0  0  0  0  0
    2.5338   -7.6891   16.0102 C   0  0  0  0  0  0  0  0  0  0  0  0
    4.8690   -7.4380   26.4151 C   0  0  0  0  0  0  0  0  0  0  0  0
    2.3021   -5.6726   26.0378 C   0  0  0  0  0  0  0  0  0  0  0  0
    7.0880   -4.6163   27.0010 C   0  0  0  0  0  0  0  0  0  0  0  0
    8.3117   -4.3698   27.4436 C   0  0  0  0  0  0  0  0  0  0  0  0
    1.1339   -5.0515   26.3541 C   0  0  0  0  0  0  0  0  0  0  0  0
    4.8080   -8.0362   16.7101 C   0  0  0  0  0  0  0  0  0  0  0  0
   -1.2173   -3.9294   26.9717 O   0  0  0  0  0  0  0  0  0  0  0  0
   -1.0025   -5.0942   27.4586 C   0  0  0  0  0  0  0  0  0  0  0  0
    2.2474   -8.9123   16.6273 C   0  0  0  0  0  0  0  0  0  0  0  0
    4.4957   -9.2636   17.3041 C   0  0  0  0  0  0  0  0  0  0  0  0
   -1.8070   -5.6086   28.1920 O   0  0  0  0  0  0  0  0  0  0  0  0
   10.4296   -5.1799   28.3140 C   0  0  0  0  0  0  0  0  0  0  0  0
    6.6017   -5.9004   26.9187 C   0  0  0  0  0  0  0  0  0  0  0  0
    2.4761   -6.9940   26.4111 N   0  0  0  0  0  0  0  0  0  0  0  0
    9.1353   -5.4053   27.8239 C   0  0  0  0  0  0  0  0  0  0  0  0
    0.9922   -9.3232   16.5995 O   0  0  0  0  0  0  0  0  0  0  0  0
    1.5232   -7.6869   27.1182 C   0  0  0  0  0  0  0  0  0  0  0  0
    8.6878   -6.6715   27.7262 N   0  0  0  0  0  0  0  0  0  0  0  0
    6.9911   -8.2423   27.1808 C   0  0  0  0  0  0  0  0  0  0  0  0
    3.8436   -7.2758   16.0578 C   0  0  0  0  0  0  0  0  0  0  0  0
    3.1882   -9.7190   17.2566 C   0  0  0  0  0  0  0  0  0  0  0  0
    5.3488   -6.1737   26.5092 C   0  0  0  0  0  0  0  0  0  0  0  0
    7.4567   -6.9464   27.2858 C   0  0  0  0  0  0  0  0  0  0  0  0
    0.1921   -5.7592   27.1123 C   0  0  0  0  0  0  0  0  0  0  0  0
    3.5517   -7.7407   25.9711 C   0  0  0  0  0  0  0  0  0  0  0  0
  1  4  4  0
  1 22  4  0
  2 20  4  0
  2 27  4  0
  3 12  4  0
  3 23  4  0
  4 25  4  0
  4 28  1  0
  5  8  4  0
  5 17  4  0
  6  7  4  0
  6 16  4  0
  7 18  4  0
  8 27  4  0
  9 13  4  0
  9 23  4  0
 10 11  1  0
 11 14  2  0
 11 27  1  0
 12 19  1  0
 12 24  4  0
 13 24  4  0
 15 18  1  0
 16 25  4  0
 16 26  4  0
 17 20  4  0
 17 28  1  0
 18 21  4  0
 21 26  4  0
 22 26  4  0
M  END
$$$$

 Created by Python create_sdf_string function

 28 30  0  0  0  0  0  0  0  0999 V2000
    5.7174   -8.4529   26.7190 C   0  0  0  0  0  0  0  0  0  0  0  0
    0.3974   -7.0711   27.5149 C   0  0  0  0  0  0  0  0  0  0  0  0
    2.5338   -7.6891   16.0102 C   0  0  0  0  0  0  0  0  0  0  0  0
    4.8690   -7.4380   26.4151 C   0  0  0  0  0  0  0  0  0  0  0  0
    2.3021   -5.6726   26.0378 C   0  0  0  0  0  0  0  0  0  0  0  0
    7.0880   -4.6163   27.0010 C   0  0  0  0  0  0  0  0  0  0  0  0
    8.3117   -4.3698   27.4436 C   0  0  0  0  0  0  0  0  0  0  0  0
    1.1339   -5.0515   26.3541 C   0  0  0  0  0  0  0  0  0  0  0  0
    4.8080   -8.0362   16.7101 C   0  0  0  0  0  0  0  0  0  0  0  0
   -1.2173   -3.9294   26.9717 O   0  0  0  0  0  0  0  0  0  0  0  0
   -1.0025   -5.0942   27.4586 C   0  0  0  0  0  0  0  0  0  0  0  0
    2.2474   -8.9123   16.6273 C   0  0  0  0  0  0  0  0  0  0  0  0
    4.4957   -9.2636   17.3041 C   0  0  0  0  0  0  0  0  0  0  0  0
   -1.8070   -5.6086   28.1920 O   0  0  0  0  0  0  0  0  0  0  0  0
   10.4296   -5.1799   28.3140 C   0  0  0  0  0  0  0  0  0  0  0  0
    6.6017   -5.9004   26.9187 C   0  0  0  0  0  0  0  0  0  0  0  0
    2.4761   -6.9940   26.4111 N   0  0  0  0  0  0  0  0  0  0  0  0
    9.1353   -5.4053   27.8239 C   0  0  0  0  0  0  0  0  0  0  0  0
    0.9922   -9.3232   16.5995 O   0  0  0  0  0  0  0  0  0  0  0  0
    1.5232   -7.6869   27.1182 C   0  0  0  0  0  0  0  0  0  0  0  0
    8.6878   -6.6715   27.7262 N   0  0  0  0  0  0  0  0  0  0  0  0
    6.9911   -8.2423   27.1808 C   0  0  0  0  0  0  0  0  0  0  0  0
    3.8436   -7.2758   16.0578 C   0  0  0  0  0  0  0  0  0  0  0  0
    3.1882   -9.7190   17.2566 C   0  0  0  0  0  0  0  0  0  0  0  0
    5.3488   -6.1737   26.5092 C   0  0  0  0  0  0  0  0  0  0  0  0
    7.4567   -6.9464   27.2858 C   0  0  0  0  0  0  0  0  0  0  0  0
    0.1921   -5.7592   27.1123 C   0  0  0  0  0  0  0  0  0  0  0  0
    3.5517   -7.7407   25.9711 C   0  0  0  0  0  0  0  0  0  0  0  0
  1  4  4  0
  1 22  4  0
  2 20  4  0
  2 27  4  0
  3 12  4  0
  3 23  4  0
  4 25  4  0
  4 28  1  0
  5  8  4  0
  5 17  4  0
  6  7  4  0
  6 16  4  0
  7 18  4  0
  8 27  4  0
  9 13  4  0
  9 23  4  0
 10 11  1  0
 11 14  2  0
 11 27  1  0
 12 19  1  0
 12 24  4  0
 13 24  4  0
 15 18  1  0
 16 25  4  0
 16 26  4  0
 17 20  4  0
 17 28  1  0
 18 21  4  0
 21 26  4  0
 22 26  4  0
M  END
$$$$

 Created by Python create_sdf_string function

 28 30  0  0  0  0  0  0  0  0999 V2000
    5.7174   -8.4529   26.7190 C   0  0  0  0  0  0  0  0  0  0  0  0
    0.3974   -7.0711   27.5149 C   0  0  0  0  0  0  0  0  0  0  0  0
    2.5338   -7.6891   16.0102 C   0  0  0  0  0  0  0  0  0  0  0  0
    4.8690   -7.4380   26.4151 C   0  0  0  0  0  0  0  0  0  0  0  0
    2.3021   -5.6726   26.0378 C   0  0  0  0  0  0  0  0  0  0  0  0
    7.0880   -4.6163   27.0010 C   0  0  0  0  0  0  0  0  0  0  0  0
    8.3117   -4.3698   27.4436 C   0  0  0  0  0  0  0  0  0  0  0  0
    1.1339   -5.0515   26.3541 C   0  0  0  0  0  0  0  0  0  0  0  0
    4.8080   -8.0362   16.7101 C   0  0  0  0  0  0  0  0  0  0  0  0
   -1.2173   -3.9294   26.9717 O   0  0  0  0  0  0  0  0  0  0  0  0
   -1.0025   -5.0942   27.4586 C   0  0  0  0  0  0  0  0  0  0  0  0
    2.2474   -8.9123   16.6273 C   0  0  0  0  0  0  0  0  0  0  0  0
    4.4957   -9.2636   17.3041 C   0  0  0  0  0  0  0  0  0  0  0  0
   -1.8070   -5.6086   28.1920 O   0  0  0  0  0  0  0  0  0  0  0  0
   10.4296   -5.1799   28.3140 C   0  0  0  0  0  0  0  0  0  0  0  0
    6.6017   -5.9004   26.9187 C   0  0  0  0  0  0  0  0  0  0  0  0
    2.4761   -6.9940   26.4111 N   0  0  0  0  0  0  0  0  0  0  0  0
    9.1353   -5.4053   27.8239 C   0  0  0  0  0  0  0  0  0  0  0  0
    0.9922   -9.3232   16.5995 O   0  0  0  0  0  0  0  0  0  0  0  0
    1.5232   -7.6869   27.1182 C   0  0  0  0  0  0  0  0  0  0  0  0
    8.6878   -6.6715   27.7262 N   0  0  0  0  0  0  0  0  0  0  0  0
    6.9911   -8.2423   27.1808 C   0  0  0  0  0  0  0  0  0  0  0  0
    3.8436   -7.2758   16.0578 C   0  0  0  0  0  0  0  0  0  0  0  0
    3.1882   -9.7190   17.2566 C   0  0  0  0  0  0  0  0  0  0  0  0
    5.3488   -6.1737   26.5092 C   0  0  0  0  0  0  0  0  0  0  0  0
    7.4567   -6.9464   27.2858 C   0  0  0  0  0  0  0  0  0  0  0  0
    0.1921   -5.7592   27.1123 C   0  0  0  0  0  0  0  0  0  0  0  0
    3.5517   -7.7407   25.9711 C   0  0  0  0  0  0  0  0  0  0  0  0
  1  4  4  0
  1 22  4  0
  2 20  4  0
  2 27  4  0
  3 12  4  0
  3 23  4  0
  4 25  4  0
  4 28  1  0
  5  8  4  0
  5 17  4  0
  6  7  4  0
  6 16  4  0
  7 18  4  0
  8 27  4  0
  9 13  4  0
  9 23  4  0
 10 11  1  0
 11 14  2  0
 11 27  1  0
 12 19  1  0
 12 24  4  0
 13 24  4  0
 15 18  1  0
 16 25  4  0
 16 26  4  0
 17 20  4  0
 17 28  1  0
 18 21  4  0
 21 26  4  0
 22 26  4  0
M  END
$$$$

 Created by Python create_sdf_string function

 28 30  0  0  0  0  0  0  0  0999 V2000
    5.7174   -8.4529   26.7190 C   0  0  0  0  0  0  0  0  0  0  0  0
    0.3974   -7.0711   27.5149 C   0  0  0  0  0  0  0  0  0  0  0  0
    2.5338   -7.6891   16.0102 C   0  0  0  0  0  0  0  0  0  0  0  0
    4.8690   -7.4380   26.4151 C   0  0  0  0  0  0  0  0  0  0  0  0
    2.3021   -5.6726   26.0378 C   0  0  0  0  0  0  0  0  0  0  0  0
    7.0880   -4.6163   27.0010 C   0  0  0  0  0  0  0  0  0  0  0  0
    8.3117   -4.3698   27.4436 C   0  0  0  0  0  0  0  0  0  0  0  0
    1.1339   -5.0515   26.3541 C   0  0  0  0  0  0  0  0  0  0  0  0
    4.8080   -8.0362   16.7101 C   0  0  0  0  0  0  0  0  0  0  0  0
   -1.2173   -3.9294   26.9717 O   0  0  0  0  0  0  0  0  0  0  0  0
   -1.0025   -5.0942   27.4586 C   0  0  0  0  0  0  0  0  0  0  0  0
    2.2474   -8.9123   16.6273 C   0  0  0  0  0  0  0  0  0  0  0  0
    4.4957   -9.2636   17.3041 C   0  0  0  0  0  0  0  0  0  0  0  0
   -1.8070   -5.6086   28.1920 O   0  0  0  0  0  0  0  0  0  0  0  0
   10.4296   -5.1799   28.3140 C   0  0  0  0  0  0  0  0  0  0  0  0
    6.6017   -5.9004   26.9187 C   0  0  0  0  0  0  0  0  0  0  0  0
    2.4761   -6.9940   26.4111 N   0  0  0  0  0  0  0  0  0  0  0  0
    9.1353   -5.4053   27.8239 C   0  0  0  0  0  0  0  0  0  0  0  0
    0.9922   -9.3232   16.5995 O   0  0  0  0  0  0  0  0  0  0  0  0
    1.5232   -7.6869   27.1182 C   0  0  0  0  0  0  0  0  0  0  0  0
    8.6878   -6.6715   27.7262 N   0  0  0  0  0  0  0  0  0  0  0  0
    6.9911   -8.2423   27.1808 C   0  0  0  0  0  0  0  0  0  0  0  0
    3.8436   -7.2758   16.0578 C   0  0  0  0  0  0  0  0  0  0  0  0
    3.1882   -9.7190   17.2566 C   0  0  0  0  0  0  0  0  0  0  0  0
    5.3488   -6.1737   26.5092 C   0  0  0  0  0  0  0  0  0  0  0  0
    7.4567   -6.9464   27.2858 C   0  0  0  0  0  0  0  0  0  0  0  0
    0.1921   -5.7592   27.1123 C   0  0  0  0  0  0  0  0  0  0  0  0
    3.5517   -7.7407   25.9711 C   0  0  0  0  0  0  0  0  0  0  0  0
  1  4  4  0
  1 22  4  0
  2 20  4  0
  2 27  4  0
  3 12  4  0
  3 23  4  0
  4 25  4  0
  4 28  1  0
  5  8  4  0
  5 17  4  0
  6  7  4  0
  6 16  4  0
  7 18  4  0
  8 27  4  0
  9 13  4  0
  9 23  4  0
 10 11  1  0
 11 14  2  0
 11 27  1  0
 12 19  1  0
 12 24  4  0
 13 24  4  0
 15 18  1  0
 16 25  4  0
 16 26  4  0
 17 20  4  0
 17 28  1  0
 18 21  4  0
 21 26  4  0
 22 26  4  0
M  END
$$$$

 Created by Python create_sdf_string function

 28 30  0  0  0  0  0  0  0  0999 V2000
    5.7174   -8.4529   26.7190 C   0  0  0  0  0  0  0  0  0  0  0  0
    0.3974   -7.0711   27.5149 C   0  0  0  0  0  0  0  0  0  0  0  0
    2.5338   -7.6891   16.0102 C   0  0  0  0  0  0  0  0  0  0  0  0
    4.8690   -7.4380   26.4151 C   0  0  0  0  0  0  0  0  0  0  0  0
    2.3021   -5.6726   26.0378 C   0  0  0  0  0  0  0  0  0  0  0  0
    7.0880   -4.6163   27.0010 C   0  0  0  0  0  0  0  0  0  0  0  0
    8.3117   -4.3698   27.4436 C   0  0  0  0  0  0  0  0  0  0  0  0
    1.1339   -5.0515   26.3541 C   0  0  0  0  0  0  0  0  0  0  0  0
    4.8080   -8.0362   16.7101 C   0  0  0  0  0  0  0  0  0  0  0  0
   -1.2173   -3.9294   26.9717 O   0  0  0  0  0  0  0  0  0  0  0  0
   -1.0025   -5.0942   27.4586 C   0  0  0  0  0  0  0  0  0  0  0  0
    2.2474   -8.9123   16.6273 C   0  0  0  0  0  0  0  0  0  0  0  0
    4.4957   -9.2636   17.3041 C   0  0  0  0  0  0  0  0  0  0  0  0
   -1.8070   -5.6086   28.1920 O   0  0  0  0  0  0  0  0  0  0  0  0
   10.4296   -5.1799   28.3140 C   0  0  0  0  0  0  0  0  0  0  0  0
    6.6017   -5.9004   26.9187 C   0  0  0  0  0  0  0  0  0  0  0  0
    2.4761   -6.9940   26.4111 N   0  0  0  0  0  0  0  0  0  0  0  0
    9.1353   -5.4053   27.8239 C   0  0  0  0  0  0  0  0  0  0  0  0
    0.9922   -9.3232   16.5995 O   0  0  0  0  0  0  0  0  0  0  0  0
    1.5232   -7.6869   27.1182 C   0  0  0  0  0  0  0  0  0  0  0  0
    8.6878   -6.6715   27.7262 N   0  0  0  0  0  0  0  0  0  0  0  0
    6.9911   -8.2423   27.1808 C   0  0  0  0  0  0  0  0  0  0  0  0
    3.8436   -7.2758   16.0578 C   0  0  0  0  0  0  0  0  0  0  0  0
    3.1882   -9.7190   17.2566 C   0  0  0  0  0  0  0  0  0  0  0  0
    5.3488   -6.1737   26.5092 C   0  0  0  0  0  0  0  0  0  0  0  0
    7.4567   -6.9464   27.2858 C   0  0  0  0  0  0  0  0  0  0  0  0
    0.1921   -5.7592   27.1123 C   0  0  0  0  0  0  0  0  0  0  0  0
    3.5517   -7.7407   25.9711 C   0  0  0  0  0  0  0  0  0  0  0  0
  1  4  4  0
  1 22  4  0
  2 20  4  0
  2 27  4  0
  3 12  4  0
  3 23  4  0
  4 25  4  0
  4 28  1  0
  5  8  4  0
  5 17  4  0
  6  7  4  0
  6 16  4  0
  7 18  4  0
  8 27  4  0
  9 13  4  0
  9 23  4  0
 10 11  1  0
 11 14  2  0
 11 27  1  0
 12 19  1  0
 12 24  4  0
 13 24  4  0
 15 18  1  0
 16 25  4  0
 16 26  4  0
 17 20  4  0
 17 28  1  0
 18 21  4  0
 21 26  4  0
 22 26  4  0
M  END
$$$$

 Created by Python create_sdf_string function

 28 30  0  0  0  0  0  0  0  0999 V2000
    5.7174   -8.4529   26.7190 C   0  0  0  0  0  0  0  0  0  0  0  0
    0.3974   -7.0711   27.5149 C   0  0  0  0  0  0  0  0  0  0  0  0
    2.5338   -7.6891   16.0102 C   0  0  0  0  0  0  0  0  0  0  0  0
    4.8690   -7.4380   26.4151 C   0  0  0  0  0  0  0  0  0  0  0  0
    2.3021   -5.6726   26.0378 C   0  0  0  0  0  0  0  0  0  0  0  0
    7.0880   -4.6163   27.0010 C   0  0  0  0  0  0  0  0  0  0  0  0
    8.3117   -4.3698   27.4436 C   0  0  0  0  0  0  0  0  0  0  0  0
    1.1339   -5.0515   26.3541 C   0  0  0  0  0  0  0  0  0  0  0  0
    4.8080   -8.0362   16.7101 C   0  0  0  0  0  0  0  0  0  0  0  0
   -1.2173   -3.9294   26.9717 O   0  0  0  0  0  0  0  0  0  0  0  0
   -1.0025   -5.0942   27.4586 C   0  0  0  0  0  0  0  0  0  0  0  0
    2.2474   -8.9123   16.6273 C   0  0  0  0  0  0  0  0  0  0  0  0
    4.4957   -9.2636   17.3041 C   0  0  0  0  0  0  0  0  0  0  0  0
   -1.8070   -5.6086   28.1920 O   0  0  0  0  0  0  0  0  0  0  0  0
   10.4296   -5.1799   28.3140 C   0  0  0  0  0  0  0  0  0  0  0  0
    6.6017   -5.9004   26.9187 C   0  0  0  0  0  0  0  0  0  0  0  0
    2.4761   -6.9940   26.4111 N   0  0  0  0  0  0  0  0  0  0  0  0
    9.1353   -5.4053   27.8239 C   0  0  0  0  0  0  0  0  0  0  0  0
    0.9922   -9.3232   16.5995 O   0  0  0  0  0  0  0  0  0  0  0  0
    1.5232   -7.6869   27.1182 C   0  0  0  0  0  0  0  0  0  0  0  0
    8.6878   -6.6715   27.7262 N   0  0  0  0  0  0  0  0  0  0  0  0
    6.9911   -8.2423   27.1808 C   0  0  0  0  0  0  0  0  0  0  0  0
    3.8436   -7.2758   16.0578 C   0  0  0  0  0  0  0  0  0  0  0  0
    3.1882   -9.7190   17.2566 C   0  0  0  0  0  0  0  0  0  0  0  0
    5.3488   -6.1737   26.5092 C   0  0  0  0  0  0  0  0  0  0  0  0
    7.4567   -6.9464   27.2858 C   0  0  0  0  0  0  0  0  0  0  0  0
    0.1921   -5.7592   27.1123 C   0  0  0  0  0  0  0  0  0  0  0  0
    3.5517   -7.7407   25.9711 C   0  0  0  0  0  0  0  0  0  0  0  0
  1  4  4  0
  1 22  4  0
  2 20  4  0
  2 27  4  0
  3 12  4  0
  3 23  4  0
  4 25  4  0
  4 28  1  0
  5  8  4  0
  5 17  4  0
  6  7  4  0
  6 16  4  0
  7 18  4  0
  8 27  4  0
  9 13  4  0
  9 23  4  0
 10 11  1  0
 11 14  2  0
 11 27  1  0
 12 19  1  0
 12 24  4  0
 13 24  4  0
 15 18  1  0
 16 25  4  0
 16 26  4  0
 17 20  4  0
 17 28  1  0
 18 21  4  0
 21 26  4  0
 22 26  4  0
M  END
$$$$

 Created by Python create_sdf_string function

 28 30  0  0  0  0  0  0  0  0999 V2000
    5.7174   -8.4529   26.7190 C   0  0  0  0  0  0  0  0  0  0  0  0
    0.3974   -7.0711   27.5149 C   0  0  0  0  0  0  0  0  0  0  0  0
    2.5338   -7.6891   16.0102 C   0  0  0  0  0  0  0  0  0  0  0  0
    4.8690   -7.4380   26.4151 C   0  0  0  0  0  0  0  0  0  0  0  0
    2.3021   -5.6726   26.0378 C   0  0  0  0  0  0  0  0  0  0  0  0
    7.0880   -4.6163   27.0010 C   0  0  0  0  0  0  0  0  0  0  0  0
    8.3117   -4.3698   27.4436 C   0  0  0  0  0  0  0  0  0  0  0  0
    1.1339   -5.0515   26.3541 C   0  0  0  0  0  0  0  0  0  0  0  0
    4.8080   -8.0362   16.7101 C   0  0  0  0  0  0  0  0  0  0  0  0
   -1.2173   -3.9294   26.9717 O   0  0  0  0  0  0  0  0  0  0  0  0
   -1.0025   -5.0942   27.4586 C   0  0  0  0  0  0  0  0  0  0  0  0
    2.2474   -8.9123   16.6273 C   0  0  0  0  0  0  0  0  0  0  0  0
    4.4957   -9.2636   17.3041 C   0  0  0  0  0  0  0  0  0  0  0  0
   -1.8070   -5.6086   28.1920 O   0  0  0  0  0  0  0  0  0  0  0  0
   10.4296   -5.1799   28.3140 C   0  0  0  0  0  0  0  0  0  0  0  0
    6.6017   -5.9004   26.9187 C   0  0  0  0  0  0  0  0  0  0  0  0
    2.4761   -6.9940   26.4111 N   0  0  0  0  0  0  0  0  0  0  0  0
    9.1353   -5.4053   27.8239 C   0  0  0  0  0  0  0  0  0  0  0  0
    0.9922   -9.3232   16.5995 O   0  0  0  0  0  0  0  0  0  0  0  0
    1.5232   -7.6869   27.1182 C   0  0  0  0  0  0  0  0  0  0  0  0
    8.6878   -6.6715   27.7262 N   0  0  0  0  0  0  0  0  0  0  0  0
    6.9911   -8.2423   27.1808 C   0  0  0  0  0  0  0  0  0  0  0  0
    3.8436   -7.2758   16.0578 C   0  0  0  0  0  0  0  0  0  0  0  0
    3.1882   -9.7190   17.2566 C   0  0  0  0  0  0  0  0  0  0  0  0
    5.3488   -6.1737   26.5092 C   0  0  0  0  0  0  0  0  0  0  0  0
    7.4567   -6.9464   27.2858 C   0  0  0  0  0  0  0  0  0  0  0  0
    0.1921   -5.7592   27.1123 C   0  0  0  0  0  0  0  0  0  0  0  0
    3.5517   -7.7407   25.9711 C   0  0  0  0  0  0  0  0  0  0  0  0
  1  4  4  0
  1 22  4  0
  2 20  4  0
  2 27  4  0
  3 12  4  0
  3 23  4  0
  4 25  4  0
  4 28  1  0
  5  8  4  0
  5 17  4  0
  6  7  4  0
  6 16  4  0
  7 18  4  0
  8 27  4  0
  9 13  4  0
  9 23  4  0
 10 11  1  0
 11 14  2  0
 11 27  1  0
 12 19  1  0
 12 24  4  0
 13 24  4  0
 15 18  1  0
 16 25  4  0
 16 26  4  0
 17 20  4  0
 17 28  1  0
 18 21  4  0
 21 26  4  0
 22 26  4  0
M  END
$$$$

 Created by Python create_sdf_string function

 28 30  0  0  0  0  0  0  0  0999 V2000
    5.7174   -8.4529   26.7190 C   0  0  0  0  0  0  0  0  0  0  0  0
    0.3974   -7.0711   27.5149 C   0  0  0  0  0  0  0  0  0  0  0  0
    2.5338   -7.6891   16.0102 C   0  0  0  0  0  0  0  0  0  0  0  0
    4.8690   -7.4380   26.4151 C   0  0  0  0  0  0  0  0  0  0  0  0
    2.3021   -5.6726   26.0378 C   0  0  0  0  0  0  0  0  0  0  0  0
    7.0880   -4.6163   27.0010 C   0  0  0  0  0  0  0  0  0  0  0  0
    8.3117   -4.3698   27.4436 C   0  0  0  0  0  0  0  0  0  0  0  0
    1.1339   -5.0515   26.3541 C   0  0  0  0  0  0  0  0  0  0  0  0
    4.8080   -8.0362   16.7101 C   0  0  0  0  0  0  0  0  0  0  0  0
   -1.2173   -3.9294   26.9717 O   0  0  0  0  0  0  0  0  0  0  0  0
   -1.0025   -5.0942   27.4586 C   0  0  0  0  0  0  0  0  0  0  0  0
    2.2474   -8.9123   16.6273 C   0  0  0  0  0  0  0  0  0  0  0  0
    4.4957   -9.2636   17.3041 C   0  0  0  0  0  0  0  0  0  0  0  0
   -1.8070   -5.6086   28.1920 O   0  0  0  0  0  0  0  0  0  0  0  0
   10.4296   -5.1799   28.3140 C   0  0  0  0  0  0  0  0  0  0  0  0
    6.6017   -5.9004   26.9187 C   0  0  0  0  0  0  0  0  0  0  0  0
    2.4761   -6.9940   26.4111 N   0  0  0  0  0  0  0  0  0  0  0  0
    9.1353   -5.4053   27.8239 C   0  0  0  0  0  0  0  0  0  0  0  0
    0.9922   -9.3232   16.5995 O   0  0  0  0  0  0  0  0  0  0  0  0
    1.5232   -7.6869   27.1182 C   0  0  0  0  0  0  0  0  0  0  0  0
    8.6878   -6.6715   27.7262 N   0  0  0  0  0  0  0  0  0  0  0  0
    6.9911   -8.2423   27.1808 C   0  0  0  0  0  0  0  0  0  0  0  0
    3.8436   -7.2758   16.0578 C   0  0  0  0  0  0  0  0  0  0  0  0
    3.1882   -9.7190   17.2566 C   0  0  0  0  0  0  0  0  0  0  0  0
    5.3488   -6.1737   26.5092 C   0  0  0  0  0  0  0  0  0  0  0  0
    7.4567   -6.9464   27.2858 C   0  0  0  0  0  0  0  0  0  0  0  0
    0.1921   -5.7592   27.1123 C   0  0  0  0  0  0  0  0  0  0  0  0
    3.5517   -7.7407   25.9711 C   0  0  0  0  0  0  0  0  0  0  0  0
  1  4  4  0
  1 22  4  0
  2 20  4  0
  2 27  4  0
  3 12  4  0
  3 23  4  0
  4 25  4  0
  4 28  1  0
  5  8  4  0
  5 17  4  0
  6  7  4  0
  6 16  4  0
  7 18  4  0
  8 27  4  0
  9 13  4  0
  9 23  4  0
 10 11  1  0
 11 14  2  0
 11 27  1  0
 12 19  1  0
 12 24  4  0
 13 24  4  0
 15 18  1  0
 16 25  4  0
 16 26  4  0
 17 20  4  0
 17 28  1  0
 18 21  4  0
 21 26  4  0
 22 26  4  0
M  END
$$$$

 Created by Python create_sdf_string function

 28 30  0  0  0  0  0  0  0  0999 V2000
    5.7174   -8.4529   26.7190 C   0  0  0  0  0  0  0  0  0  0  0  0
    0.3974   -7.0711   27.5149 C   0  0  0  0  0  0  0  0  0  0  0  0
    2.5338   -7.6891   16.0102 C   0  0  0  0  0  0  0  0  0  0  0  0
    4.8690   -7.4380   26.4151 C   0  0  0  0  0  0  0  0  0  0  0  0
    2.3021   -5.6726   26.0378 C   0  0  0  0  0  0  0  0  0  0  0  0
    7.0880   -4.6163   27.0010 C   0  0  0  0  0  0  0  0  0  0  0  0
    8.3117   -4.3698   27.4436 C   0  0  0  0  0  0  0  0  0  0  0  0
    1.1339   -5.0515   26.3541 C   0  0  0  0  0  0  0  0  0  0  0  0
    4.8080   -8.0362   16.7101 C   0  0  0  0  0  0  0  0  0  0  0  0
   -1.2173   -3.9294   26.9717 O   0  0  0  0  0  0  0  0  0  0  0  0
   -1.0025   -5.0942   27.4586 C   0  0  0  0  0  0  0  0  0  0  0  0
    2.2474   -8.9123   16.6273 C   0  0  0  0  0  0  0  0  0  0  0  0
    4.4957   -9.2636   17.3041 C   0  0  0  0  0  0  0  0  0  0  0  0
   -1.8070   -5.6086   28.1920 O   0  0  0  0  0  0  0  0  0  0  0  0
   10.4296   -5.1799   28.3140 C   0  0  0  0  0  0  0  0  0  0  0  0
    6.6017   -5.9004   26.9187 C   0  0  0  0  0  0  0  0  0  0  0  0
    2.4761   -6.9940   26.4111 N   0  0  0  0  0  0  0  0  0  0  0  0
    9.1353   -5.4053   27.8239 C   0  0  0  0  0  0  0  0  0  0  0  0
    0.9922   -9.3232   16.5995 O   0  0  0  0  0  0  0  0  0  0  0  0
    1.5232   -7.6869   27.1182 C   0  0  0  0  0  0  0  0  0  0  0  0
    8.6878   -6.6715   27.7262 N   0  0  0  0  0  0  0  0  0  0  0  0
    6.9911   -8.2423   27.1808 C   0  0  0  0  0  0  0  0  0  0  0  0
    3.8436   -7.2758   16.0578 C   0  0  0  0  0  0  0  0  0  0  0  0
    3.1882   -9.7190   17.2566 C   0  0  0  0  0  0  0  0  0  0  0  0
    5.3488   -6.1737   26.5092 C   0  0  0  0  0  0  0  0  0  0  0  0
    7.4567   -6.9464   27.2858 C   0  0  0  0  0  0  0  0  0  0  0  0
    0.1921   -5.7592   27.1123 C   0  0  0  0  0  0  0  0  0  0  0  0
    3.5517   -7.7407   25.9711 C   0  0  0  0  0  0  0  0  0  0  0  0
  1  4  4  0
  1 22  4  0
  2 20  4  0
  2 27  4  0
  3 12  4  0
  3 23  4  0
  4 25  4  0
  4 28  1  0
  5  8  4  0
  5 17  4  0
  6  7  4  0
  6 16  4  0
  7 18  4  0
  8 27  4  0
  9 13  4  0
  9 23  4  0
 10 11  1  0
 11 14  2  0
 11 27  1  0
 12 19  1  0
 12 24  4  0
 13 24  4  0
 15 18  1  0
 16 25  4  0
 16 26  4  0
 17 20  4  0
 17 28  1  0
 18 21  4  0
 21 26  4  0
 22 26  4  0
M  END
$$$$

 Created by Python create_sdf_string function

 28 30  0  0  0  0  0  0  0  0999 V2000
    5.7174   -8.4529   26.7190 C   0  0  0  0  0  0  0  0  0  0  0  0
    0.3974   -7.0711   27.5149 C   0  0  0  0  0  0  0  0  0  0  0  0
    2.5338   -7.6891   16.0102 C   0  0  0  0  0  0  0  0  0  0  0  0
    4.8690   -7.4380   26.4151 C   0  0  0  0  0  0  0  0  0  0  0  0
    2.3021   -5.6726   26.0378 C   0  0  0  0  0  0  0  0  0  0  0  0
    7.0880   -4.6163   27.0010 C   0  0  0  0  0  0  0  0  0  0  0  0
    8.3117   -4.3698   27.4436 C   0  0  0  0  0  0  0  0  0  0  0  0
    1.1339   -5.0515   26.3541 C   0  0  0  0  0  0  0  0  0  0  0  0
    4.8080   -8.0362   16.7101 C   0  0  0  0  0  0  0  0  0  0  0  0
   -1.2173   -3.9294   26.9717 O   0  0  0  0  0  0  0  0  0  0  0  0
   -1.0025   -5.0942   27.4586 C   0  0  0  0  0  0  0  0  0  0  0  0
    2.2474   -8.9123   16.6273 C   0  0  0  0  0  0  0  0  0  0  0  0
    4.4957   -9.2636   17.3041 C   0  0  0  0  0  0  0  0  0  0  0  0
   -1.8070   -5.6086   28.1920 O   0  0  0  0  0  0  0  0  0  0  0  0
   10.4296   -5.1799   28.3140 C   0  0  0  0  0  0  0  0  0  0  0  0
    6.6017   -5.9004   26.9187 C   0  0  0  0  0  0  0  0  0  0  0  0
    2.4761   -6.9940   26.4111 N   0  0  0  0  0  0  0  0  0  0  0  0
    9.1353   -5.4053   27.8239 C   0  0  0  0  0  0  0  0  0  0  0  0
    0.9922   -9.3232   16.5995 O   0  0  0  0  0  0  0  0  0  0  0  0
    1.5232   -7.6869   27.1182 C   0  0  0  0  0  0  0  0  0  0  0  0
    8.6878   -6.6715   27.7262 N   0  0  0  0  0  0  0  0  0  0  0  0
    6.9911   -8.2423   27.1808 C   0  0  0  0  0  0  0  0  0  0  0  0
    3.8436   -7.2758   16.0578 C   0  0  0  0  0  0  0  0  0  0  0  0
    3.1882   -9.7190   17.2566 C   0  0  0  0  0  0  0  0  0  0  0  0
    5.3488   -6.1737   26.5092 C   0  0  0  0  0  0  0  0  0  0  0  0
    7.4567   -6.9464   27.2858 C   0  0  0  0  0  0  0  0  0  0  0  0
    0.1921   -5.7592   27.1123 C   0  0  0  0  0  0  0  0  0  0  0  0
    3.5517   -7.7407   25.9711 C   0  0  0  0  0  0  0  0  0  0  0  0
  1  4  4  0
  1 22  4  0
  2 20  4  0
  2 27  4  0
  3 12  4  0
  3 23  4  0
  4 25  4  0
  4 28  1  0
  5  8  4  0
  5 17  4  0
  6  7  4  0
  6 16  4  0
  7 18  4  0
  8 27  4  0
  9 13  4  0
  9 23  4  0
 10 11  1  0
 11 14  2  0
 11 27  1  0
 12 19  1  0
 12 24  4  0
 13 24  4  0
 15 18  1  0
 16 25  4  0
 16 26  4  0
 17 20  4  0
 17 28  1  0
 18 21  4  0
 21 26  4  0
 22 26  4  0
M  END
$$$$

 Created by Python create_sdf_string function

 28 30  0  0  0  0  0  0  0  0999 V2000
    5.7174   -8.4529   26.7190 C   0  0  0  0  0  0  0  0  0  0  0  0
    0.3974   -7.0711   27.5149 C   0  0  0  0  0  0  0  0  0  0  0  0
    2.5338   -7.6891   16.0102 C   0  0  0  0  0  0  0  0  0  0  0  0
    4.8690   -7.4380   26.4151 C   0  0  0  0  0  0  0  0  0  0  0  0
    2.3021   -5.6726   26.0378 C   0  0  0  0  0  0  0  0  0  0  0  0
    7.0880   -4.6163   27.0010 C   0  0  0  0  0  0  0  0  0  0  0  0
    8.3117   -4.3698   27.4436 C   0  0  0  0  0  0  0  0  0  0  0  0
    1.1339   -5.0515   26.3541 C   0  0  0  0  0  0  0  0  0  0  0  0
    4.8080   -8.0362   16.7101 C   0  0  0  0  0  0  0  0  0  0  0  0
   -1.2173   -3.9294   26.9717 O   0  0  0  0  0  0  0  0  0  0  0  0
   -1.0025   -5.0942   27.4586 C   0  0  0  0  0  0  0  0  0  0  0  0
    2.2474   -8.9123   16.6273 C   0  0  0  0  0  0  0  0  0  0  0  0
    4.4957   -9.2636   17.3041 C   0  0  0  0  0  0  0  0  0  0  0  0
   -1.8070   -5.6086   28.1920 O   0  0  0  0  0  0  0  0  0  0  0  0
   10.4296   -5.1799   28.3140 C   0  0  0  0  0  0  0  0  0  0  0  0
    6.6017   -5.9004   26.9187 C   0  0  0  0  0  0  0  0  0  0  0  0
    2.4761   -6.9940   26.4111 N   0  0  0  0  0  0  0  0  0  0  0  0
    9.1353   -5.4053   27.8239 C   0  0  0  0  0  0  0  0  0  0  0  0
    0.9922   -9.3232   16.5995 O   0  0  0  0  0  0  0  0  0  0  0  0
    1.5232   -7.6869   27.1182 C   0  0  0  0  0  0  0  0  0  0  0  0
    8.6878   -6.6715   27.7262 N   0  0  0  0  0  0  0  0  0  0  0  0
    6.9911   -8.2423   27.1808 C   0  0  0  0  0  0  0  0  0  0  0  0
    3.8436   -7.2758   16.0578 C   0  0  0  0  0  0  0  0  0  0  0  0
    3.1882   -9.7190   17.2566 C   0  0  0  0  0  0  0  0  0  0  0  0
    5.3488   -6.1737   26.5092 C   0  0  0  0  0  0  0  0  0  0  0  0
    7.4567   -6.9464   27.2858 C   0  0  0  0  0  0  0  0  0  0  0  0
    0.1921   -5.7592   27.1123 C   0  0  0  0  0  0  0  0  0  0  0  0
    3.5517   -7.7407   25.9711 C   0  0  0  0  0  0  0  0  0  0  0  0
  1  4  4  0
  1 22  4  0
  2 20  4  0
  2 27  4  0
  3 12  4  0
  3 23  4  0
  4 25  4  0
  4 28  1  0
  5  8  4  0
  5 17  4  0
  6  7  4  0
  6 16  4  0
  7 18  4  0
  8 27  4  0
  9 13  4  0
  9 23  4  0
 10 11  1  0
 11 14  2  0
 11 27  1  0
 12 19  1  0
 12 24  4  0
 13 24  4  0
 15 18  1  0
 16 25  4  0
 16 26  4  0
 17 20  4  0
 17 28  1  0
 18 21  4  0
 21 26  4  0
 22 26  4  0
M  END
$$$$

 Created by Python create_sdf_string function

 28 30  0  0  0  0  0  0  0  0999 V2000
    5.7174   -8.4529   26.7190 C   0  0  0  0  0  0  0  0  0  0  0  0
    0.3974   -7.0711   27.5149 C   0  0  0  0  0  0  0  0  0  0  0  0
    2.5338   -7.6891   16.0102 C   0  0  0  0  0  0  0  0  0  0  0  0
    4.8690   -7.4380   26.4151 C   0  0  0  0  0  0  0  0  0  0  0  0
    2.3021   -5.6726   26.0378 C   0  0  0  0  0  0  0  0  0  0  0  0
    7.0880   -4.6163   27.0010 C   0  0  0  0  0  0  0  0  0  0  0  0
    8.3117   -4.3698   27.4436 C   0  0  0  0  0  0  0  0  0  0  0  0
    1.1339   -5.0515   26.3541 C   0  0  0  0  0  0  0  0  0  0  0  0
    4.8080   -8.0362   16.7101 C   0  0  0  0  0  0  0  0  0  0  0  0
   -1.2173   -3.9294   26.9717 O   0  0  0  0  0  0  0  0  0  0  0  0
   -1.0025   -5.0942   27.4586 C   0  0  0  0  0  0  0  0  0  0  0  0
    2.2474   -8.9123   16.6273 C   0  0  0  0  0  0  0  0  0  0  0  0
    4.4957   -9.2636   17.3041 C   0  0  0  0  0  0  0  0  0  0  0  0
   -1.8070   -5.6086   28.1920 O   0  0  0  0  0  0  0  0  0  0  0  0
   10.4296   -5.1799   28.3140 C   0  0  0  0  0  0  0  0  0  0  0  0
    6.6017   -5.9004   26.9187 C   0  0  0  0  0  0  0  0  0  0  0  0
    2.4761   -6.9940   26.4111 N   0  0  0  0  0  0  0  0  0  0  0  0
    9.1353   -5.4053   27.8239 C   0  0  0  0  0  0  0  0  0  0  0  0
    0.9922   -9.3232   16.5995 O   0  0  0  0  0  0  0  0  0  0  0  0
    1.5232   -7.6869   27.1182 C   0  0  0  0  0  0  0  0  0  0  0  0
    8.6878   -6.6715   27.7262 N   0  0  0  0  0  0  0  0  0  0  0  0
    6.9911   -8.2423   27.1808 C   0  0  0  0  0  0  0  0  0  0  0  0
    3.8436   -7.2758   16.0578 C   0  0  0  0  0  0  0  0  0  0  0  0
    3.1882   -9.7190   17.2566 C   0  0  0  0  0  0  0  0  0  0  0  0
    5.3488   -6.1737   26.5092 C   0  0  0  0  0  0  0  0  0  0  0  0
    7.4567   -6.9464   27.2858 C   0  0  0  0  0  0  0  0  0  0  0  0
    0.1921   -5.7592   27.1123 C   0  0  0  0  0  0  0  0  0  0  0  0
    3.5517   -7.7407   25.9711 C   0  0  0  0  0  0  0  0  0  0  0  0
  1  4  4  0
  1 22  4  0
  2 20  4  0
  2 27  4  0
  3 12  4  0
  3 23  4  0
  4 25  4  0
  4 28  1  0
  5  8  4  0
  5 17  4  0
  6  7  4  0
  6 16  4  0
  7 18  4  0
  8 27  4  0
  9 13  4  0
  9 23  4  0
 10 11  1  0
 11 14  2  0
 11 27  1  0
 12 19  1  0
 12 24  4  0
 13 24  4  0
 15 18  1  0
 16 25  4  0
 16 26  4  0
 17 20  4  0
 17 28  1  0
 18 21  4  0
 21 26  4  0
 22 26  4  0
M  END
$$$$

 Created by Python create_sdf_string function

 28 30  0  0  0  0  0  0  0  0999 V2000
    5.7174   -8.4529   26.7190 C   0  0  0  0  0  0  0  0  0  0  0  0
    0.3974   -7.0711   27.5149 C   0  0  0  0  0  0  0  0  0  0  0  0
    2.5338   -7.6891   16.0102 C   0  0  0  0  0  0  0  0  0  0  0  0
    4.8690   -7.4380   26.4151 C   0  0  0  0  0  0  0  0  0  0  0  0
    2.3021   -5.6726   26.0378 C   0  0  0  0  0  0  0  0  0  0  0  0
    7.0880   -4.6163   27.0010 C   0  0  0  0  0  0  0  0  0  0  0  0
    8.3117   -4.3698   27.4436 C   0  0  0  0  0  0  0  0  0  0  0  0
    1.1339   -5.0515   26.3541 C   0  0  0  0  0  0  0  0  0  0  0  0
    4.8080   -8.0362   16.7101 C   0  0  0  0  0  0  0  0  0  0  0  0
   -1.2173   -3.9294   26.9717 O   0  0  0  0  0  0  0  0  0  0  0  0
   -1.0025   -5.0942   27.4586 C   0  0  0  0  0  0  0  0  0  0  0  0
    2.2474   -8.9123   16.6273 C   0  0  0  0  0  0  0  0  0  0  0  0
    4.4957   -9.2636   17.3041 C   0  0  0  0  0  0  0  0  0  0  0  0
   -1.8070   -5.6086   28.1920 O   0  0  0  0  0  0  0  0  0  0  0  0
   10.4296   -5.1799   28.3140 C   0  0  0  0  0  0  0  0  0  0  0  0
    6.6017   -5.9004   26.9187 C   0  0  0  0  0  0  0  0  0  0  0  0
    2.4761   -6.9940   26.4111 N   0  0  0  0  0  0  0  0  0  0  0  0
    9.1353   -5.4053   27.8239 C   0  0  0  0  0  0  0  0  0  0  0  0
    0.9922   -9.3232   16.5995 O   0  0  0  0  0  0  0  0  0  0  0  0
    1.5232   -7.6869   27.1182 C   0  0  0  0  0  0  0  0  0  0  0  0
    8.6878   -6.6715   27.7262 N   0  0  0  0  0  0  0  0  0  0  0  0
    6.9911   -8.2423   27.1808 C   0  0  0  0  0  0  0  0  0  0  0  0
    3.8436   -7.2758   16.0578 C   0  0  0  0  0  0  0  0  0  0  0  0
    3.1882   -9.7190   17.2566 C   0  0  0  0  0  0  0  0  0  0  0  0
    5.3488   -6.1737   26.5092 C   0  0  0  0  0  0  0  0  0  0  0  0
    7.4567   -6.9464   27.2858 C   0  0  0  0  0  0  0  0  0  0  0  0
    0.1921   -5.7592   27.1123 C   0  0  0  0  0  0  0  0  0  0  0  0
    3.5517   -7.7407   25.9711 C   0  0  0  0  0  0  0  0  0  0  0  0
  1  4  4  0
  1 22  4  0
  2 20  4  0
  2 27  4  0
  3 12  4  0
  3 23  4  0
  4 25  4  0
  4 28  1  0
  5  8  4  0
  5 17  4  0
  6  7  4  0
  6 16  4  0
  7 18  4  0
  8 27  4  0
  9 13  4  0
  9 23  4  0
 10 11  1  0
 11 14  2  0
 11 27  1  0
 12 19  1  0
 12 24  4  0
 13 24  4  0
 15 18  1  0
 16 25  4  0
 16 26  4  0
 17 20  4  0
 17 28  1  0
 18 21  4  0
 21 26  4  0
 22 26  4  0
M  END
$$$$

 Created by Python create_sdf_string function

 28 30  0  0  0  0  0  0  0  0999 V2000
    5.7174   -8.4529   26.7190 C   0  0  0  0  0  0  0  0  0  0  0  0
    0.3974   -7.0711   27.5149 C   0  0  0  0  0  0  0  0  0  0  0  0
    2.5338   -7.6891   16.0102 C   0  0  0  0  0  0  0  0  0  0  0  0
    4.8690   -7.4380   26.4151 C   0  0  0  0  0  0  0  0  0  0  0  0
    2.3021   -5.6726   26.0378 C   0  0  0  0  0  0  0  0  0  0  0  0
    7.0880   -4.6163   27.0010 C   0  0  0  0  0  0  0  0  0  0  0  0
    8.3117   -4.3698   27.4436 C   0  0  0  0  0  0  0  0  0  0  0  0
    1.1339   -5.0515   26.3541 C   0  0  0  0  0  0  0  0  0  0  0  0
    4.8080   -8.0362   16.7101 C   0  0  0  0  0  0  0  0  0  0  0  0
   -1.2173   -3.9294   26.9717 O   0  0  0  0  0  0  0  0  0  0  0  0
   -1.0025   -5.0942   27.4586 C   0  0  0  0  0  0  0  0  0  0  0  0
    2.2474   -8.9123   16.6273 C   0  0  0  0  0  0  0  0  0  0  0  0
    4.4957   -9.2636   17.3041 C   0  0  0  0  0  0  0  0  0  0  0  0
   -1.8070   -5.6086   28.1920 O   0  0  0  0  0  0  0  0  0  0  0  0
   10.4296   -5.1799   28.3140 C   0  0  0  0  0  0  0  0  0  0  0  0
    6.6017   -5.9004   26.9187 C   0  0  0  0  0  0  0  0  0  0  0  0
    2.4761   -6.9940   26.4111 N   0  0  0  0  0  0  0  0  0  0  0  0
    9.1353   -5.4053   27.8239 C   0  0  0  0  0  0  0  0  0  0  0  0
    0.9922   -9.3232   16.5995 O   0  0  0  0  0  0  0  0  0  0  0  0
    1.5232   -7.6869   27.1182 C   0  0  0  0  0  0  0  0  0  0  0  0
    8.6878   -6.6715   27.7262 N   0  0  0  0  0  0  0  0  0  0  0  0
    6.9911   -8.2423   27.1808 C   0  0  0  0  0  0  0  0  0  0  0  0
    3.8436   -7.2758   16.0578 C   0  0  0  0  0  0  0  0  0  0  0  0
    3.1882   -9.7190   17.2566 C   0  0  0  0  0  0  0  0  0  0  0  0
    5.3488   -6.1737   26.5092 C   0  0  0  0  0  0  0  0  0  0  0  0
    7.4567   -6.9464   27.2858 C   0  0  0  0  0  0  0  0  0  0  0  0
    0.1921   -5.7592   27.1123 C   0  0  0  0  0  0  0  0  0  0  0  0
    3.5517   -7.7407   25.9711 C   0  0  0  0  0  0  0  0  0  0  0  0
  1  4  4  0
  1 22  4  0
  2 20  4  0
  2 27  4  0
  3 12  4  0
  3 23  4  0
  4 25  4  0
  4 28  1  0
  5  8  4  0
  5 17  4  0
  6  7  4  0
  6 16  4  0
  7 18  4  0
  8 27  4  0
  9 13  4  0
  9 23  4  0
 10 11  1  0
 11 14  2  0
 11 27  1  0
 12 19  1  0
 12 24  4  0
 13 24  4  0
 15 18  1  0
 16 25  4  0
 16 26  4  0
 17 20  4  0
 17 28  1  0
 18 21  4  0
 21 26  4  0
 22 26  4  0
M  END
$$$$

 Created by Python create_sdf_string function

 28 30  0  0  0  0  0  0  0  0999 V2000
    5.7174   -8.4529   26.7190 C   0  0  0  0  0  0  0  0  0  0  0  0
    0.3974   -7.0711   27.5149 C   0  0  0  0  0  0  0  0  0  0  0  0
    2.5338   -7.6891   16.0102 C   0  0  0  0  0  0  0  0  0  0  0  0
    4.8690   -7.4380   26.4151 C   0  0  0  0  0  0  0  0  0  0  0  0
    2.3021   -5.6726   26.0378 C   0  0  0  0  0  0  0  0  0  0  0  0
    7.0880   -4.6163   27.0010 C   0  0  0  0  0  0  0  0  0  0  0  0
    8.3117   -4.3698   27.4436 C   0  0  0  0  0  0  0  0  0  0  0  0
    1.1339   -5.0515   26.3541 C   0  0  0  0  0  0  0  0  0  0  0  0
    4.8080   -8.0362   16.7101 C   0  0  0  0  0  0  0  0  0  0  0  0
   -1.2173   -3.9294   26.9717 O   0  0  0  0  0  0  0  0  0  0  0  0
   -1.0025   -5.0942   27.4586 C   0  0  0  0  0  0  0  0  0  0  0  0
    2.2474   -8.9123   16.6273 C   0  0  0  0  0  0  0  0  0  0  0  0
    4.4957   -9.2636   17.3041 C   0  0  0  0  0  0  0  0  0  0  0  0
   -1.8070   -5.6086   28.1920 O   0  0  0  0  0  0  0  0  0  0  0  0
   10.4296   -5.1799   28.3140 C   0  0  0  0  0  0  0  0  0  0  0  0
    6.6017   -5.9004   26.9187 C   0  0  0  0  0  0  0  0  0  0  0  0
    2.4761   -6.9940   26.4111 N   0  0  0  0  0  0  0  0  0  0  0  0
    9.1353   -5.4053   27.8239 C   0  0  0  0  0  0  0  0  0  0  0  0
    0.9922   -9.3232   16.5995 O   0  0  0  0  0  0  0  0  0  0  0  0
    1.5232   -7.6869   27.1182 C   0  0  0  0  0  0  0  0  0  0  0  0
    8.6878   -6.6715   27.7262 N   0  0  0  0  0  0  0  0  0  0  0  0
    6.9911   -8.2423   27.1808 C   0  0  0  0  0  0  0  0  0  0  0  0
    3.8436   -7.2758   16.0578 C   0  0  0  0  0  0  0  0  0  0  0  0
    3.1882   -9.7190   17.2566 C   0  0  0  0  0  0  0  0  0  0  0  0
    5.3488   -6.1737   26.5092 C   0  0  0  0  0  0  0  0  0  0  0  0
    7.4567   -6.9464   27.2858 C   0  0  0  0  0  0  0  0  0  0  0  0
    0.1921   -5.7592   27.1123 C   0  0  0  0  0  0  0  0  0  0  0  0
    3.5517   -7.7407   25.9711 C   0  0  0  0  0  0  0  0  0  0  0  0
  1  4  4  0
  1 22  4  0
  2 20  4  0
  2 27  4  0
  3 12  4  0
  3 23  4  0
  4 25  4  0
  4 28  1  0
  5  8  4  0
  5 17  4  0
  6  7  4  0
  6 16  4  0
  7 18  4  0
  8 27  4  0
  9 13  4  0
  9 23  4  0
 10 11  1  0
 11 14  2  0
 11 27  1  0
 12 19  1  0
 12 24  4  0
 13 24  4  0
 15 18  1  0
 16 25  4  0
 16 26  4  0
 17 20  4  0
 17 28  1  0
 18 21  4  0
 21 26  4  0
 22 26  4  0
M  END
$$$$

 Created by Python create_sdf_string function

 28 30  0  0  0  0  0  0  0  0999 V2000
    5.7174   -8.4529   26.7190 C   0  0  0  0  0  0  0  0  0  0  0  0
    0.3974   -7.0711   27.5149 C   0  0  0  0  0  0  0  0  0  0  0  0
    2.5338   -7.6891   16.0102 C   0  0  0  0  0  0  0  0  0  0  0  0
    4.8690   -7.4380   26.4151 C   0  0  0  0  0  0  0  0  0  0  0  0
    2.3021   -5.6726   26.0378 C   0  0  0  0  0  0  0  0  0  0  0  0
    7.0880   -4.6163   27.0010 C   0  0  0  0  0  0  0  0  0  0  0  0
    8.3117   -4.3698   27.4436 C   0  0  0  0  0  0  0  0  0  0  0  0
    1.1339   -5.0515   26.3541 C   0  0  0  0  0  0  0  0  0  0  0  0
    4.8080   -8.0362   16.7101 C   0  0  0  0  0  0  0  0  0  0  0  0
   -1.2173   -3.9294   26.9717 O   0  0  0  0  0  0  0  0  0  0  0  0
   -1.0025   -5.0942   27.4586 C   0  0  0  0  0  0  0  0  0  0  0  0
    2.2474   -8.9123   16.6273 C   0  0  0  0  0  0  0  0  0  0  0  0
    4.4957   -9.2636   17.3041 C   0  0  0  0  0  0  0  0  0  0  0  0
   -1.8070   -5.6086   28.1920 O   0  0  0  0  0  0  0  0  0  0  0  0
   10.4296   -5.1799   28.3140 C   0  0  0  0  0  0  0  0  0  0  0  0
    6.6017   -5.9004   26.9187 C   0  0  0  0  0  0  0  0  0  0  0  0
    2.4761   -6.9940   26.4111 N   0  0  0  0  0  0  0  0  0  0  0  0
    9.1353   -5.4053   27.8239 C   0  0  0  0  0  0  0  0  0  0  0  0
    0.9922   -9.3232   16.5995 O   0  0  0  0  0  0  0  0  0  0  0  0
    1.5232   -7.6869   27.1182 C   0  0  0  0  0  0  0  0  0  0  0  0
    8.6878   -6.6715   27.7262 N   0  0  0  0  0  0  0  0  0  0  0  0
    6.9911   -8.2423   27.1808 C   0  0  0  0  0  0  0  0  0  0  0  0
    3.8436   -7.2758   16.0578 C   0  0  0  0  0  0  0  0  0  0  0  0
    3.1882   -9.7190   17.2566 C   0  0  0  0  0  0  0  0  0  0  0  0
    5.3488   -6.1737   26.5092 C   0  0  0  0  0  0  0  0  0  0  0  0
    7.4567   -6.9464   27.2858 C   0  0  0  0  0  0  0  0  0  0  0  0
    0.1921   -5.7592   27.1123 C   0  0  0  0  0  0  0  0  0  0  0  0
    3.5517   -7.7407   25.9711 C   0  0  0  0  0  0  0  0  0  0  0  0
  1  4  4  0
  1 22  4  0
  2 20  4  0
  2 27  4  0
  3 12  4  0
  3 23  4  0
  4 25  4  0
  4 28  1  0
  5  8  4  0
  5 17  4  0
  6  7  4  0
  6 16  4  0
  7 18  4  0
  8 27  4  0
  9 13  4  0
  9 23  4  0
 10 11  1  0
 11 14  2  0
 11 27  1  0
 12 19  1  0
 12 24  4  0
 13 24  4  0
 15 18  1  0
 16 25  4  0
 16 26  4  0
 17 20  4  0
 17 28  1  0
 18 21  4  0
 21 26  4  0
 22 26  4  0
M  END
$$$$

 Created by Python create_sdf_string function

 28 30  0  0  0  0  0  0  0  0999 V2000
    5.7174   -8.4529   26.7190 C   0  0  0  0  0  0  0  0  0  0  0  0
    0.3974   -7.0711   27.5149 C   0  0  0  0  0  0  0  0  0  0  0  0
    2.5338   -7.6891   16.0102 C   0  0  0  0  0  0  0  0  0  0  0  0
    4.8690   -7.4380   26.4151 C   0  0  0  0  0  0  0  0  0  0  0  0
    2.3021   -5.6726   26.0378 C   0  0  0  0  0  0  0  0  0  0  0  0
    7.0880   -4.6163   27.0010 C   0  0  0  0  0  0  0  0  0  0  0  0
    8.3117   -4.3698   27.4436 C   0  0  0  0  0  0  0  0  0  0  0  0
    1.1339   -5.0515   26.3541 C   0  0  0  0  0  0  0  0  0  0  0  0
    4.8080   -8.0362   16.7101 C   0  0  0  0  0  0  0  0  0  0  0  0
   -1.2173   -3.9294   26.9717 O   0  0  0  0  0  0  0  0  0  0  0  0
   -1.0025   -5.0942   27.4586 C   0  0  0  0  0  0  0  0  0  0  0  0
    2.2474   -8.9123   16.6273 C   0  0  0  0  0  0  0  0  0  0  0  0
    4.4957   -9.2636   17.3041 C   0  0  0  0  0  0  0  0  0  0  0  0
   -1.8070   -5.6086   28.1920 O   0  0  0  0  0  0  0  0  0  0  0  0
   10.4296   -5.1799   28.3140 C   0  0  0  0  0  0  0  0  0  0  0  0
    6.6017   -5.9004   26.9187 C   0  0  0  0  0  0  0  0  0  0  0  0
    2.4761   -6.9940   26.4111 N   0  0  0  0  0  0  0  0  0  0  0  0
    9.1353   -5.4053   27.8239 C   0  0  0  0  0  0  0  0  0  0  0  0
    0.9922   -9.3232   16.5995 O   0  0  0  0  0  0  0  0  0  0  0  0
    1.5232   -7.6869   27.1182 C   0  0  0  0  0  0  0  0  0  0  0  0
    8.6878   -6.6715   27.7262 N   0  0  0  0  0  0  0  0  0  0  0  0
    6.9911   -8.2423   27.1808 C   0  0  0  0  0  0  0  0  0  0  0  0
    3.8436   -7.2758   16.0578 C   0  0  0  0  0  0  0  0  0  0  0  0
    3.1882   -9.7190   17.2566 C   0  0  0  0  0  0  0  0  0  0  0  0
    5.3488   -6.1737   26.5092 C   0  0  0  0  0  0  0  0  0  0  0  0
    7.4567   -6.9464   27.2858 C   0  0  0  0  0  0  0  0  0  0  0  0
    0.1921   -5.7592   27.1123 C   0  0  0  0  0  0  0  0  0  0  0  0
    3.5517   -7.7407   25.9711 C   0  0  0  0  0  0  0  0  0  0  0  0
  1  4  4  0
  1 22  4  0
  2 20  4  0
  2 27  4  0
  3 12  4  0
  3 23  4  0
  4 25  4  0
  4 28  1  0
  5  8  4  0
  5 17  4  0
  6  7  4  0
  6 16  4  0
  7 18  4  0
  8 27  4  0
  9 13  4  0
  9 23  4  0
 10 11  1  0
 11 14  2  0
 11 27  1  0
 12 19  1  0
 12 24  4  0
 13 24  4  0
 15 18  1  0
 16 25  4  0
 16 26  4  0
 17 20  4  0
 17 28  1  0
 18 21  4  0
 21 26  4  0
 22 26  4  0
M  END
$$$$

 Created by Python create_sdf_string function

 28 30  0  0  0  0  0  0  0  0999 V2000
    5.7174   -8.4529   26.7190 C   0  0  0  0  0  0  0  0  0  0  0  0
    0.3974   -7.0711   27.5149 C   0  0  0  0  0  0  0  0  0  0  0  0
    2.5338   -7.6891   16.0102 C   0  0  0  0  0  0  0  0  0  0  0  0
    4.8690   -7.4380   26.4151 C   0  0  0  0  0  0  0  0  0  0  0  0
    2.3021   -5.6726   26.0378 C   0  0  0  0  0  0  0  0  0  0  0  0
    7.0880   -4.6163   27.0010 C   0  0  0  0  0  0  0  0  0  0  0  0
    8.3117   -4.3698   27.4436 C   0  0  0  0  0  0  0  0  0  0  0  0
    1.1339   -5.0515   26.3541 C   0  0  0  0  0  0  0  0  0  0  0  0
    4.8080   -8.0362   16.7101 C   0  0  0  0  0  0  0  0  0  0  0  0
   -1.2173   -3.9294   26.9717 O   0  0  0  0  0  0  0  0  0  0  0  0
   -1.0025   -5.0942   27.4586 C   0  0  0  0  0  0  0  0  0  0  0  0
    2.2474   -8.9123   16.6273 C   0  0  0  0  0  0  0  0  0  0  0  0
    4.4957   -9.2636   17.3041 C   0  0  0  0  0  0  0  0  0  0  0  0
   -1.8070   -5.6086   28.1920 O   0  0  0  0  0  0  0  0  0  0  0  0
   10.4296   -5.1799   28.3140 C   0  0  0  0  0  0  0  0  0  0  0  0
    6.6017   -5.9004   26.9187 C   0  0  0  0  0  0  0  0  0  0  0  0
    2.4761   -6.9940   26.4111 N   0  0  0  0  0  0  0  0  0  0  0  0
    9.1353   -5.4053   27.8239 C   0  0  0  0  0  0  0  0  0  0  0  0
    0.9922   -9.3232   16.5995 O   0  0  0  0  0  0  0  0  0  0  0  0
    1.5232   -7.6869   27.1182 C   0  0  0  0  0  0  0  0  0  0  0  0
    8.6878   -6.6715   27.7262 N   0  0  0  0  0  0  0  0  0  0  0  0
    6.9911   -8.2423   27.1808 C   0  0  0  0  0  0  0  0  0  0  0  0
    3.8436   -7.2758   16.0578 C   0  0  0  0  0  0  0  0  0  0  0  0
    3.1882   -9.7190   17.2566 C   0  0  0  0  0  0  0  0  0  0  0  0
    5.3488   -6.1737   26.5092 C   0  0  0  0  0  0  0  0  0  0  0  0
    7.4567   -6.9464   27.2858 C   0  0  0  0  0  0  0  0  0  0  0  0
    0.1921   -5.7592   27.1123 C   0  0  0  0  0  0  0  0  0  0  0  0
    3.5517   -7.7407   25.9711 C   0  0  0  0  0  0  0  0  0  0  0  0
  1  4  4  0
  1 22  4  0
  2 20  4  0
  2 27  4  0
  3 12  4  0
  3 23  4  0
  4 25  4  0
  4 28  1  0
  5  8  4  0
  5 17  4  0
  6  7  4  0
  6 16  4  0
  7 18  4  0
  8 27  4  0
  9 13  4  0
  9 23  4  0
 10 11  1  0
 11 14  2  0
 11 27  1  0
 12 19  1  0
 12 24  4  0
 13 24  4  0
 15 18  1  0
 16 25  4  0
 16 26  4  0
 17 20  4  0
 17 28  1  0
 18 21  4  0
 21 26  4  0
 22 26  4  0
M  END
$$$$

 Created by Python create_sdf_string function

 28 30  0  0  0  0  0  0  0  0999 V2000
    5.7174   -8.4529   26.7190 C   0  0  0  0  0  0  0  0  0  0  0  0
    0.3974   -7.0711   27.5149 C   0  0  0  0  0  0  0  0  0  0  0  0
    2.5338   -7.6891   16.0102 C   0  0  0  0  0  0  0  0  0  0  0  0
    4.8690   -7.4380   26.4151 C   0  0  0  0  0  0  0  0  0  0  0  0
    2.3021   -5.6726   26.0378 C   0  0  0  0  0  0  0  0  0  0  0  0
    7.0880   -4.6163   27.0010 C   0  0  0  0  0  0  0  0  0  0  0  0
    8.3117   -4.3698   27.4436 C   0  0  0  0  0  0  0  0  0  0  0  0
    1.1339   -5.0515   26.3541 C   0  0  0  0  0  0  0  0  0  0  0  0
    4.8080   -8.0362   16.7101 C   0  0  0  0  0  0  0  0  0  0  0  0
   -1.2173   -3.9294   26.9717 O   0  0  0  0  0  0  0  0  0  0  0  0
   -1.0025   -5.0942   27.4586 C   0  0  0  0  0  0  0  0  0  0  0  0
    2.2474   -8.9123   16.6273 C   0  0  0  0  0  0  0  0  0  0  0  0
    4.4957   -9.2636   17.3041 C   0  0  0  0  0  0  0  0  0  0  0  0
   -1.8070   -5.6086   28.1920 O   0  0  0  0  0  0  0  0  0  0  0  0
   10.4296   -5.1799   28.3140 C   0  0  0  0  0  0  0  0  0  0  0  0
    6.6017   -5.9004   26.9187 C   0  0  0  0  0  0  0  0  0  0  0  0
    2.4761   -6.9940   26.4111 N   0  0  0  0  0  0  0  0  0  0  0  0
    9.1353   -5.4053   27.8239 C   0  0  0  0  0  0  0  0  0  0  0  0
    0.9922   -9.3232   16.5995 O   0  0  0  0  0  0  0  0  0  0  0  0
    1.5232   -7.6869   27.1182 C   0  0  0  0  0  0  0  0  0  0  0  0
    8.6878   -6.6715   27.7262 N   0  0  0  0  0  0  0  0  0  0  0  0
    6.9911   -8.2423   27.1808 C   0  0  0  0  0  0  0  0  0  0  0  0
    3.8436   -7.2758   16.0578 C   0  0  0  0  0  0  0  0  0  0  0  0
    3.1882   -9.7190   17.2566 C   0  0  0  0  0  0  0  0  0  0  0  0
    5.3488   -6.1737   26.5092 C   0  0  0  0  0  0  0  0  0  0  0  0
    7.4567   -6.9464   27.2858 C   0  0  0  0  0  0  0  0  0  0  0  0
    0.1921   -5.7592   27.1123 C   0  0  0  0  0  0  0  0  0  0  0  0
    3.5517   -7.7407   25.9711 C   0  0  0  0  0  0  0  0  0  0  0  0
  1  4  4  0
  1 22  4  0
  2 20  4  0
  2 27  4  0
  3 12  4  0
  3 23  4  0
  4 25  4  0
  4 28  1  0
  5  8  4  0
  5 17  4  0
  6  7  4  0
  6 16  4  0
  7 18  4  0
  8 27  4  0
  9 13  4  0
  9 23  4  0
 10 11  1  0
 11 14  2  0
 11 27  1  0
 12 19  1  0
 12 24  4  0
 13 24  4  0
 15 18  1  0
 16 25  4  0
 16 26  4  0
 17 20  4  0
 17 28  1  0
 18 21  4  0
 21 26  4  0
 22 26  4  0
M  END
$$$$

 Created by Python create_sdf_string function

 28 30  0  0  0  0  0  0  0  0999 V2000
    5.7174   -8.4529   26.7190 C   0  0  0  0  0  0  0  0  0  0  0  0
    0.3974   -7.0711   27.5149 C   0  0  0  0  0  0  0  0  0  0  0  0
    2.5338   -7.6891   16.0102 C   0  0  0  0  0  0  0  0  0  0  0  0
    4.8690   -7.4380   26.4151 C   0  0  0  0  0  0  0  0  0  0  0  0
    2.3021   -5.6726   26.0378 C   0  0  0  0  0  0  0  0  0  0  0  0
    7.0880   -4.6163   27.0010 C   0  0  0  0  0  0  0  0  0  0  0  0
    8.3117   -4.3698   27.4436 C   0  0  0  0  0  0  0  0  0  0  0  0
    1.1339   -5.0515   26.3541 C   0  0  0  0  0  0  0  0  0  0  0  0
    4.8080   -8.0362   16.7101 C   0  0  0  0  0  0  0  0  0  0  0  0
   -1.2173   -3.9294   26.9717 O   0  0  0  0  0  0  0  0  0  0  0  0
   -1.0025   -5.0942   27.4586 C   0  0  0  0  0  0  0  0  0  0  0  0
    2.2474   -8.9123   16.6273 C   0  0  0  0  0  0  0  0  0  0  0  0
    4.4957   -9.2636   17.3041 C   0  0  0  0  0  0  0  0  0  0  0  0
   -1.8070   -5.6086   28.1920 O   0  0  0  0  0  0  0  0  0  0  0  0
   10.4296   -5.1799   28.3140 C   0  0  0  0  0  0  0  0  0  0  0  0
    6.6017   -5.9004   26.9187 C   0  0  0  0  0  0  0  0  0  0  0  0
    2.4761   -6.9940   26.4111 N   0  0  0  0  0  0  0  0  0  0  0  0
    9.1353   -5.4053   27.8239 C   0  0  0  0  0  0  0  0  0  0  0  0
    0.9922   -9.3232   16.5995 O   0  0  0  0  0  0  0  0  0  0  0  0
    1.5232   -7.6869   27.1182 C   0  0  0  0  0  0  0  0  0  0  0  0
    8.6878   -6.6715   27.7262 N   0  0  0  0  0  0  0  0  0  0  0  0
    6.9911   -8.2423   27.1808 C   0  0  0  0  0  0  0  0  0  0  0  0
    3.8436   -7.2758   16.0578 C   0  0  0  0  0  0  0  0  0  0  0  0
    3.1882   -9.7190   17.2566 C   0  0  0  0  0  0  0  0  0  0  0  0
    5.3488   -6.1737   26.5092 C   0  0  0  0  0  0  0  0  0  0  0  0
    7.4567   -6.9464   27.2858 C   0  0  0  0  0  0  0  0  0  0  0  0
    0.1921   -5.7592   27.1123 C   0  0  0  0  0  0  0  0  0  0  0  0
    3.5517   -7.7407   25.9711 C   0  0  0  0  0  0  0  0  0  0  0  0
  1  4  4  0
  1 22  4  0
  2 20  4  0
  2 27  4  0
  3 12  4  0
  3 23  4  0
  4 25  4  0
  4 28  1  0
  5  8  4  0
  5 17  4  0
  6  7  4  0
  6 16  4  0
  7 18  4  0
  8 27  4  0
  9 13  4  0
  9 23  4  0
 10 11  1  0
 11 14  2  0
 11 27  1  0
 12 19  1  0
 12 24  4  0
 13 24  4  0
 15 18  1  0
 16 25  4  0
 16 26  4  0
 17 20  4  0
 17 28  1  0
 18 21  4  0
 21 26  4  0
 22 26  4  0
M  END
$$$$

 Created by Python create_sdf_string function

 28 30  0  0  0  0  0  0  0  0999 V2000
    5.7174   -8.4529   26.7190 C   0  0  0  0  0  0  0  0  0  0  0  0
    0.3974   -7.0711   27.5149 C   0  0  0  0  0  0  0  0  0  0  0  0
    2.5338   -7.6891   16.0102 C   0  0  0  0  0  0  0  0  0  0  0  0
    4.8690   -7.4380   26.4151 C   0  0  0  0  0  0  0  0  0  0  0  0
    2.3021   -5.6726   26.0378 C   0  0  0  0  0  0  0  0  0  0  0  0
    7.0880   -4.6163   27.0010 C   0  0  0  0  0  0  0  0  0  0  0  0
    8.3117   -4.3698   27.4436 C   0  0  0  0  0  0  0  0  0  0  0  0
    1.1339   -5.0515   26.3541 C   0  0  0  0  0  0  0  0  0  0  0  0
    4.8080   -8.0362   16.7101 C   0  0  0  0  0  0  0  0  0  0  0  0
   -1.2173   -3.9294   26.9717 O   0  0  0  0  0  0  0  0  0  0  0  0
   -1.0025   -5.0942   27.4586 C   0  0  0  0  0  0  0  0  0  0  0  0
    2.2474   -8.9123   16.6273 C   0  0  0  0  0  0  0  0  0  0  0  0
    4.4957   -9.2636   17.3041 C   0  0  0  0  0  0  0  0  0  0  0  0
   -1.8070   -5.6086   28.1920 O   0  0  0  0  0  0  0  0  0  0  0  0
   10.4296   -5.1799   28.3140 C   0  0  0  0  0  0  0  0  0  0  0  0
    6.6017   -5.9004   26.9187 C   0  0  0  0  0  0  0  0  0  0  0  0
    2.4761   -6.9940   26.4111 N   0  0  0  0  0  0  0  0  0  0  0  0
    9.1353   -5.4053   27.8239 C   0  0  0  0  0  0  0  0  0  0  0  0
    0.9922   -9.3232   16.5995 O   0  0  0  0  0  0  0  0  0  0  0  0
    1.5232   -7.6869   27.1182 C   0  0  0  0  0  0  0  0  0  0  0  0
    8.6878   -6.6715   27.7262 N   0  0  0  0  0  0  0  0  0  0  0  0
    6.9911   -8.2423   27.1808 C   0  0  0  0  0  0  0  0  0  0  0  0
    3.8436   -7.2758   16.0578 C   0  0  0  0  0  0  0  0  0  0  0  0
    3.1882   -9.7190   17.2566 C   0  0  0  0  0  0  0  0  0  0  0  0
    5.3488   -6.1737   26.5092 C   0  0  0  0  0  0  0  0  0  0  0  0
    7.4567   -6.9464   27.2858 C   0  0  0  0  0  0  0  0  0  0  0  0
    0.1921   -5.7592   27.1123 C   0  0  0  0  0  0  0  0  0  0  0  0
    3.5517   -7.7407   25.9711 C   0  0  0  0  0  0  0  0  0  0  0  0
  1  4  4  0
  1 22  4  0
  2 20  4  0
  2 27  4  0
  3 12  4  0
  3 23  4  0
  4 25  4  0
  4 28  1  0
  5  8  4  0
  5 17  4  0
  6  7  4  0
  6 16  4  0
  7 18  4  0
  8 27  4  0
  9 13  4  0
  9 23  4  0
 10 11  1  0
 11 14  2  0
 11 27  1  0
 12 19  1  0
 12 24  4  0
 13 24  4  0
 15 18  1  0
 16 25  4  0
 16 26  4  0
 17 20  4  0
 17 28  1  0
 18 21  4  0
 21 26  4  0
 22 26  4  0
M  END
$$$$

 Created by Python create_sdf_string function

 28 30  0  0  0  0  0  0  0  0999 V2000
    5.7174   -8.4529   26.7190 C   0  0  0  0  0  0  0  0  0  0  0  0
    0.3974   -7.0711   27.5149 C   0  0  0  0  0  0  0  0  0  0  0  0
    2.5338   -7.6891   16.0102 C   0  0  0  0  0  0  0  0  0  0  0  0
    4.8690   -7.4380   26.4151 C   0  0  0  0  0  0  0  0  0  0  0  0
    2.3021   -5.6726   26.0378 C   0  0  0  0  0  0  0  0  0  0  0  0
    7.0880   -4.6163   27.0010 C   0  0  0  0  0  0  0  0  0  0  0  0
    8.3117   -4.3698   27.4436 C   0  0  0  0  0  0  0  0  0  0  0  0
    1.1339   -5.0515   26.3541 C   0  0  0  0  0  0  0  0  0  0  0  0
    4.8080   -8.0362   16.7101 C   0  0  0  0  0  0  0  0  0  0  0  0
   -1.2173   -3.9294   26.9717 O   0  0  0  0  0  0  0  0  0  0  0  0
   -1.0025   -5.0942   27.4586 C   0  0  0  0  0  0  0  0  0  0  0  0
    2.2474   -8.9123   16.6273 C   0  0  0  0  0  0  0  0  0  0  0  0
    4.4957   -9.2636   17.3041 C   0  0  0  0  0  0  0  0  0  0  0  0
   -1.8070   -5.6086   28.1920 O   0  0  0  0  0  0  0  0  0  0  0  0
   10.4296   -5.1799   28.3140 C   0  0  0  0  0  0  0  0  0  0  0  0
    6.6017   -5.9004   26.9187 C   0  0  0  0  0  0  0  0  0  0  0  0
    2.4761   -6.9940   26.4111 N   0  0  0  0  0  0  0  0  0  0  0  0
    9.1353   -5.4053   27.8239 C   0  0  0  0  0  0  0  0  0  0  0  0
    0.9922   -9.3232   16.5995 O   0  0  0  0  0  0  0  0  0  0  0  0
    1.5232   -7.6869   27.1182 C   0  0  0  0  0  0  0  0  0  0  0  0
    8.6878   -6.6715   27.7262 N   0  0  0  0  0  0  0  0  0  0  0  0
    6.9911   -8.2423   27.1808 C   0  0  0  0  0  0  0  0  0  0  0  0
    3.8436   -7.2758   16.0578 C   0  0  0  0  0  0  0  0  0  0  0  0
    3.1882   -9.7190   17.2566 C   0  0  0  0  0  0  0  0  0  0  0  0
    5.3488   -6.1737   26.5092 C   0  0  0  0  0  0  0  0  0  0  0  0
    7.4567   -6.9464   27.2858 C   0  0  0  0  0  0  0  0  0  0  0  0
    0.1921   -5.7592   27.1123 C   0  0  0  0  0  0  0  0  0  0  0  0
    3.5517   -7.7407   25.9711 C   0  0  0  0  0  0  0  0  0  0  0  0
  1  4  4  0
  1 22  4  0
  2 20  4  0
  2 27  4  0
  3 12  4  0
  3 23  4  0
  4 25  4  0
  4 28  1  0
  5  8  4  0
  5 17  4  0
  6  7  4  0
  6 16  4  0
  7 18  4  0
  8 27  4  0
  9 13  4  0
  9 23  4  0
 10 11  1  0
 11 14  2  0
 11 27  1  0
 12 19  1  0
 12 24  4  0
 13 24  4  0
 15 18  1  0
 16 25  4  0
 16 26  4  0
 17 20  4  0
 17 28  1  0
 18 21  4  0
 21 26  4  0
 22 26  4  0
M  END
$$$$

 Created by Python create_sdf_string function

 28 30  0  0  0  0  0  0  0  0999 V2000
    5.7174   -8.4529   26.7190 C   0  0  0  0  0  0  0  0  0  0  0  0
    0.3974   -7.0711   27.5149 C   0  0  0  0  0  0  0  0  0  0  0  0
    2.5338   -7.6891   16.0102 C   0  0  0  0  0  0  0  0  0  0  0  0
    4.8690   -7.4380   26.4151 C   0  0  0  0  0  0  0  0  0  0  0  0
    2.3021   -5.6726   26.0378 C   0  0  0  0  0  0  0  0  0  0  0  0
    7.0880   -4.6163   27.0010 C   0  0  0  0  0  0  0  0  0  0  0  0
    8.3117   -4.3698   27.4436 C   0  0  0  0  0  0  0  0  0  0  0  0
    1.1339   -5.0515   26.3541 C   0  0  0  0  0  0  0  0  0  0  0  0
    4.8080   -8.0362   16.7101 C   0  0  0  0  0  0  0  0  0  0  0  0
   -1.2173   -3.9294   26.9717 O   0  0  0  0  0  0  0  0  0  0  0  0
   -1.0025   -5.0942   27.4586 C   0  0  0  0  0  0  0  0  0  0  0  0
    2.2474   -8.9123   16.6273 C   0  0  0  0  0  0  0  0  0  0  0  0
    4.4957   -9.2636   17.3041 C   0  0  0  0  0  0  0  0  0  0  0  0
   -1.8070   -5.6086   28.1920 O   0  0  0  0  0  0  0  0  0  0  0  0
   10.4296   -5.1799   28.3140 C   0  0  0  0  0  0  0  0  0  0  0  0
    6.6017   -5.9004   26.9187 C   0  0  0  0  0  0  0  0  0  0  0  0
    2.4761   -6.9940   26.4111 N   0  0  0  0  0  0  0  0  0  0  0  0
    9.1353   -5.4053   27.8239 C   0  0  0  0  0  0  0  0  0  0  0  0
    0.9922   -9.3232   16.5995 O   0  0  0  0  0  0  0  0  0  0  0  0
    1.5232   -7.6869   27.1182 C   0  0  0  0  0  0  0  0  0  0  0  0
    8.6878   -6.6715   27.7262 N   0  0  0  0  0  0  0  0  0  0  0  0
    6.9911   -8.2423   27.1808 C   0  0  0  0  0  0  0  0  0  0  0  0
    3.8436   -7.2758   16.0578 C   0  0  0  0  0  0  0  0  0  0  0  0
    3.1882   -9.7190   17.2566 C   0  0  0  0  0  0  0  0  0  0  0  0
    5.3488   -6.1737   26.5092 C   0  0  0  0  0  0  0  0  0  0  0  0
    7.4567   -6.9464   27.2858 C   0  0  0  0  0  0  0  0  0  0  0  0
    0.1921   -5.7592   27.1123 C   0  0  0  0  0  0  0  0  0  0  0  0
    3.5517   -7.7407   25.9711 C   0  0  0  0  0  0  0  0  0  0  0  0
  1  4  4  0
  1 22  4  0
  2 20  4  0
  2 27  4  0
  3 12  4  0
  3 23  4  0
  4 25  4  0
  4 28  1  0
  5  8  4  0
  5 17  4  0
  6  7  4  0
  6 16  4  0
  7 18  4  0
  8 27  4  0
  9 13  4  0
  9 23  4  0
 10 11  1  0
 11 14  2  0
 11 27  1  0
 12 19  1  0
 12 24  4  0
 13 24  4  0
 15 18  1  0
 16 25  4  0
 16 26  4  0
 17 20  4  0
 17 28  1  0
 18 21  4  0
 21 26  4  0
 22 26  4  0
M  END
$$$$

 Created by Python create_sdf_string function

 28 30  0  0  0  0  0  0  0  0999 V2000
    5.7174   -8.4529   26.7190 C   0  0  0  0  0  0  0  0  0  0  0  0
    0.3974   -7.0711   27.5149 C   0  0  0  0  0  0  0  0  0  0  0  0
    2.5338   -7.6891   16.0102 C   0  0  0  0  0  0  0  0  0  0  0  0
    4.8690   -7.4380   26.4151 C   0  0  0  0  0  0  0  0  0  0  0  0
    2.3021   -5.6726   26.0378 C   0  0  0  0  0  0  0  0  0  0  0  0
    7.0880   -4.6163   27.0010 C   0  0  0  0  0  0  0  0  0  0  0  0
    8.3117   -4.3698   27.4436 C   0  0  0  0  0  0  0  0  0  0  0  0
    1.1339   -5.0515   26.3541 C   0  0  0  0  0  0  0  0  0  0  0  0
    4.8080   -8.0362   16.7101 C   0  0  0  0  0  0  0  0  0  0  0  0
   -1.2173   -3.9294   26.9717 O   0  0  0  0  0  0  0  0  0  0  0  0
   -1.0025   -5.0942   27.4586 C   0  0  0  0  0  0  0  0  0  0  0  0
    2.2474   -8.9123   16.6273 C   0  0  0  0  0  0  0  0  0  0  0  0
    4.4957   -9.2636   17.3041 C   0  0  0  0  0  0  0  0  0  0  0  0
   -1.8070   -5.6086   28.1920 O   0  0  0  0  0  0  0  0  0  0  0  0
   10.4296   -5.1799   28.3140 C   0  0  0  0  0  0  0  0  0  0  0  0
    6.6017   -5.9004   26.9187 C   0  0  0  0  0  0  0  0  0  0  0  0
    2.4761   -6.9940   26.4111 N   0  0  0  0  0  0  0  0  0  0  0  0
    9.1353   -5.4053   27.8239 C   0  0  0  0  0  0  0  0  0  0  0  0
    0.9922   -9.3232   16.5995 O   0  0  0  0  0  0  0  0  0  0  0  0
    1.5232   -7.6869   27.1182 C   0  0  0  0  0  0  0  0  0  0  0  0
    8.6878   -6.6715   27.7262 N   0  0  0  0  0  0  0  0  0  0  0  0
    6.9911   -8.2423   27.1808 C   0  0  0  0  0  0  0  0  0  0  0  0
    3.8436   -7.2758   16.0578 C   0  0  0  0  0  0  0  0  0  0  0  0
    3.1882   -9.7190   17.2566 C   0  0  0  0  0  0  0  0  0  0  0  0
    5.3488   -6.1737   26.5092 C   0  0  0  0  0  0  0  0  0  0  0  0
    7.4567   -6.9464   27.2858 C   0  0  0  0  0  0  0  0  0  0  0  0
    0.1921   -5.7592   27.1123 C   0  0  0  0  0  0  0  0  0  0  0  0
    3.5517   -7.7407   25.9711 C   0  0  0  0  0  0  0  0  0  0  0  0
  1  4  4  0
  1 22  4  0
  2 20  4  0
  2 27  4  0
  3 12  4  0
  3 23  4  0
  4 25  4  0
  4 28  1  0
  5  8  4  0
  5 17  4  0
  6  7  4  0
  6 16  4  0
  7 18  4  0
  8 27  4  0
  9 13  4  0
  9 23  4  0
 10 11  1  0
 11 14  2  0
 11 27  1  0
 12 19  1  0
 12 24  4  0
 13 24  4  0
 15 18  1  0
 16 25  4  0
 16 26  4  0
 17 20  4  0
 17 28  1  0
 18 21  4  0
 21 26  4  0
 22 26  4  0
M  END
$$$$

 Created by Python create_sdf_string function

 28 30  0  0  0  0  0  0  0  0999 V2000
    5.7174   -8.4529   26.7190 C   0  0  0  0  0  0  0  0  0  0  0  0
    0.3974   -7.0711   27.5149 C   0  0  0  0  0  0  0  0  0  0  0  0
    2.5338   -7.6891   16.0102 C   0  0  0  0  0  0  0  0  0  0  0  0
    4.8690   -7.4380   26.4151 C   0  0  0  0  0  0  0  0  0  0  0  0
    2.3021   -5.6726   26.0378 C   0  0  0  0  0  0  0  0  0  0  0  0
    7.0880   -4.6163   27.0010 C   0  0  0  0  0  0  0  0  0  0  0  0
    8.3117   -4.3698   27.4436 C   0  0  0  0  0  0  0  0  0  0  0  0
    1.1339   -5.0515   26.3541 C   0  0  0  0  0  0  0  0  0  0  0  0
    4.8080   -8.0362   16.7101 C   0  0  0  0  0  0  0  0  0  0  0  0
   -1.2173   -3.9294   26.9717 O   0  0  0  0  0  0  0  0  0  0  0  0
   -1.0025   -5.0942   27.4586 C   0  0  0  0  0  0  0  0  0  0  0  0
    2.2474   -8.9123   16.6273 C   0  0  0  0  0  0  0  0  0  0  0  0
    4.4957   -9.2636   17.3041 C   0  0  0  0  0  0  0  0  0  0  0  0
   -1.8070   -5.6086   28.1920 O   0  0  0  0  0  0  0  0  0  0  0  0
   10.4296   -5.1799   28.3140 C   0  0  0  0  0  0  0  0  0  0  0  0
    6.6017   -5.9004   26.9187 C   0  0  0  0  0  0  0  0  0  0  0  0
    2.4761   -6.9940   26.4111 N   0  0  0  0  0  0  0  0  0  0  0  0
    9.1353   -5.4053   27.8239 C   0  0  0  0  0  0  0  0  0  0  0  0
    0.9922   -9.3232   16.5995 O   0  0  0  0  0  0  0  0  0  0  0  0
    1.5232   -7.6869   27.1182 C   0  0  0  0  0  0  0  0  0  0  0  0
    8.6878   -6.6715   27.7262 N   0  0  0  0  0  0  0  0  0  0  0  0
    6.9911   -8.2423   27.1808 C   0  0  0  0  0  0  0  0  0  0  0  0
    3.8436   -7.2758   16.0578 C   0  0  0  0  0  0  0  0  0  0  0  0
    3.1882   -9.7190   17.2566 C   0  0  0  0  0  0  0  0  0  0  0  0
    5.3488   -6.1737   26.5092 C   0  0  0  0  0  0  0  0  0  0  0  0
    7.4567   -6.9464   27.2858 C   0  0  0  0  0  0  0  0  0  0  0  0
    0.1921   -5.7592   27.1123 C   0  0  0  0  0  0  0  0  0  0  0  0
    3.5517   -7.7407   25.9711 C   0  0  0  0  0  0  0  0  0  0  0  0
  1  4  4  0
  1 22  4  0
  2 20  4  0
  2 27  4  0
  3 12  4  0
  3 23  4  0
  4 25  4  0
  4 28  1  0
  5  8  4  0
  5 17  4  0
  6  7  4  0
  6 16  4  0
  7 18  4  0
  8 27  4  0
  9 13  4  0
  9 23  4  0
 10 11  1  0
 11 14  2  0
 11 27  1  0
 12 19  1  0
 12 24  4  0
 13 24  4  0
 15 18  1  0
 16 25  4  0
 16 26  4  0
 17 20  4  0
 17 28  1  0
 18 21  4  0
 21 26  4  0
 22 26  4  0
M  END
$$$$

 Created by Python create_sdf_string function

 28 30  0  0  0  0  0  0  0  0999 V2000
    5.7174   -8.4529   26.7190 C   0  0  0  0  0  0  0  0  0  0  0  0
    0.3974   -7.0711   27.5149 C   0  0  0  0  0  0  0  0  0  0  0  0
    2.5338   -7.6891   16.0102 C   0  0  0  0  0  0  0  0  0  0  0  0
    4.8690   -7.4380   26.4151 C   0  0  0  0  0  0  0  0  0  0  0  0
    2.3021   -5.6726   26.0378 C   0  0  0  0  0  0  0  0  0  0  0  0
    7.0880   -4.6163   27.0010 C   0  0  0  0  0  0  0  0  0  0  0  0
    8.3117   -4.3698   27.4436 C   0  0  0  0  0  0  0  0  0  0  0  0
    1.1339   -5.0515   26.3541 C   0  0  0  0  0  0  0  0  0  0  0  0
    4.8080   -8.0362   16.7101 C   0  0  0  0  0  0  0  0  0  0  0  0
   -1.2173   -3.9294   26.9717 O   0  0  0  0  0  0  0  0  0  0  0  0
   -1.0025   -5.0942   27.4586 C   0  0  0  0  0  0  0  0  0  0  0  0
    2.2474   -8.9123   16.6273 C   0  0  0  0  0  0  0  0  0  0  0  0
    4.4957   -9.2636   17.3041 C   0  0  0  0  0  0  0  0  0  0  0  0
   -1.8070   -5.6086   28.1920 O   0  0  0  0  0  0  0  0  0  0  0  0
   10.4296   -5.1799   28.3140 C   0  0  0  0  0  0  0  0  0  0  0  0
    6.6017   -5.9004   26.9187 C   0  0  0  0  0  0  0  0  0  0  0  0
    2.4761   -6.9940   26.4111 N   0  0  0  0  0  0  0  0  0  0  0  0
    9.1353   -5.4053   27.8239 C   0  0  0  0  0  0  0  0  0  0  0  0
    0.9922   -9.3232   16.5995 O   0  0  0  0  0  0  0  0  0  0  0  0
    1.5232   -7.6869   27.1182 C   0  0  0  0  0  0  0  0  0  0  0  0
    8.6878   -6.6715   27.7262 N   0  0  0  0  0  0  0  0  0  0  0  0
    6.9911   -8.2423   27.1808 C   0  0  0  0  0  0  0  0  0  0  0  0
    3.8436   -7.2758   16.0578 C   0  0  0  0  0  0  0  0  0  0  0  0
    3.1882   -9.7190   17.2566 C   0  0  0  0  0  0  0  0  0  0  0  0
    5.3488   -6.1737   26.5092 C   0  0  0  0  0  0  0  0  0  0  0  0
    7.4567   -6.9464   27.2858 C   0  0  0  0  0  0  0  0  0  0  0  0
    0.1921   -5.7592   27.1123 C   0  0  0  0  0  0  0  0  0  0  0  0
    3.5517   -7.7407   25.9711 C   0  0  0  0  0  0  0  0  0  0  0  0
  1  4  4  0
  1 22  4  0
  2 20  4  0
  2 27  4  0
  3 12  4  0
  3 23  4  0
  4 25  4  0
  4 28  1  0
  5  8  4  0
  5 17  4  0
  6  7  4  0
  6 16  4  0
  7 18  4  0
  8 27  4  0
  9 13  4  0
  9 23  4  0
 10 11  1  0
 11 14  2  0
 11 27  1  0
 12 19  1  0
 12 24  4  0
 13 24  4  0
 15 18  1  0
 16 25  4  0
 16 26  4  0
 17 20  4  0
 17 28  1  0
 18 21  4  0
 21 26  4  0
 22 26  4  0
M  END
$$$$

 Created by Python create_sdf_string function

 28 30  0  0  0  0  0  0  0  0999 V2000
    5.7174   -8.4529   26.7190 C   0  0  0  0  0  0  0  0  0  0  0  0
    0.3974   -7.0711   27.5149 C   0  0  0  0  0  0  0  0  0  0  0  0
    2.5338   -7.6891   16.0102 C   0  0  0  0  0  0  0  0  0  0  0  0
    4.8690   -7.4380   26.4151 C   0  0  0  0  0  0  0  0  0  0  0  0
    2.3021   -5.6726   26.0378 C   0  0  0  0  0  0  0  0  0  0  0  0
    7.0880   -4.6163   27.0010 C   0  0  0  0  0  0  0  0  0  0  0  0
    8.3117   -4.3698   27.4436 C   0  0  0  0  0  0  0  0  0  0  0  0
    1.1339   -5.0515   26.3541 C   0  0  0  0  0  0  0  0  0  0  0  0
    4.8080   -8.0362   16.7101 C   0  0  0  0  0  0  0  0  0  0  0  0
   -1.2173   -3.9294   26.9717 O   0  0  0  0  0  0  0  0  0  0  0  0
   -1.0025   -5.0942   27.4586 C   0  0  0  0  0  0  0  0  0  0  0  0
    2.2474   -8.9123   16.6273 C   0  0  0  0  0  0  0  0  0  0  0  0
    4.4957   -9.2636   17.3041 C   0  0  0  0  0  0  0  0  0  0  0  0
   -1.8070   -5.6086   28.1920 O   0  0  0  0  0  0  0  0  0  0  0  0
   10.4296   -5.1799   28.3140 C   0  0  0  0  0  0  0  0  0  0  0  0
    6.6017   -5.9004   26.9187 C   0  0  0  0  0  0  0  0  0  0  0  0
    2.4761   -6.9940   26.4111 N   0  0  0  0  0  0  0  0  0  0  0  0
    9.1353   -5.4053   27.8239 C   0  0  0  0  0  0  0  0  0  0  0  0
    0.9922   -9.3232   16.5995 O   0  0  0  0  0  0  0  0  0  0  0  0
    1.5232   -7.6869   27.1182 C   0  0  0  0  0  0  0  0  0  0  0  0
    8.6878   -6.6715   27.7262 N   0  0  0  0  0  0  0  0  0  0  0  0
    6.9911   -8.2423   27.1808 C   0  0  0  0  0  0  0  0  0  0  0  0
    3.8436   -7.2758   16.0578 C   0  0  0  0  0  0  0  0  0  0  0  0
    3.1882   -9.7190   17.2566 C   0  0  0  0  0  0  0  0  0  0  0  0
    5.3488   -6.1737   26.5092 C   0  0  0  0  0  0  0  0  0  0  0  0
    7.4567   -6.9464   27.2858 C   0  0  0  0  0  0  0  0  0  0  0  0
    0.1921   -5.7592   27.1123 C   0  0  0  0  0  0  0  0  0  0  0  0
    3.5517   -7.7407   25.9711 C   0  0  0  0  0  0  0  0  0  0  0  0
  1  4  4  0
  1 22  4  0
  2 20  4  0
  2 27  4  0
  3 12  4  0
  3 23  4  0
  4 25  4  0
  4 28  1  0
  5  8  4  0
  5 17  4  0
  6  7  4  0
  6 16  4  0
  7 18  4  0
  8 27  4  0
  9 13  4  0
  9 23  4  0
 10 11  1  0
 11 14  2  0
 11 27  1  0
 12 19  1  0
 12 24  4  0
 13 24  4  0
 15 18  1  0
 16 25  4  0
 16 26  4  0
 17 20  4  0
 17 28  1  0
 18 21  4  0
 21 26  4  0
 22 26  4  0
M  END
$$$$

 Created by Python create_sdf_string function

 28 30  0  0  0  0  0  0  0  0999 V2000
    5.7174   -8.4529   26.7190 C   0  0  0  0  0  0  0  0  0  0  0  0
    0.3974   -7.0711   27.5149 C   0  0  0  0  0  0  0  0  0  0  0  0
    2.5338   -7.6891   16.0102 C   0  0  0  0  0  0  0  0  0  0  0  0
    4.8690   -7.4380   26.4151 C   0  0  0  0  0  0  0  0  0  0  0  0
    2.3021   -5.6726   26.0378 C   0  0  0  0  0  0  0  0  0  0  0  0
    7.0880   -4.6163   27.0010 C   0  0  0  0  0  0  0  0  0  0  0  0
    8.3117   -4.3698   27.4436 C   0  0  0  0  0  0  0  0  0  0  0  0
    1.1339   -5.0515   26.3541 C   0  0  0  0  0  0  0  0  0  0  0  0
    4.8080   -8.0362   16.7101 C   0  0  0  0  0  0  0  0  0  0  0  0
   -1.2173   -3.9294   26.9717 O   0  0  0  0  0  0  0  0  0  0  0  0
   -1.0025   -5.0942   27.4586 C   0  0  0  0  0  0  0  0  0  0  0  0
    2.2474   -8.9123   16.6273 C   0  0  0  0  0  0  0  0  0  0  0  0
    4.4957   -9.2636   17.3041 C   0  0  0  0  0  0  0  0  0  0  0  0
   -1.8070   -5.6086   28.1920 O   0  0  0  0  0  0  0  0  0  0  0  0
   10.4296   -5.1799   28.3140 C   0  0  0  0  0  0  0  0  0  0  0  0
    6.6017   -5.9004   26.9187 C   0  0  0  0  0  0  0  0  0  0  0  0
    2.4761   -6.9940   26.4111 N   0  0  0  0  0  0  0  0  0  0  0  0
    9.1353   -5.4053   27.8239 C   0  0  0  0  0  0  0  0  0  0  0  0
    0.9922   -9.3232   16.5995 O   0  0  0  0  0  0  0  0  0  0  0  0
    1.5232   -7.6869   27.1182 C   0  0  0  0  0  0  0  0  0  0  0  0
    8.6878   -6.6715   27.7262 N   0  0  0  0  0  0  0  0  0  0  0  0
    6.9911   -8.2423   27.1808 C   0  0  0  0  0  0  0  0  0  0  0  0
    3.8436   -7.2758   16.0578 C   0  0  0  0  0  0  0  0  0  0  0  0
    3.1882   -9.7190   17.2566 C   0  0  0  0  0  0  0  0  0  0  0  0
    5.3488   -6.1737   26.5092 C   0  0  0  0  0  0  0  0  0  0  0  0
    7.4567   -6.9464   27.2858 C   0  0  0  0  0  0  0  0  0  0  0  0
    0.1921   -5.7592   27.1123 C   0  0  0  0  0  0  0  0  0  0  0  0
    3.5517   -7.7407   25.9711 C   0  0  0  0  0  0  0  0  0  0  0  0
  1  4  4  0
  1 22  4  0
  2 20  4  0
  2 27  4  0
  3 12  4  0
  3 23  4  0
  4 25  4  0
  4 28  1  0
  5  8  4  0
  5 17  4  0
  6  7  4  0
  6 16  4  0
  7 18  4  0
  8 27  4  0
  9 13  4  0
  9 23  4  0
 10 11  1  0
 11 14  2  0
 11 27  1  0
 12 19  1  0
 12 24  4  0
 13 24  4  0
 15 18  1  0
 16 25  4  0
 16 26  4  0
 17 20  4  0
 17 28  1  0
 18 21  4  0
 21 26  4  0
 22 26  4  0
M  END
$$$$

 Created by Python create_sdf_string function

 28 30  0  0  0  0  0  0  0  0999 V2000
    5.7174   -8.4529   26.7190 C   0  0  0  0  0  0  0  0  0  0  0  0
    0.3974   -7.0711   27.5149 C   0  0  0  0  0  0  0  0  0  0  0  0
    2.5338   -7.6891   16.0102 C   0  0  0  0  0  0  0  0  0  0  0  0
    4.8690   -7.4380   26.4151 C   0  0  0  0  0  0  0  0  0  0  0  0
    2.3021   -5.6726   26.0378 C   0  0  0  0  0  0  0  0  0  0  0  0
    7.0880   -4.6163   27.0010 C   0  0  0  0  0  0  0  0  0  0  0  0
    8.3117   -4.3698   27.4436 C   0  0  0  0  0  0  0  0  0  0  0  0
    1.1339   -5.0515   26.3541 C   0  0  0  0  0  0  0  0  0  0  0  0
    4.8080   -8.0362   16.7101 C   0  0  0  0  0  0  0  0  0  0  0  0
   -1.2173   -3.9294   26.9717 O   0  0  0  0  0  0  0  0  0  0  0  0
   -1.0025   -5.0942   27.4586 C   0  0  0  0  0  0  0  0  0  0  0  0
    2.2474   -8.9123   16.6273 C   0  0  0  0  0  0  0  0  0  0  0  0
    4.4957   -9.2636   17.3041 C   0  0  0  0  0  0  0  0  0  0  0  0
   -1.8070   -5.6086   28.1920 O   0  0  0  0  0  0  0  0  0  0  0  0
   10.4296   -5.1799   28.3140 C   0  0  0  0  0  0  0  0  0  0  0  0
    6.6017   -5.9004   26.9187 C   0  0  0  0  0  0  0  0  0  0  0  0
    2.4761   -6.9940   26.4111 N   0  0  0  0  0  0  0  0  0  0  0  0
    9.1353   -5.4053   27.8239 C   0  0  0  0  0  0  0  0  0  0  0  0
    0.9922   -9.3232   16.5995 O   0  0  0  0  0  0  0  0  0  0  0  0
    1.5232   -7.6869   27.1182 C   0  0  0  0  0  0  0  0  0  0  0  0
    8.6878   -6.6715   27.7262 N   0  0  0  0  0  0  0  0  0  0  0  0
    6.9911   -8.2423   27.1808 C   0  0  0  0  0  0  0  0  0  0  0  0
    3.8436   -7.2758   16.0578 C   0  0  0  0  0  0  0  0  0  0  0  0
    3.1882   -9.7190   17.2566 C   0  0  0  0  0  0  0  0  0  0  0  0
    5.3488   -6.1737   26.5092 C   0  0  0  0  0  0  0  0  0  0  0  0
    7.4567   -6.9464   27.2858 C   0  0  0  0  0  0  0  0  0  0  0  0
    0.1921   -5.7592   27.1123 C   0  0  0  0  0  0  0  0  0  0  0  0
    3.5517   -7.7407   25.9711 C   0  0  0  0  0  0  0  0  0  0  0  0
  1  4  4  0
  1 22  4  0
  2 20  4  0
  2 27  4  0
  3 12  4  0
  3 23  4  0
  4 25  4  0
  4 28  1  0
  5  8  4  0
  5 17  4  0
  6  7  4  0
  6 16  4  0
  7 18  4  0
  8 27  4  0
  9 13  4  0
  9 23  4  0
 10 11  1  0
 11 14  2  0
 11 27  1  0
 12 19  1  0
 12 24  4  0
 13 24  4  0
 15 18  1  0
 16 25  4  0
 16 26  4  0
 17 20  4  0
 17 28  1  0
 18 21  4  0
 21 26  4  0
 22 26  4  0
M  END
$$$$

 Created by Python create_sdf_string function

 28 30  0  0  0  0  0  0  0  0999 V2000
    5.7174   -8.4529   26.7190 C   0  0  0  0  0  0  0  0  0  0  0  0
    0.3974   -7.0711   27.5149 C   0  0  0  0  0  0  0  0  0  0  0  0
    2.5338   -7.6891   16.0102 C   0  0  0  0  0  0  0  0  0  0  0  0
    4.8690   -7.4380   26.4151 C   0  0  0  0  0  0  0  0  0  0  0  0
    2.3021   -5.6726   26.0378 C   0  0  0  0  0  0  0  0  0  0  0  0
    7.0880   -4.6163   27.0010 C   0  0  0  0  0  0  0  0  0  0  0  0
    8.3117   -4.3698   27.4436 C   0  0  0  0  0  0  0  0  0  0  0  0
    1.1339   -5.0515   26.3541 C   0  0  0  0  0  0  0  0  0  0  0  0
    4.8080   -8.0362   16.7101 C   0  0  0  0  0  0  0  0  0  0  0  0
   -1.2173   -3.9294   26.9717 O   0  0  0  0  0  0  0  0  0  0  0  0
   -1.0025   -5.0942   27.4586 C   0  0  0  0  0  0  0  0  0  0  0  0
    2.2474   -8.9123   16.6273 C   0  0  0  0  0  0  0  0  0  0  0  0
    4.4957   -9.2636   17.3041 C   0  0  0  0  0  0  0  0  0  0  0  0
   -1.8070   -5.6086   28.1920 O   0  0  0  0  0  0  0  0  0  0  0  0
   10.4296   -5.1799   28.3140 C   0  0  0  0  0  0  0  0  0  0  0  0
    6.6017   -5.9004   26.9187 C   0  0  0  0  0  0  0  0  0  0  0  0
    2.4761   -6.9940   26.4111 N   0  0  0  0  0  0  0  0  0  0  0  0
    9.1353   -5.4053   27.8239 C   0  0  0  0  0  0  0  0  0  0  0  0
    0.9922   -9.3232   16.5995 O   0  0  0  0  0  0  0  0  0  0  0  0
    1.5232   -7.6869   27.1182 C   0  0  0  0  0  0  0  0  0  0  0  0
    8.6878   -6.6715   27.7262 N   0  0  0  0  0  0  0  0  0  0  0  0
    6.9911   -8.2423   27.1808 C   0  0  0  0  0  0  0  0  0  0  0  0
    3.8436   -7.2758   16.0578 C   0  0  0  0  0  0  0  0  0  0  0  0
    3.1882   -9.7190   17.2566 C   0  0  0  0  0  0  0  0  0  0  0  0
    5.3488   -6.1737   26.5092 C   0  0  0  0  0  0  0  0  0  0  0  0
    7.4567   -6.9464   27.2858 C   0  0  0  0  0  0  0  0  0  0  0  0
    0.1921   -5.7592   27.1123 C   0  0  0  0  0  0  0  0  0  0  0  0
    3.5517   -7.7407   25.9711 C   0  0  0  0  0  0  0  0  0  0  0  0
  1  4  4  0
  1 22  4  0
  2 20  4  0
  2 27  4  0
  3 12  4  0
  3 23  4  0
  4 25  4  0
  4 28  1  0
  5  8  4  0
  5 17  4  0
  6  7  4  0
  6 16  4  0
  7 18  4  0
  8 27  4  0
  9 13  4  0
  9 23  4  0
 10 11  1  0
 11 14  2  0
 11 27  1  0
 12 19  1  0
 12 24  4  0
 13 24  4  0
 15 18  1  0
 16 25  4  0
 16 26  4  0
 17 20  4  0
 17 28  1  0
 18 21  4  0
 21 26  4  0
 22 26  4  0
M  END
$$$$

 Created by Python create_sdf_string function

 28 30  0  0  0  0  0  0  0  0999 V2000
    5.7174   -8.4529   26.7190 C   0  0  0  0  0  0  0  0  0  0  0  0
    0.3974   -7.0711   27.5149 C   0  0  0  0  0  0  0  0  0  0  0  0
    2.5338   -7.6891   16.0102 C   0  0  0  0  0  0  0  0  0  0  0  0
    4.8690   -7.4380   26.4151 C   0  0  0  0  0  0  0  0  0  0  0  0
    2.3021   -5.6726   26.0378 C   0  0  0  0  0  0  0  0  0  0  0  0
    7.0880   -4.6163   27.0010 C   0  0  0  0  0  0  0  0  0  0  0  0
    8.3117   -4.3698   27.4436 C   0  0  0  0  0  0  0  0  0  0  0  0
    1.1339   -5.0515   26.3541 C   0  0  0  0  0  0  0  0  0  0  0  0
    4.8080   -8.0362   16.7101 C   0  0  0  0  0  0  0  0  0  0  0  0
   -1.2173   -3.9294   26.9717 O   0  0  0  0  0  0  0  0  0  0  0  0
   -1.0025   -5.0942   27.4586 C   0  0  0  0  0  0  0  0  0  0  0  0
    2.2474   -8.9123   16.6273 C   0  0  0  0  0  0  0  0  0  0  0  0
    4.4957   -9.2636   17.3041 C   0  0  0  0  0  0  0  0  0  0  0  0
   -1.8070   -5.6086   28.1920 O   0  0  0  0  0  0  0  0  0  0  0  0
   10.4296   -5.1799   28.3140 C   0  0  0  0  0  0  0  0  0  0  0  0
    6.6017   -5.9004   26.9187 C   0  0  0  0  0  0  0  0  0  0  0  0
    2.4761   -6.9940   26.4111 N   0  0  0  0  0  0  0  0  0  0  0  0
    9.1353   -5.4053   27.8239 C   0  0  0  0  0  0  0  0  0  0  0  0
    0.9922   -9.3232   16.5995 O   0  0  0  0  0  0  0  0  0  0  0  0
    1.5232   -7.6869   27.1182 C   0  0  0  0  0  0  0  0  0  0  0  0
    8.6878   -6.6715   27.7262 N   0  0  0  0  0  0  0  0  0  0  0  0
    6.9911   -8.2423   27.1808 C   0  0  0  0  0  0  0  0  0  0  0  0
    3.8436   -7.2758   16.0578 C   0  0  0  0  0  0  0  0  0  0  0  0
    3.1882   -9.7190   17.2566 C   0  0  0  0  0  0  0  0  0  0  0  0
    5.3488   -6.1737   26.5092 C   0  0  0  0  0  0  0  0  0  0  0  0
    7.4567   -6.9464   27.2858 C   0  0  0  0  0  0  0  0  0  0  0  0
    0.1921   -5.7592   27.1123 C   0  0  0  0  0  0  0  0  0  0  0  0
    3.5517   -7.7407   25.9711 C   0  0  0  0  0  0  0  0  0  0  0  0
  1  4  4  0
  1 22  4  0
  2 20  4  0
  2 27  4  0
  3 12  4  0
  3 23  4  0
  4 25  4  0
  4 28  1  0
  5  8  4  0
  5 17  4  0
  6  7  4  0
  6 16  4  0
  7 18  4  0
  8 27  4  0
  9 13  4  0
  9 23  4  0
 10 11  1  0
 11 14  2  0
 11 27  1  0
 12 19  1  0
 12 24  4  0
 13 24  4  0
 15 18  1  0
 16 25  4  0
 16 26  4  0
 17 20  4  0
 17 28  1  0
 18 21  4  0
 21 26  4  0
 22 26  4  0
M  END
$$$$

 Created by Python create_sdf_string function

 28 30  0  0  0  0  0  0  0  0999 V2000
    5.7174   -8.4529   26.7190 C   0  0  0  0  0  0  0  0  0  0  0  0
    0.3974   -7.0711   27.5149 C   0  0  0  0  0  0  0  0  0  0  0  0
    2.5338   -7.6891   16.0102 C   0  0  0  0  0  0  0  0  0  0  0  0
    4.8690   -7.4380   26.4151 C   0  0  0  0  0  0  0  0  0  0  0  0
    2.3021   -5.6726   26.0378 C   0  0  0  0  0  0  0  0  0  0  0  0
    7.0880   -4.6163   27.0010 C   0  0  0  0  0  0  0  0  0  0  0  0
    8.3117   -4.3698   27.4436 C   0  0  0  0  0  0  0  0  0  0  0  0
    1.1339   -5.0515   26.3541 C   0  0  0  0  0  0  0  0  0  0  0  0
    4.8080   -8.0362   16.7101 C   0  0  0  0  0  0  0  0  0  0  0  0
   -1.2173   -3.9294   26.9717 O   0  0  0  0  0  0  0  0  0  0  0  0
   -1.0025   -5.0942   27.4586 C   0  0  0  0  0  0  0  0  0  0  0  0
    2.2474   -8.9123   16.6273 C   0  0  0  0  0  0  0  0  0  0  0  0
    4.4957   -9.2636   17.3041 C   0  0  0  0  0  0  0  0  0  0  0  0
   -1.8070   -5.6086   28.1920 O   0  0  0  0  0  0  0  0  0  0  0  0
   10.4296   -5.1799   28.3140 C   0  0  0  0  0  0  0  0  0  0  0  0
    6.6017   -5.9004   26.9187 C   0  0  0  0  0  0  0  0  0  0  0  0
    2.4761   -6.9940   26.4111 N   0  0  0  0  0  0  0  0  0  0  0  0
    9.1353   -5.4053   27.8239 C   0  0  0  0  0  0  0  0  0  0  0  0
    0.9922   -9.3232   16.5995 O   0  0  0  0  0  0  0  0  0  0  0  0
    1.5232   -7.6869   27.1182 C   0  0  0  0  0  0  0  0  0  0  0  0
    8.6878   -6.6715   27.7262 N   0  0  0  0  0  0  0  0  0  0  0  0
    6.9911   -8.2423   27.1808 C   0  0  0  0  0  0  0  0  0  0  0  0
    3.8436   -7.2758   16.0578 C   0  0  0  0  0  0  0  0  0  0  0  0
    3.1882   -9.7190   17.2566 C   0  0  0  0  0  0  0  0  0  0  0  0
    5.3488   -6.1737   26.5092 C   0  0  0  0  0  0  0  0  0  0  0  0
    7.4567   -6.9464   27.2858 C   0  0  0  0  0  0  0  0  0  0  0  0
    0.1921   -5.7592   27.1123 C   0  0  0  0  0  0  0  0  0  0  0  0
    3.5517   -7.7407   25.9711 C   0  0  0  0  0  0  0  0  0  0  0  0
  1  4  4  0
  1 22  4  0
  2 20  4  0
  2 27  4  0
  3 12  4  0
  3 23  4  0
  4 25  4  0
  4 28  1  0
  5  8  4  0
  5 17  4  0
  6  7  4  0
  6 16  4  0
  7 18  4  0
  8 27  4  0
  9 13  4  0
  9 23  4  0
 10 11  1  0
 11 14  2  0
 11 27  1  0
 12 19  1  0
 12 24  4  0
 13 24  4  0
 15 18  1  0
 16 25  4  0
 16 26  4  0
 17 20  4  0
 17 28  1  0
 18 21  4  0
 21 26  4  0
 22 26  4  0
M  END
$$$$

 Created by Python create_sdf_string function

 28 30  0  0  0  0  0  0  0  0999 V2000
    5.7174   -8.4529   26.7190 C   0  0  0  0  0  0  0  0  0  0  0  0
    0.3974   -7.0711   27.5149 C   0  0  0  0  0  0  0  0  0  0  0  0
    2.5338   -7.6891   16.0102 C   0  0  0  0  0  0  0  0  0  0  0  0
    4.8690   -7.4380   26.4151 C   0  0  0  0  0  0  0  0  0  0  0  0
    2.3021   -5.6726   26.0378 C   0  0  0  0  0  0  0  0  0  0  0  0
    7.0880   -4.6163   27.0010 C   0  0  0  0  0  0  0  0  0  0  0  0
    8.3117   -4.3698   27.4436 C   0  0  0  0  0  0  0  0  0  0  0  0
    1.1339   -5.0515   26.3541 C   0  0  0  0  0  0  0  0  0  0  0  0
    4.8080   -8.0362   16.7101 C   0  0  0  0  0  0  0  0  0  0  0  0
   -1.2173   -3.9294   26.9717 O   0  0  0  0  0  0  0  0  0  0  0  0
   -1.0025   -5.0942   27.4586 C   0  0  0  0  0  0  0  0  0  0  0  0
    2.2474   -8.9123   16.6273 C   0  0  0  0  0  0  0  0  0  0  0  0
    4.4957   -9.2636   17.3041 C   0  0  0  0  0  0  0  0  0  0  0  0
   -1.8070   -5.6086   28.1920 O   0  0  0  0  0  0  0  0  0  0  0  0
   10.4296   -5.1799   28.3140 C   0  0  0  0  0  0  0  0  0  0  0  0
    6.6017   -5.9004   26.9187 C   0  0  0  0  0  0  0  0  0  0  0  0
    2.4761   -6.9940   26.4111 N   0  0  0  0  0  0  0  0  0  0  0  0
    9.1353   -5.4053   27.8239 C   0  0  0  0  0  0  0  0  0  0  0  0
    0.9922   -9.3232   16.5995 O   0  0  0  0  0  0  0  0  0  0  0  0
    1.5232   -7.6869   27.1182 C   0  0  0  0  0  0  0  0  0  0  0  0
    8.6878   -6.6715   27.7262 N   0  0  0  0  0  0  0  0  0  0  0  0
    6.9911   -8.2423   27.1808 C   0  0  0  0  0  0  0  0  0  0  0  0
    3.8436   -7.2758   16.0578 C   0  0  0  0  0  0  0  0  0  0  0  0
    3.1882   -9.7190   17.2566 C   0  0  0  0  0  0  0  0  0  0  0  0
    5.3488   -6.1737   26.5092 C   0  0  0  0  0  0  0  0  0  0  0  0
    7.4567   -6.9464   27.2858 C   0  0  0  0  0  0  0  0  0  0  0  0
    0.1921   -5.7592   27.1123 C   0  0  0  0  0  0  0  0  0  0  0  0
    3.5517   -7.7407   25.9711 C   0  0  0  0  0  0  0  0  0  0  0  0
  1  4  4  0
  1 22  4  0
  2 20  4  0
  2 27  4  0
  3 12  4  0
  3 23  4  0
  4 25  4  0
  4 28  1  0
  5  8  4  0
  5 17  4  0
  6  7  4  0
  6 16  4  0
  7 18  4  0
  8 27  4  0
  9 13  4  0
  9 23  4  0
 10 11  1  0
 11 14  2  0
 11 27  1  0
 12 19  1  0
 12 24  4  0
 13 24  4  0
 15 18  1  0
 16 25  4  0
 16 26  4  0
 17 20  4  0
 17 28  1  0
 18 21  4  0
 21 26  4  0
 22 26  4  0
M  END
$$$$

 Created by Python create_sdf_string function

 28 30  0  0  0  0  0  0  0  0999 V2000
    5.7174   -8.4529   26.7190 C   0  0  0  0  0  0  0  0  0  0  0  0
    0.3974   -7.0711   27.5149 C   0  0  0  0  0  0  0  0  0  0  0  0
    2.5338   -7.6891   16.0102 C   0  0  0  0  0  0  0  0  0  0  0  0
    4.8690   -7.4380   26.4151 C   0  0  0  0  0  0  0  0  0  0  0  0
    2.3021   -5.6726   26.0378 C   0  0  0  0  0  0  0  0  0  0  0  0
    7.0880   -4.6163   27.0010 C   0  0  0  0  0  0  0  0  0  0  0  0
    8.3117   -4.3698   27.4436 C   0  0  0  0  0  0  0  0  0  0  0  0
    1.1339   -5.0515   26.3541 C   0  0  0  0  0  0  0  0  0  0  0  0
    4.8080   -8.0362   16.7101 C   0  0  0  0  0  0  0  0  0  0  0  0
   -1.2173   -3.9294   26.9717 O   0  0  0  0  0  0  0  0  0  0  0  0
   -1.0025   -5.0942   27.4586 C   0  0  0  0  0  0  0  0  0  0  0  0
    2.2474   -8.9123   16.6273 C   0  0  0  0  0  0  0  0  0  0  0  0
    4.4957   -9.2636   17.3041 C   0  0  0  0  0  0  0  0  0  0  0  0
   -1.8070   -5.6086   28.1920 O   0  0  0  0  0  0  0  0  0  0  0  0
   10.4296   -5.1799   28.3140 C   0  0  0  0  0  0  0  0  0  0  0  0
    6.6017   -5.9004   26.9187 C   0  0  0  0  0  0  0  0  0  0  0  0
    2.4761   -6.9940   26.4111 N   0  0  0  0  0  0  0  0  0  0  0  0
    9.1353   -5.4053   27.8239 C   0  0  0  0  0  0  0  0  0  0  0  0
    0.9922   -9.3232   16.5995 O   0  0  0  0  0  0  0  0  0  0  0  0
    1.5232   -7.6869   27.1182 C   0  0  0  0  0  0  0  0  0  0  0  0
    8.6878   -6.6715   27.7262 N   0  0  0  0  0  0  0  0  0  0  0  0
    6.9911   -8.2423   27.1808 C   0  0  0  0  0  0  0  0  0  0  0  0
    3.8436   -7.2758   16.0578 C   0  0  0  0  0  0  0  0  0  0  0  0
    3.1882   -9.7190   17.2566 C   0  0  0  0  0  0  0  0  0  0  0  0
    5.3488   -6.1737   26.5092 C   0  0  0  0  0  0  0  0  0  0  0  0
    7.4567   -6.9464   27.2858 C   0  0  0  0  0  0  0  0  0  0  0  0
    0.1921   -5.7592   27.1123 C   0  0  0  0  0  0  0  0  0  0  0  0
    3.5517   -7.7407   25.9711 C   0  0  0  0  0  0  0  0  0  0  0  0
  1  4  4  0
  1 22  4  0
  2 20  4  0
  2 27  4  0
  3 12  4  0
  3 23  4  0
  4 25  4  0
  4 28  1  0
  5  8  4  0
  5 17  4  0
  6  7  4  0
  6 16  4  0
  7 18  4  0
  8 27  4  0
  9 13  4  0
  9 23  4  0
 10 11  1  0
 11 14  2  0
 11 27  1  0
 12 19  1  0
 12 24  4  0
 13 24  4  0
 15 18  1  0
 16 25  4  0
 16 26  4  0
 17 20  4  0
 17 28  1  0
 18 21  4  0
 21 26  4  0
 22 26  4  0
M  END
$$$$

 Created by Python create_sdf_string function

 28 30  0  0  0  0  0  0  0  0999 V2000
    5.7174   -8.4529   26.7190 C   0  0  0  0  0  0  0  0  0  0  0  0
    0.3974   -7.0711   27.5149 C   0  0  0  0  0  0  0  0  0  0  0  0
    2.5338   -7.6891   16.0102 C   0  0  0  0  0  0  0  0  0  0  0  0
    4.8690   -7.4380   26.4151 C   0  0  0  0  0  0  0  0  0  0  0  0
    2.3021   -5.6726   26.0378 C   0  0  0  0  0  0  0  0  0  0  0  0
    7.0880   -4.6163   27.0010 C   0  0  0  0  0  0  0  0  0  0  0  0
    8.3117   -4.3698   27.4436 C   0  0  0  0  0  0  0  0  0  0  0  0
    1.1339   -5.0515   26.3541 C   0  0  0  0  0  0  0  0  0  0  0  0
    4.8080   -8.0362   16.7101 C   0  0  0  0  0  0  0  0  0  0  0  0
   -1.2173   -3.9294   26.9717 O   0  0  0  0  0  0  0  0  0  0  0  0
   -1.0025   -5.0942   27.4586 C   0  0  0  0  0  0  0  0  0  0  0  0
    2.2474   -8.9123   16.6273 C   0  0  0  0  0  0  0  0  0  0  0  0
    4.4957   -9.2636   17.3041 C   0  0  0  0  0  0  0  0  0  0  0  0
   -1.8070   -5.6086   28.1920 O   0  0  0  0  0  0  0  0  0  0  0  0
   10.4296   -5.1799   28.3140 C   0  0  0  0  0  0  0  0  0  0  0  0
    6.6017   -5.9004   26.9187 C   0  0  0  0  0  0  0  0  0  0  0  0
    2.4761   -6.9940   26.4111 N   0  0  0  0  0  0  0  0  0  0  0  0
    9.1353   -5.4053   27.8239 C   0  0  0  0  0  0  0  0  0  0  0  0
    0.9922   -9.3232   16.5995 O   0  0  0  0  0  0  0  0  0  0  0  0
    1.5232   -7.6869   27.1182 C   0  0  0  0  0  0  0  0  0  0  0  0
    8.6878   -6.6715   27.7262 N   0  0  0  0  0  0  0  0  0  0  0  0
    6.9911   -8.2423   27.1808 C   0  0  0  0  0  0  0  0  0  0  0  0
    3.8436   -7.2758   16.0578 C   0  0  0  0  0  0  0  0  0  0  0  0
    3.1882   -9.7190   17.2566 C   0  0  0  0  0  0  0  0  0  0  0  0
    5.3488   -6.1737   26.5092 C   0  0  0  0  0  0  0  0  0  0  0  0
    7.4567   -6.9464   27.2858 C   0  0  0  0  0  0  0  0  0  0  0  0
    0.1921   -5.7592   27.1123 C   0  0  0  0  0  0  0  0  0  0  0  0
    3.5517   -7.7407   25.9711 C   0  0  0  0  0  0  0  0  0  0  0  0
  1  4  4  0
  1 22  4  0
  2 20  4  0
  2 27  4  0
  3 12  4  0
  3 23  4  0
  4 25  4  0
  4 28  1  0
  5  8  4  0
  5 17  4  0
  6  7  4  0
  6 16  4  0
  7 18  4  0
  8 27  4  0
  9 13  4  0
  9 23  4  0
 10 11  1  0
 11 14  2  0
 11 27  1  0
 12 19  1  0
 12 24  4  0
 13 24  4  0
 15 18  1  0
 16 25  4  0
 16 26  4  0
 17 20  4  0
 17 28  1  0
 18 21  4  0
 21 26  4  0
 22 26  4  0
M  END
$$$$

 Created by Python create_sdf_string function

 28 30  0  0  0  0  0  0  0  0999 V2000
    5.7174   -8.4529   26.7190 C   0  0  0  0  0  0  0  0  0  0  0  0
    0.3974   -7.0711   27.5149 C   0  0  0  0  0  0  0  0  0  0  0  0
    2.5338   -7.6891   16.0102 C   0  0  0  0  0  0  0  0  0  0  0  0
    4.8690   -7.4380   26.4151 C   0  0  0  0  0  0  0  0  0  0  0  0
    2.3021   -5.6726   26.0378 C   0  0  0  0  0  0  0  0  0  0  0  0
    7.0880   -4.6163   27.0010 C   0  0  0  0  0  0  0  0  0  0  0  0
    8.3117   -4.3698   27.4436 C   0  0  0  0  0  0  0  0  0  0  0  0
    1.1339   -5.0515   26.3541 C   0  0  0  0  0  0  0  0  0  0  0  0
    4.8080   -8.0362   16.7101 C   0  0  0  0  0  0  0  0  0  0  0  0
   -1.2173   -3.9294   26.9717 O   0  0  0  0  0  0  0  0  0  0  0  0
   -1.0025   -5.0942   27.4586 C   0  0  0  0  0  0  0  0  0  0  0  0
    2.2474   -8.9123   16.6273 C   0  0  0  0  0  0  0  0  0  0  0  0
    4.4957   -9.2636   17.3041 C   0  0  0  0  0  0  0  0  0  0  0  0
   -1.8070   -5.6086   28.1920 O   0  0  0  0  0  0  0  0  0  0  0  0
   10.4296   -5.1799   28.3140 C   0  0  0  0  0  0  0  0  0  0  0  0
    6.6017   -5.9004   26.9187 C   0  0  0  0  0  0  0  0  0  0  0  0
    2.4761   -6.9940   26.4111 N   0  0  0  0  0  0  0  0  0  0  0  0
    9.1353   -5.4053   27.8239 C   0  0  0  0  0  0  0  0  0  0  0  0
    0.9922   -9.3232   16.5995 O   0  0  0  0  0  0  0  0  0  0  0  0
    1.5232   -7.6869   27.1182 C   0  0  0  0  0  0  0  0  0  0  0  0
    8.6878   -6.6715   27.7262 N   0  0  0  0  0  0  0  0  0  0  0  0
    6.9911   -8.2423   27.1808 C   0  0  0  0  0  0  0  0  0  0  0  0
    3.8436   -7.2758   16.0578 C   0  0  0  0  0  0  0  0  0  0  0  0
    3.1882   -9.7190   17.2566 C   0  0  0  0  0  0  0  0  0  0  0  0
    5.3488   -6.1737   26.5092 C   0  0  0  0  0  0  0  0  0  0  0  0
    7.4567   -6.9464   27.2858 C   0  0  0  0  0  0  0  0  0  0  0  0
    0.1921   -5.7592   27.1123 C   0  0  0  0  0  0  0  0  0  0  0  0
    3.5517   -7.7407   25.9711 C   0  0  0  0  0  0  0  0  0  0  0  0
  1  4  4  0
  1 22  4  0
  2 20  4  0
  2 27  4  0
  3 12  4  0
  3 23  4  0
  4 25  4  0
  4 28  1  0
  5  8  4  0
  5 17  4  0
  6  7  4  0
  6 16  4  0
  7 18  4  0
  8 27  4  0
  9 13  4  0
  9 23  4  0
 10 11  1  0
 11 14  2  0
 11 27  1  0
 12 19  1  0
 12 24  4  0
 13 24  4  0
 15 18  1  0
 16 25  4  0
 16 26  4  0
 17 20  4  0
 17 28  1  0
 18 21  4  0
 21 26  4  0
 22 26  4  0
M  END
$$$$

 Created by Python create_sdf_string function

 28 30  0  0  0  0  0  0  0  0999 V2000
    5.7174   -8.4529   26.7190 C   0  0  0  0  0  0  0  0  0  0  0  0
    0.3974   -7.0711   27.5149 C   0  0  0  0  0  0  0  0  0  0  0  0
    2.5338   -7.6891   16.0102 C   0  0  0  0  0  0  0  0  0  0  0  0
    4.8690   -7.4380   26.4151 C   0  0  0  0  0  0  0  0  0  0  0  0
    2.3021   -5.6726   26.0378 C   0  0  0  0  0  0  0  0  0  0  0  0
    7.0880   -4.6163   27.0010 C   0  0  0  0  0  0  0  0  0  0  0  0
    8.3117   -4.3698   27.4436 C   0  0  0  0  0  0  0  0  0  0  0  0
    1.1339   -5.0515   26.3541 C   0  0  0  0  0  0  0  0  0  0  0  0
    4.8080   -8.0362   16.7101 C   0  0  0  0  0  0  0  0  0  0  0  0
   -1.2173   -3.9294   26.9717 O   0  0  0  0  0  0  0  0  0  0  0  0
   -1.0025   -5.0942   27.4586 C   0  0  0  0  0  0  0  0  0  0  0  0
    2.2474   -8.9123   16.6273 C   0  0  0  0  0  0  0  0  0  0  0  0
    4.4957   -9.2636   17.3041 C   0  0  0  0  0  0  0  0  0  0  0  0
   -1.8070   -5.6086   28.1920 O   0  0  0  0  0  0  0  0  0  0  0  0
   10.4296   -5.1799   28.3140 C   0  0  0  0  0  0  0  0  0  0  0  0
    6.6017   -5.9004   26.9187 C   0  0  0  0  0  0  0  0  0  0  0  0
    2.4761   -6.9940   26.4111 N   0  0  0  0  0  0  0  0  0  0  0  0
    9.1353   -5.4053   27.8239 C   0  0  0  0  0  0  0  0  0  0  0  0
    0.9922   -9.3232   16.5995 O   0  0  0  0  0  0  0  0  0  0  0  0
    1.5232   -7.6869   27.1182 C   0  0  0  0  0  0  0  0  0  0  0  0
    8.6878   -6.6715   27.7262 N   0  0  0  0  0  0  0  0  0  0  0  0
    6.9911   -8.2423   27.1808 C   0  0  0  0  0  0  0  0  0  0  0  0
    3.8436   -7.2758   16.0578 C   0  0  0  0  0  0  0  0  0  0  0  0
    3.1882   -9.7190   17.2566 C   0  0  0  0  0  0  0  0  0  0  0  0
    5.3488   -6.1737   26.5092 C   0  0  0  0  0  0  0  0  0  0  0  0
    7.4567   -6.9464   27.2858 C   0  0  0  0  0  0  0  0  0  0  0  0
    0.1921   -5.7592   27.1123 C   0  0  0  0  0  0  0  0  0  0  0  0
    3.5517   -7.7407   25.9711 C   0  0  0  0  0  0  0  0  0  0  0  0
  1  4  4  0
  1 22  4  0
  2 20  4  0
  2 27  4  0
  3 12  4  0
  3 23  4  0
  4 25  4  0
  4 28  1  0
  5  8  4  0
  5 17  4  0
  6  7  4  0
  6 16  4  0
  7 18  4  0
  8 27  4  0
  9 13  4  0
  9 23  4  0
 10 11  1  0
 11 14  2  0
 11 27  1  0
 12 19  1  0
 12 24  4  0
 13 24  4  0
 15 18  1  0
 16 25  4  0
 16 26  4  0
 17 20  4  0
 17 28  1  0
 18 21  4  0
 21 26  4  0
 22 26  4  0
M  END
$$$$

 Created by Python create_sdf_string function

 28 30  0  0  0  0  0  0  0  0999 V2000
    5.7174   -8.4529   26.7190 C   0  0  0  0  0  0  0  0  0  0  0  0
    0.3974   -7.0711   27.5149 C   0  0  0  0  0  0  0  0  0  0  0  0
    2.5338   -7.6891   16.0102 C   0  0  0  0  0  0  0  0  0  0  0  0
    4.8690   -7.4380   26.4151 C   0  0  0  0  0  0  0  0  0  0  0  0
    2.3021   -5.6726   26.0378 C   0  0  0  0  0  0  0  0  0  0  0  0
    7.0880   -4.6163   27.0010 C   0  0  0  0  0  0  0  0  0  0  0  0
    8.3117   -4.3698   27.4436 C   0  0  0  0  0  0  0  0  0  0  0  0
    1.1339   -5.0515   26.3541 C   0  0  0  0  0  0  0  0  0  0  0  0
    4.8080   -8.0362   16.7101 C   0  0  0  0  0  0  0  0  0  0  0  0
   -1.2173   -3.9294   26.9717 O   0  0  0  0  0  0  0  0  0  0  0  0
   -1.0025   -5.0942   27.4586 C   0  0  0  0  0  0  0  0  0  0  0  0
    2.2474   -8.9123   16.6273 C   0  0  0  0  0  0  0  0  0  0  0  0
    4.4957   -9.2636   17.3041 C   0  0  0  0  0  0  0  0  0  0  0  0
   -1.8070   -5.6086   28.1920 O   0  0  0  0  0  0  0  0  0  0  0  0
   10.4296   -5.1799   28.3140 C   0  0  0  0  0  0  0  0  0  0  0  0
    6.6017   -5.9004   26.9187 C   0  0  0  0  0  0  0  0  0  0  0  0
    2.4761   -6.9940   26.4111 N   0  0  0  0  0  0  0  0  0  0  0  0
    9.1353   -5.4053   27.8239 C   0  0  0  0  0  0  0  0  0  0  0  0
    0.9922   -9.3232   16.5995 O   0  0  0  0  0  0  0  0  0  0  0  0
    1.5232   -7.6869   27.1182 C   0  0  0  0  0  0  0  0  0  0  0  0
    8.6878   -6.6715   27.7262 N   0  0  0  0  0  0  0  0  0  0  0  0
    6.9911   -8.2423   27.1808 C   0  0  0  0  0  0  0  0  0  0  0  0
    3.8436   -7.2758   16.0578 C   0  0  0  0  0  0  0  0  0  0  0  0
    3.1882   -9.7190   17.2566 C   0  0  0  0  0  0  0  0  0  0  0  0
    5.3488   -6.1737   26.5092 C   0  0  0  0  0  0  0  0  0  0  0  0
    7.4567   -6.9464   27.2858 C   0  0  0  0  0  0  0  0  0  0  0  0
    0.1921   -5.7592   27.1123 C   0  0  0  0  0  0  0  0  0  0  0  0
    3.5517   -7.7407   25.9711 C   0  0  0  0  0  0  0  0  0  0  0  0
  1  4  4  0
  1 22  4  0
  2 20  4  0
  2 27  4  0
  3 12  4  0
  3 23  4  0
  4 25  4  0
  4 28  1  0
  5  8  4  0
  5 17  4  0
  6  7  4  0
  6 16  4  0
  7 18  4  0
  8 27  4  0
  9 13  4  0
  9 23  4  0
 10 11  1  0
 11 14  2  0
 11 27  1  0
 12 19  1  0
 12 24  4  0
 13 24  4  0
 15 18  1  0
 16 25  4  0
 16 26  4  0
 17 20  4  0
 17 28  1  0
 18 21  4  0
 21 26  4  0
 22 26  4  0
M  END
$$$$

 Created by Python create_sdf_string function

 28 30  0  0  0  0  0  0  0  0999 V2000
    5.7174   -8.4529   26.7190 C   0  0  0  0  0  0  0  0  0  0  0  0
    0.3974   -7.0711   27.5149 C   0  0  0  0  0  0  0  0  0  0  0  0
    2.5338   -7.6891   16.0102 C   0  0  0  0  0  0  0  0  0  0  0  0
    4.8690   -7.4380   26.4151 C   0  0  0  0  0  0  0  0  0  0  0  0
    2.3021   -5.6726   26.0378 C   0  0  0  0  0  0  0  0  0  0  0  0
    7.0880   -4.6163   27.0010 C   0  0  0  0  0  0  0  0  0  0  0  0
    8.3117   -4.3698   27.4436 C   0  0  0  0  0  0  0  0  0  0  0  0
    1.1339   -5.0515   26.3541 C   0  0  0  0  0  0  0  0  0  0  0  0
    4.8080   -8.0362   16.7101 C   0  0  0  0  0  0  0  0  0  0  0  0
   -1.2173   -3.9294   26.9717 O   0  0  0  0  0  0  0  0  0  0  0  0
   -1.0025   -5.0942   27.4586 C   0  0  0  0  0  0  0  0  0  0  0  0
    2.2474   -8.9123   16.6273 C   0  0  0  0  0  0  0  0  0  0  0  0
    4.4957   -9.2636   17.3041 C   0  0  0  0  0  0  0  0  0  0  0  0
   -1.8070   -5.6086   28.1920 O   0  0  0  0  0  0  0  0  0  0  0  0
   10.4296   -5.1799   28.3140 C   0  0  0  0  0  0  0  0  0  0  0  0
    6.6017   -5.9004   26.9187 C   0  0  0  0  0  0  0  0  0  0  0  0
    2.4761   -6.9940   26.4111 N   0  0  0  0  0  0  0  0  0  0  0  0
    9.1353   -5.4053   27.8239 C   0  0  0  0  0  0  0  0  0  0  0  0
    0.9922   -9.3232   16.5995 O   0  0  0  0  0  0  0  0  0  0  0  0
    1.5232   -7.6869   27.1182 C   0  0  0  0  0  0  0  0  0  0  0  0
    8.6878   -6.6715   27.7262 N   0  0  0  0  0  0  0  0  0  0  0  0
    6.9911   -8.2423   27.1808 C   0  0  0  0  0  0  0  0  0  0  0  0
    3.8436   -7.2758   16.0578 C   0  0  0  0  0  0  0  0  0  0  0  0
    3.1882   -9.7190   17.2566 C   0  0  0  0  0  0  0  0  0  0  0  0
    5.3488   -6.1737   26.5092 C   0  0  0  0  0  0  0  0  0  0  0  0
    7.4567   -6.9464   27.2858 C   0  0  0  0  0  0  0  0  0  0  0  0
    0.1921   -5.7592   27.1123 C   0  0  0  0  0  0  0  0  0  0  0  0
    3.5517   -7.7407   25.9711 C   0  0  0  0  0  0  0  0  0  0  0  0
  1  4  4  0
  1 22  4  0
  2 20  4  0
  2 27  4  0
  3 12  4  0
  3 23  4  0
  4 25  4  0
  4 28  1  0
  5  8  4  0
  5 17  4  0
  6  7  4  0
  6 16  4  0
  7 18  4  0
  8 27  4  0
  9 13  4  0
  9 23  4  0
 10 11  1  0
 11 14  2  0
 11 27  1  0
 12 19  1  0
 12 24  4  0
 13 24  4  0
 15 18  1  0
 16 25  4  0
 16 26  4  0
 17 20  4  0
 17 28  1  0
 18 21  4  0
 21 26  4  0
 22 26  4  0
M  END
$$$$

 Created by Python create_sdf_string function

 28 30  0  0  0  0  0  0  0  0999 V2000
    5.7174   -8.4529   26.7190 C   0  0  0  0  0  0  0  0  0  0  0  0
    0.3974   -7.0711   27.5149 C   0  0  0  0  0  0  0  0  0  0  0  0
    2.5338   -7.6891   16.0102 C   0  0  0  0  0  0  0  0  0  0  0  0
    4.8690   -7.4380   26.4151 C   0  0  0  0  0  0  0  0  0  0  0  0
    2.3021   -5.6726   26.0378 C   0  0  0  0  0  0  0  0  0  0  0  0
    7.0880   -4.6163   27.0010 C   0  0  0  0  0  0  0  0  0  0  0  0
    8.3117   -4.3698   27.4436 C   0  0  0  0  0  0  0  0  0  0  0  0
    1.1339   -5.0515   26.3541 C   0  0  0  0  0  0  0  0  0  0  0  0
    4.8080   -8.0362   16.7101 C   0  0  0  0  0  0  0  0  0  0  0  0
   -1.2173   -3.9294   26.9717 O   0  0  0  0  0  0  0  0  0  0  0  0
   -1.0025   -5.0942   27.4586 C   0  0  0  0  0  0  0  0  0  0  0  0
    2.2474   -8.9123   16.6273 C   0  0  0  0  0  0  0  0  0  0  0  0
    4.4957   -9.2636   17.3041 C   0  0  0  0  0  0  0  0  0  0  0  0
   -1.8070   -5.6086   28.1920 O   0  0  0  0  0  0  0  0  0  0  0  0
   10.4296   -5.1799   28.3140 C   0  0  0  0  0  0  0  0  0  0  0  0
    6.6017   -5.9004   26.9187 C   0  0  0  0  0  0  0  0  0  0  0  0
    2.4761   -6.9940   26.4111 N   0  0  0  0  0  0  0  0  0  0  0  0
    9.1353   -5.4053   27.8239 C   0  0  0  0  0  0  0  0  0  0  0  0
    0.9922   -9.3232   16.5995 O   0  0  0  0  0  0  0  0  0  0  0  0
    1.5232   -7.6869   27.1182 C   0  0  0  0  0  0  0  0  0  0  0  0
    8.6878   -6.6715   27.7262 N   0  0  0  0  0  0  0  0  0  0  0  0
    6.9911   -8.2423   27.1808 C   0  0  0  0  0  0  0  0  0  0  0  0
    3.8436   -7.2758   16.0578 C   0  0  0  0  0  0  0  0  0  0  0  0
    3.1882   -9.7190   17.2566 C   0  0  0  0  0  0  0  0  0  0  0  0
    5.3488   -6.1737   26.5092 C   0  0  0  0  0  0  0  0  0  0  0  0
    7.4567   -6.9464   27.2858 C   0  0  0  0  0  0  0  0  0  0  0  0
    0.1921   -5.7592   27.1123 C   0  0  0  0  0  0  0  0  0  0  0  0
    3.5517   -7.7407   25.9711 C   0  0  0  0  0  0  0  0  0  0  0  0
  1  4  4  0
  1 22  4  0
  2 20  4  0
  2 27  4  0
  3 12  4  0
  3 23  4  0
  4 25  4  0
  4 28  1  0
  5  8  4  0
  5 17  4  0
  6  7  4  0
  6 16  4  0
  7 18  4  0
  8 27  4  0
  9 13  4  0
  9 23  4  0
 10 11  1  0
 11 14  2  0
 11 27  1  0
 12 19  1  0
 12 24  4  0
 13 24  4  0
 15 18  1  0
 16 25  4  0
 16 26  4  0
 17 20  4  0
 17 28  1  0
 18 21  4  0
 21 26  4  0
 22 26  4  0
M  END
$$$$

 Created by Python create_sdf_string function

 28 30  0  0  0  0  0  0  0  0999 V2000
    5.7174   -8.4529   26.7190 C   0  0  0  0  0  0  0  0  0  0  0  0
    0.3974   -7.0711   27.5149 C   0  0  0  0  0  0  0  0  0  0  0  0
    2.5338   -7.6891   16.0102 C   0  0  0  0  0  0  0  0  0  0  0  0
    4.8690   -7.4380   26.4151 C   0  0  0  0  0  0  0  0  0  0  0  0
    2.3021   -5.6726   26.0378 C   0  0  0  0  0  0  0  0  0  0  0  0
    7.0880   -4.6163   27.0010 C   0  0  0  0  0  0  0  0  0  0  0  0
    8.3117   -4.3698   27.4436 C   0  0  0  0  0  0  0  0  0  0  0  0
    1.1339   -5.0515   26.3541 C   0  0  0  0  0  0  0  0  0  0  0  0
    4.8080   -8.0362   16.7101 C   0  0  0  0  0  0  0  0  0  0  0  0
   -1.2173   -3.9294   26.9717 O   0  0  0  0  0  0  0  0  0  0  0  0
   -1.0025   -5.0942   27.4586 C   0  0  0  0  0  0  0  0  0  0  0  0
    2.2474   -8.9123   16.6273 C   0  0  0  0  0  0  0  0  0  0  0  0
    4.4957   -9.2636   17.3041 C   0  0  0  0  0  0  0  0  0  0  0  0
   -1.8070   -5.6086   28.1920 O   0  0  0  0  0  0  0  0  0  0  0  0
   10.4296   -5.1799   28.3140 C   0  0  0  0  0  0  0  0  0  0  0  0
    6.6017   -5.9004   26.9187 C   0  0  0  0  0  0  0  0  0  0  0  0
    2.4761   -6.9940   26.4111 N   0  0  0  0  0  0  0  0  0  0  0  0
    9.1353   -5.4053   27.8239 C   0  0  0  0  0  0  0  0  0  0  0  0
    0.9922   -9.3232   16.5995 O   0  0  0  0  0  0  0  0  0  0  0  0
    1.5232   -7.6869   27.1182 C   0  0  0  0  0  0  0  0  0  0  0  0
    8.6878   -6.6715   27.7262 N   0  0  0  0  0  0  0  0  0  0  0  0
    6.9911   -8.2423   27.1808 C   0  0  0  0  0  0  0  0  0  0  0  0
    3.8436   -7.2758   16.0578 C   0  0  0  0  0  0  0  0  0  0  0  0
    3.1882   -9.7190   17.2566 C   0  0  0  0  0  0  0  0  0  0  0  0
    5.3488   -6.1737   26.5092 C   0  0  0  0  0  0  0  0  0  0  0  0
    7.4567   -6.9464   27.2858 C   0  0  0  0  0  0  0  0  0  0  0  0
    0.1921   -5.7592   27.1123 C   0  0  0  0  0  0  0  0  0  0  0  0
    3.5517   -7.7407   25.9711 C   0  0  0  0  0  0  0  0  0  0  0  0
  1  4  4  0
  1 22  4  0
  2 20  4  0
  2 27  4  0
  3 12  4  0
  3 23  4  0
  4 25  4  0
  4 28  1  0
  5  8  4  0
  5 17  4  0
  6  7  4  0
  6 16  4  0
  7 18  4  0
  8 27  4  0
  9 13  4  0
  9 23  4  0
 10 11  1  0
 11 14  2  0
 11 27  1  0
 12 19  1  0
 12 24  4  0
 13 24  4  0
 15 18  1  0
 16 25  4  0
 16 26  4  0
 17 20  4  0
 17 28  1  0
 18 21  4  0
 21 26  4  0
 22 26  4  0
M  END
$$$$

 Created by Python create_sdf_string function

 28 30  0  0  0  0  0  0  0  0999 V2000
    5.7174   -8.4529   26.7190 C   0  0  0  0  0  0  0  0  0  0  0  0
    0.3974   -7.0711   27.5149 C   0  0  0  0  0  0  0  0  0  0  0  0
    2.5338   -7.6891   16.0102 C   0  0  0  0  0  0  0  0  0  0  0  0
    4.8690   -7.4380   26.4151 C   0  0  0  0  0  0  0  0  0  0  0  0
    2.3021   -5.6726   26.0378 C   0  0  0  0  0  0  0  0  0  0  0  0
    7.0880   -4.6163   27.0010 C   0  0  0  0  0  0  0  0  0  0  0  0
    8.3117   -4.3698   27.4436 C   0  0  0  0  0  0  0  0  0  0  0  0
    1.1339   -5.0515   26.3541 C   0  0  0  0  0  0  0  0  0  0  0  0
    4.8080   -8.0362   16.7101 C   0  0  0  0  0  0  0  0  0  0  0  0
   -1.2173   -3.9294   26.9717 O   0  0  0  0  0  0  0  0  0  0  0  0
   -1.0025   -5.0942   27.4586 C   0  0  0  0  0  0  0  0  0  0  0  0
    2.2474   -8.9123   16.6273 C   0  0  0  0  0  0  0  0  0  0  0  0
    4.4957   -9.2636   17.3041 C   0  0  0  0  0  0  0  0  0  0  0  0
   -1.8070   -5.6086   28.1920 O   0  0  0  0  0  0  0  0  0  0  0  0
   10.4296   -5.1799   28.3140 C   0  0  0  0  0  0  0  0  0  0  0  0
    6.6017   -5.9004   26.9187 C   0  0  0  0  0  0  0  0  0  0  0  0
    2.4761   -6.9940   26.4111 N   0  0  0  0  0  0  0  0  0  0  0  0
    9.1353   -5.4053   27.8239 C   0  0  0  0  0  0  0  0  0  0  0  0
    0.9922   -9.3232   16.5995 O   0  0  0  0  0  0  0  0  0  0  0  0
    1.5232   -7.6869   27.1182 C   0  0  0  0  0  0  0  0  0  0  0  0
    8.6878   -6.6715   27.7262 N   0  0  0  0  0  0  0  0  0  0  0  0
    6.9911   -8.2423   27.1808 C   0  0  0  0  0  0  0  0  0  0  0  0
    3.8436   -7.2758   16.0578 C   0  0  0  0  0  0  0  0  0  0  0  0
    3.1882   -9.7190   17.2566 C   0  0  0  0  0  0  0  0  0  0  0  0
    5.3488   -6.1737   26.5092 C   0  0  0  0  0  0  0  0  0  0  0  0
    7.4567   -6.9464   27.2858 C   0  0  0  0  0  0  0  0  0  0  0  0
    0.1921   -5.7592   27.1123 C   0  0  0  0  0  0  0  0  0  0  0  0
    3.5517   -7.7407   25.9711 C   0  0  0  0  0  0  0  0  0  0  0  0
  1  4  4  0
  1 22  4  0
  2 20  4  0
  2 27  4  0
  3 12  4  0
  3 23  4  0
  4 25  4  0
  4 28  1  0
  5  8  4  0
  5 17  4  0
  6  7  4  0
  6 16  4  0
  7 18  4  0
  8 27  4  0
  9 13  4  0
  9 23  4  0
 10 11  1  0
 11 14  2  0
 11 27  1  0
 12 19  1  0
 12 24  4  0
 13 24  4  0
 15 18  1  0
 16 25  4  0
 16 26  4  0
 17 20  4  0
 17 28  1  0
 18 21  4  0
 21 26  4  0
 22 26  4  0
M  END
$$$$

 Created by Python create_sdf_string function

 28 30  0  0  0  0  0  0  0  0999 V2000
    5.7174   -8.4529   26.7190 C   0  0  0  0  0  0  0  0  0  0  0  0
    0.3974   -7.0711   27.5149 C   0  0  0  0  0  0  0  0  0  0  0  0
    2.5338   -7.6891   16.0102 C   0  0  0  0  0  0  0  0  0  0  0  0
    4.8690   -7.4380   26.4151 C   0  0  0  0  0  0  0  0  0  0  0  0
    2.3021   -5.6726   26.0378 C   0  0  0  0  0  0  0  0  0  0  0  0
    7.0880   -4.6163   27.0010 C   0  0  0  0  0  0  0  0  0  0  0  0
    8.3117   -4.3698   27.4436 C   0  0  0  0  0  0  0  0  0  0  0  0
    1.1339   -5.0515   26.3541 C   0  0  0  0  0  0  0  0  0  0  0  0
    4.8080   -8.0362   16.7101 C   0  0  0  0  0  0  0  0  0  0  0  0
   -1.2173   -3.9294   26.9717 O   0  0  0  0  0  0  0  0  0  0  0  0
   -1.0025   -5.0942   27.4586 C   0  0  0  0  0  0  0  0  0  0  0  0
    2.2474   -8.9123   16.6273 C   0  0  0  0  0  0  0  0  0  0  0  0
    4.4957   -9.2636   17.3041 C   0  0  0  0  0  0  0  0  0  0  0  0
   -1.8070   -5.6086   28.1920 O   0  0  0  0  0  0  0  0  0  0  0  0
   10.4296   -5.1799   28.3140 C   0  0  0  0  0  0  0  0  0  0  0  0
    6.6017   -5.9004   26.9187 C   0  0  0  0  0  0  0  0  0  0  0  0
    2.4761   -6.9940   26.4111 N   0  0  0  0  0  0  0  0  0  0  0  0
    9.1353   -5.4053   27.8239 C   0  0  0  0  0  0  0  0  0  0  0  0
    0.9922   -9.3232   16.5995 O   0  0  0  0  0  0  0  0  0  0  0  0
    1.5232   -7.6869   27.1182 C   0  0  0  0  0  0  0  0  0  0  0  0
    8.6878   -6.6715   27.7262 N   0  0  0  0  0  0  0  0  0  0  0  0
    6.9911   -8.2423   27.1808 C   0  0  0  0  0  0  0  0  0  0  0  0
    3.8436   -7.2758   16.0578 C   0  0  0  0  0  0  0  0  0  0  0  0
    3.1882   -9.7190   17.2566 C   0  0  0  0  0  0  0  0  0  0  0  0
    5.3488   -6.1737   26.5092 C   0  0  0  0  0  0  0  0  0  0  0  0
    7.4567   -6.9464   27.2858 C   0  0  0  0  0  0  0  0  0  0  0  0
    0.1921   -5.7592   27.1123 C   0  0  0  0  0  0  0  0  0  0  0  0
    3.5517   -7.7407   25.9711 C   0  0  0  0  0  0  0  0  0  0  0  0
  1  4  4  0
  1 22  4  0
  2 20  4  0
  2 27  4  0
  3 12  4  0
  3 23  4  0
  4 25  4  0
  4 28  1  0
  5  8  4  0
  5 17  4  0
  6  7  4  0
  6 16  4  0
  7 18  4  0
  8 27  4  0
  9 13  4  0
  9 23  4  0
 10 11  1  0
 11 14  2  0
 11 27  1  0
 12 19  1  0
 12 24  4  0
 13 24  4  0
 15 18  1  0
 16 25  4  0
 16 26  4  0
 17 20  4  0
 17 28  1  0
 18 21  4  0
 21 26  4  0
 22 26  4  0
M  END
$$$$

 Created by Python create_sdf_string function

 28 30  0  0  0  0  0  0  0  0999 V2000
    5.7174   -8.4529   26.7190 C   0  0  0  0  0  0  0  0  0  0  0  0
    0.3974   -7.0711   27.5149 C   0  0  0  0  0  0  0  0  0  0  0  0
    2.5338   -7.6891   16.0102 C   0  0  0  0  0  0  0  0  0  0  0  0
    4.8690   -7.4380   26.4151 C   0  0  0  0  0  0  0  0  0  0  0  0
    2.3021   -5.6726   26.0378 C   0  0  0  0  0  0  0  0  0  0  0  0
    7.0880   -4.6163   27.0010 C   0  0  0  0  0  0  0  0  0  0  0  0
    8.3117   -4.3698   27.4436 C   0  0  0  0  0  0  0  0  0  0  0  0
    1.1339   -5.0515   26.3541 C   0  0  0  0  0  0  0  0  0  0  0  0
    4.8080   -8.0362   16.7101 C   0  0  0  0  0  0  0  0  0  0  0  0
   -1.2173   -3.9294   26.9717 O   0  0  0  0  0  0  0  0  0  0  0  0
   -1.0025   -5.0942   27.4586 C   0  0  0  0  0  0  0  0  0  0  0  0
    2.2474   -8.9123   16.6273 C   0  0  0  0  0  0  0  0  0  0  0  0
    4.4957   -9.2636   17.3041 C   0  0  0  0  0  0  0  0  0  0  0  0
   -1.8070   -5.6086   28.1920 O   0  0  0  0  0  0  0  0  0  0  0  0
   10.4296   -5.1799   28.3140 C   0  0  0  0  0  0  0  0  0  0  0  0
    6.6017   -5.9004   26.9187 C   0  0  0  0  0  0  0  0  0  0  0  0
    2.4761   -6.9940   26.4111 N   0  0  0  0  0  0  0  0  0  0  0  0
    9.1353   -5.4053   27.8239 C   0  0  0  0  0  0  0  0  0  0  0  0
    0.9922   -9.3232   16.5995 O   0  0  0  0  0  0  0  0  0  0  0  0
    1.5232   -7.6869   27.1182 C   0  0  0  0  0  0  0  0  0  0  0  0
    8.6878   -6.6715   27.7262 N   0  0  0  0  0  0  0  0  0  0  0  0
    6.9911   -8.2423   27.1808 C   0  0  0  0  0  0  0  0  0  0  0  0
    3.8436   -7.2758   16.0578 C   0  0  0  0  0  0  0  0  0  0  0  0
    3.1882   -9.7190   17.2566 C   0  0  0  0  0  0  0  0  0  0  0  0
    5.3488   -6.1737   26.5092 C   0  0  0  0  0  0  0  0  0  0  0  0
    7.4567   -6.9464   27.2858 C   0  0  0  0  0  0  0  0  0  0  0  0
    0.1921   -5.7592   27.1123 C   0  0  0  0  0  0  0  0  0  0  0  0
    3.5517   -7.7407   25.9711 C   0  0  0  0  0  0  0  0  0  0  0  0
  1  4  4  0
  1 22  4  0
  2 20  4  0
  2 27  4  0
  3 12  4  0
  3 23  4  0
  4 25  4  0
  4 28  1  0
  5  8  4  0
  5 17  4  0
  6  7  4  0
  6 16  4  0
  7 18  4  0
  8 27  4  0
  9 13  4  0
  9 23  4  0
 10 11  1  0
 11 14  2  0
 11 27  1  0
 12 19  1  0
 12 24  4  0
 13 24  4  0
 15 18  1  0
 16 25  4  0
 16 26  4  0
 17 20  4  0
 17 28  1  0
 18 21  4  0
 21 26  4  0
 22 26  4  0
M  END
$$$$

 Created by Python create_sdf_string function

 28 30  0  0  0  0  0  0  0  0999 V2000
    5.7174   -8.4529   26.7190 C   0  0  0  0  0  0  0  0  0  0  0  0
    0.3974   -7.0711   27.5149 C   0  0  0  0  0  0  0  0  0  0  0  0
    2.5338   -7.6891   16.0102 C   0  0  0  0  0  0  0  0  0  0  0  0
    4.8690   -7.4380   26.4151 C   0  0  0  0  0  0  0  0  0  0  0  0
    2.3021   -5.6726   26.0378 C   0  0  0  0  0  0  0  0  0  0  0  0
    7.0880   -4.6163   27.0010 C   0  0  0  0  0  0  0  0  0  0  0  0
    8.3117   -4.3698   27.4436 C   0  0  0  0  0  0  0  0  0  0  0  0
    1.1339   -5.0515   26.3541 C   0  0  0  0  0  0  0  0  0  0  0  0
    4.8080   -8.0362   16.7101 C   0  0  0  0  0  0  0  0  0  0  0  0
   -1.2173   -3.9294   26.9717 O   0  0  0  0  0  0  0  0  0  0  0  0
   -1.0025   -5.0942   27.4586 C   0  0  0  0  0  0  0  0  0  0  0  0
    2.2474   -8.9123   16.6273 C   0  0  0  0  0  0  0  0  0  0  0  0
    4.4957   -9.2636   17.3041 C   0  0  0  0  0  0  0  0  0  0  0  0
   -1.8070   -5.6086   28.1920 O   0  0  0  0  0  0  0  0  0  0  0  0
   10.4296   -5.1799   28.3140 C   0  0  0  0  0  0  0  0  0  0  0  0
    6.6017   -5.9004   26.9187 C   0  0  0  0  0  0  0  0  0  0  0  0
    2.4761   -6.9940   26.4111 N   0  0  0  0  0  0  0  0  0  0  0  0
    9.1353   -5.4053   27.8239 C   0  0  0  0  0  0  0  0  0  0  0  0
    0.9922   -9.3232   16.5995 O   0  0  0  0  0  0  0  0  0  0  0  0
    1.5232   -7.6869   27.1182 C   0  0  0  0  0  0  0  0  0  0  0  0
    8.6878   -6.6715   27.7262 N   0  0  0  0  0  0  0  0  0  0  0  0
    6.9911   -8.2423   27.1808 C   0  0  0  0  0  0  0  0  0  0  0  0
    3.8436   -7.2758   16.0578 C   0  0  0  0  0  0  0  0  0  0  0  0
    3.1882   -9.7190   17.2566 C   0  0  0  0  0  0  0  0  0  0  0  0
    5.3488   -6.1737   26.5092 C   0  0  0  0  0  0  0  0  0  0  0  0
    7.4567   -6.9464   27.2858 C   0  0  0  0  0  0  0  0  0  0  0  0
    0.1921   -5.7592   27.1123 C   0  0  0  0  0  0  0  0  0  0  0  0
    3.5517   -7.7407   25.9711 C   0  0  0  0  0  0  0  0  0  0  0  0
  1  4  4  0
  1 22  4  0
  2 20  4  0
  2 27  4  0
  3 12  4  0
  3 23  4  0
  4 25  4  0
  4 28  1  0
  5  8  4  0
  5 17  4  0
  6  7  4  0
  6 16  4  0
  7 18  4  0
  8 27  4  0
  9 13  4  0
  9 23  4  0
 10 11  1  0
 11 14  2  0
 11 27  1  0
 12 19  1  0
 12 24  4  0
 13 24  4  0
 15 18  1  0
 16 25  4  0
 16 26  4  0
 17 20  4  0
 17 28  1  0
 18 21  4  0
 21 26  4  0
 22 26  4  0
M  END
$$$$

 Created by Python create_sdf_string function

 28 30  0  0  0  0  0  0  0  0999 V2000
    5.7174   -8.4529   26.7190 C   0  0  0  0  0  0  0  0  0  0  0  0
    0.3974   -7.0711   27.5149 C   0  0  0  0  0  0  0  0  0  0  0  0
    2.5338   -7.6891   16.0102 C   0  0  0  0  0  0  0  0  0  0  0  0
    4.8690   -7.4380   26.4151 C   0  0  0  0  0  0  0  0  0  0  0  0
    2.3021   -5.6726   26.0378 C   0  0  0  0  0  0  0  0  0  0  0  0
    7.0880   -4.6163   27.0010 C   0  0  0  0  0  0  0  0  0  0  0  0
    8.3117   -4.3698   27.4436 C   0  0  0  0  0  0  0  0  0  0  0  0
    1.1339   -5.0515   26.3541 C   0  0  0  0  0  0  0  0  0  0  0  0
    4.8080   -8.0362   16.7101 C   0  0  0  0  0  0  0  0  0  0  0  0
   -1.2173   -3.9294   26.9717 O   0  0  0  0  0  0  0  0  0  0  0  0
   -1.0025   -5.0942   27.4586 C   0  0  0  0  0  0  0  0  0  0  0  0
    2.2474   -8.9123   16.6273 C   0  0  0  0  0  0  0  0  0  0  0  0
    4.4957   -9.2636   17.3041 C   0  0  0  0  0  0  0  0  0  0  0  0
   -1.8070   -5.6086   28.1920 O   0  0  0  0  0  0  0  0  0  0  0  0
   10.4296   -5.1799   28.3140 C   0  0  0  0  0  0  0  0  0  0  0  0
    6.6017   -5.9004   26.9187 C   0  0  0  0  0  0  0  0  0  0  0  0
    2.4761   -6.9940   26.4111 N   0  0  0  0  0  0  0  0  0  0  0  0
    9.1353   -5.4053   27.8239 C   0  0  0  0  0  0  0  0  0  0  0  0
    0.9922   -9.3232   16.5995 O   0  0  0  0  0  0  0  0  0  0  0  0
    1.5232   -7.6869   27.1182 C   0  0  0  0  0  0  0  0  0  0  0  0
    8.6878   -6.6715   27.7262 N   0  0  0  0  0  0  0  0  0  0  0  0
    6.9911   -8.2423   27.1808 C   0  0  0  0  0  0  0  0  0  0  0  0
    3.8436   -7.2758   16.0578 C   0  0  0  0  0  0  0  0  0  0  0  0
    3.1882   -9.7190   17.2566 C   0  0  0  0  0  0  0  0  0  0  0  0
    5.3488   -6.1737   26.5092 C   0  0  0  0  0  0  0  0  0  0  0  0
    7.4567   -6.9464   27.2858 C   0  0  0  0  0  0  0  0  0  0  0  0
    0.1921   -5.7592   27.1123 C   0  0  0  0  0  0  0  0  0  0  0  0
    3.5517   -7.7407   25.9711 C   0  0  0  0  0  0  0  0  0  0  0  0
  1  4  4  0
  1 22  4  0
  2 20  4  0
  2 27  4  0
  3 12  4  0
  3 23  4  0
  4 25  4  0
  4 28  1  0
  5  8  4  0
  5 17  4  0
  6  7  4  0
  6 16  4  0
  7 18  4  0
  8 27  4  0
  9 13  4  0
  9 23  4  0
 10 11  1  0
 11 14  2  0
 11 27  1  0
 12 19  1  0
 12 24  4  0
 13 24  4  0
 15 18  1  0
 16 25  4  0
 16 26  4  0
 17 20  4  0
 17 28  1  0
 18 21  4  0
 21 26  4  0
 22 26  4  0
M  END
$$$$

 Created by Python create_sdf_string function

 28 30  0  0  0  0  0  0  0  0999 V2000
    5.7174   -8.4529   26.7190 C   0  0  0  0  0  0  0  0  0  0  0  0
    0.3974   -7.0711   27.5149 C   0  0  0  0  0  0  0  0  0  0  0  0
    2.5338   -7.6891   16.0102 C   0  0  0  0  0  0  0  0  0  0  0  0
    4.8690   -7.4380   26.4151 C   0  0  0  0  0  0  0  0  0  0  0  0
    2.3021   -5.6726   26.0378 C   0  0  0  0  0  0  0  0  0  0  0  0
    7.0880   -4.6163   27.0010 C   0  0  0  0  0  0  0  0  0  0  0  0
    8.3117   -4.3698   27.4436 C   0  0  0  0  0  0  0  0  0  0  0  0
    1.1339   -5.0515   26.3541 C   0  0  0  0  0  0  0  0  0  0  0  0
    4.8080   -8.0362   16.7101 C   0  0  0  0  0  0  0  0  0  0  0  0
   -1.2173   -3.9294   26.9717 O   0  0  0  0  0  0  0  0  0  0  0  0
   -1.0025   -5.0942   27.4586 C   0  0  0  0  0  0  0  0  0  0  0  0
    2.2474   -8.9123   16.6273 C   0  0  0  0  0  0  0  0  0  0  0  0
    4.4957   -9.2636   17.3041 C   0  0  0  0  0  0  0  0  0  0  0  0
   -1.8070   -5.6086   28.1920 O   0  0  0  0  0  0  0  0  0  0  0  0
   10.4296   -5.1799   28.3140 C   0  0  0  0  0  0  0  0  0  0  0  0
    6.6017   -5.9004   26.9187 C   0  0  0  0  0  0  0  0  0  0  0  0
    2.4761   -6.9940   26.4111 N   0  0  0  0  0  0  0  0  0  0  0  0
    9.1353   -5.4053   27.8239 C   0  0  0  0  0  0  0  0  0  0  0  0
    0.9922   -9.3232   16.5995 O   0  0  0  0  0  0  0  0  0  0  0  0
    1.5232   -7.6869   27.1182 C   0  0  0  0  0  0  0  0  0  0  0  0
    8.6878   -6.6715   27.7262 N   0  0  0  0  0  0  0  0  0  0  0  0
    6.9911   -8.2423   27.1808 C   0  0  0  0  0  0  0  0  0  0  0  0
    3.8436   -7.2758   16.0578 C   0  0  0  0  0  0  0  0  0  0  0  0
    3.1882   -9.7190   17.2566 C   0  0  0  0  0  0  0  0  0  0  0  0
    5.3488   -6.1737   26.5092 C   0  0  0  0  0  0  0  0  0  0  0  0
    7.4567   -6.9464   27.2858 C   0  0  0  0  0  0  0  0  0  0  0  0
    0.1921   -5.7592   27.1123 C   0  0  0  0  0  0  0  0  0  0  0  0
    3.5517   -7.7407   25.9711 C   0  0  0  0  0  0  0  0  0  0  0  0
  1  4  4  0
  1 22  4  0
  2 20  4  0
  2 27  4  0
  3 12  4  0
  3 23  4  0
  4 25  4  0
  4 28  1  0
  5  8  4  0
  5 17  4  0
  6  7  4  0
  6 16  4  0
  7 18  4  0
  8 27  4  0
  9 13  4  0
  9 23  4  0
 10 11  1  0
 11 14  2  0
 11 27  1  0
 12 19  1  0
 12 24  4  0
 13 24  4  0
 15 18  1  0
 16 25  4  0
 16 26  4  0
 17 20  4  0
 17 28  1  0
 18 21  4  0
 21 26  4  0
 22 26  4  0
M  END
$$$$

 Created by Python create_sdf_string function

 28 30  0  0  0  0  0  0  0  0999 V2000
    5.7174   -8.4529   26.7190 C   0  0  0  0  0  0  0  0  0  0  0  0
    0.3974   -7.0711   27.5149 C   0  0  0  0  0  0  0  0  0  0  0  0
    2.5338   -7.6891   16.0102 C   0  0  0  0  0  0  0  0  0  0  0  0
    4.8690   -7.4380   26.4151 C   0  0  0  0  0  0  0  0  0  0  0  0
    2.3021   -5.6726   26.0378 C   0  0  0  0  0  0  0  0  0  0  0  0
    7.0880   -4.6163   27.0010 C   0  0  0  0  0  0  0  0  0  0  0  0
    8.3117   -4.3698   27.4436 C   0  0  0  0  0  0  0  0  0  0  0  0
    1.1339   -5.0515   26.3541 C   0  0  0  0  0  0  0  0  0  0  0  0
    4.8080   -8.0362   16.7101 C   0  0  0  0  0  0  0  0  0  0  0  0
   -1.2173   -3.9294   26.9717 O   0  0  0  0  0  0  0  0  0  0  0  0
   -1.0025   -5.0942   27.4586 C   0  0  0  0  0  0  0  0  0  0  0  0
    2.2474   -8.9123   16.6273 C   0  0  0  0  0  0  0  0  0  0  0  0
    4.4957   -9.2636   17.3041 C   0  0  0  0  0  0  0  0  0  0  0  0
   -1.8070   -5.6086   28.1920 O   0  0  0  0  0  0  0  0  0  0  0  0
   10.4296   -5.1799   28.3140 C   0  0  0  0  0  0  0  0  0  0  0  0
    6.6017   -5.9004   26.9187 C   0  0  0  0  0  0  0  0  0  0  0  0
    2.4761   -6.9940   26.4111 N   0  0  0  0  0  0  0  0  0  0  0  0
    9.1353   -5.4053   27.8239 C   0  0  0  0  0  0  0  0  0  0  0  0
    0.9922   -9.3232   16.5995 O   0  0  0  0  0  0  0  0  0  0  0  0
    1.5232   -7.6869   27.1182 C   0  0  0  0  0  0  0  0  0  0  0  0
    8.6878   -6.6715   27.7262 N   0  0  0  0  0  0  0  0  0  0  0  0
    6.9911   -8.2423   27.1808 C   0  0  0  0  0  0  0  0  0  0  0  0
    3.8436   -7.2758   16.0578 C   0  0  0  0  0  0  0  0  0  0  0  0
    3.1882   -9.7190   17.2566 C   0  0  0  0  0  0  0  0  0  0  0  0
    5.3488   -6.1737   26.5092 C   0  0  0  0  0  0  0  0  0  0  0  0
    7.4567   -6.9464   27.2858 C   0  0  0  0  0  0  0  0  0  0  0  0
    0.1921   -5.7592   27.1123 C   0  0  0  0  0  0  0  0  0  0  0  0
    3.5517   -7.7407   25.9711 C   0  0  0  0  0  0  0  0  0  0  0  0
  1  4  4  0
  1 22  4  0
  2 20  4  0
  2 27  4  0
  3 12  4  0
  3 23  4  0
  4 25  4  0
  4 28  1  0
  5  8  4  0
  5 17  4  0
  6  7  4  0
  6 16  4  0
  7 18  4  0
  8 27  4  0
  9 13  4  0
  9 23  4  0
 10 11  1  0
 11 14  2  0
 11 27  1  0
 12 19  1  0
 12 24  4  0
 13 24  4  0
 15 18  1  0
 16 25  4  0
 16 26  4  0
 17 20  4  0
 17 28  1  0
 18 21  4  0
 21 26  4  0
 22 26  4  0
M  END
$$$$

 Created by Python create_sdf_string function

 28 30  0  0  0  0  0  0  0  0999 V2000
    5.7174   -8.4529   26.7190 C   0  0  0  0  0  0  0  0  0  0  0  0
    0.3974   -7.0711   27.5149 C   0  0  0  0  0  0  0  0  0  0  0  0
    2.5338   -7.6891   16.0102 C   0  0  0  0  0  0  0  0  0  0  0  0
    4.8690   -7.4380   26.4151 C   0  0  0  0  0  0  0  0  0  0  0  0
    2.3021   -5.6726   26.0378 C   0  0  0  0  0  0  0  0  0  0  0  0
    7.0880   -4.6163   27.0010 C   0  0  0  0  0  0  0  0  0  0  0  0
    8.3117   -4.3698   27.4436 C   0  0  0  0  0  0  0  0  0  0  0  0
    1.1339   -5.0515   26.3541 C   0  0  0  0  0  0  0  0  0  0  0  0
    4.8080   -8.0362   16.7101 C   0  0  0  0  0  0  0  0  0  0  0  0
   -1.2173   -3.9294   26.9717 O   0  0  0  0  0  0  0  0  0  0  0  0
   -1.0025   -5.0942   27.4586 C   0  0  0  0  0  0  0  0  0  0  0  0
    2.2474   -8.9123   16.6273 C   0  0  0  0  0  0  0  0  0  0  0  0
    4.4957   -9.2636   17.3041 C   0  0  0  0  0  0  0  0  0  0  0  0
   -1.8070   -5.6086   28.1920 O   0  0  0  0  0  0  0  0  0  0  0  0
   10.4296   -5.1799   28.3140 C   0  0  0  0  0  0  0  0  0  0  0  0
    6.6017   -5.9004   26.9187 C   0  0  0  0  0  0  0  0  0  0  0  0
    2.4761   -6.9940   26.4111 N   0  0  0  0  0  0  0  0  0  0  0  0
    9.1353   -5.4053   27.8239 C   0  0  0  0  0  0  0  0  0  0  0  0
    0.9922   -9.3232   16.5995 O   0  0  0  0  0  0  0  0  0  0  0  0
    1.5232   -7.6869   27.1182 C   0  0  0  0  0  0  0  0  0  0  0  0
    8.6878   -6.6715   27.7262 N   0  0  0  0  0  0  0  0  0  0  0  0
    6.9911   -8.2423   27.1808 C   0  0  0  0  0  0  0  0  0  0  0  0
    3.8436   -7.2758   16.0578 C   0  0  0  0  0  0  0  0  0  0  0  0
    3.1882   -9.7190   17.2566 C   0  0  0  0  0  0  0  0  0  0  0  0
    5.3488   -6.1737   26.5092 C   0  0  0  0  0  0  0  0  0  0  0  0
    7.4567   -6.9464   27.2858 C   0  0  0  0  0  0  0  0  0  0  0  0
    0.1921   -5.7592   27.1123 C   0  0  0  0  0  0  0  0  0  0  0  0
    3.5517   -7.7407   25.9711 C   0  0  0  0  0  0  0  0  0  0  0  0
  1  4  4  0
  1 22  4  0
  2 20  4  0
  2 27  4  0
  3 12  4  0
  3 23  4  0
  4 25  4  0
  4 28  1  0
  5  8  4  0
  5 17  4  0
  6  7  4  0
  6 16  4  0
  7 18  4  0
  8 27  4  0
  9 13  4  0
  9 23  4  0
 10 11  1  0
 11 14  2  0
 11 27  1  0
 12 19  1  0
 12 24  4  0
 13 24  4  0
 15 18  1  0
 16 25  4  0
 16 26  4  0
 17 20  4  0
 17 28  1  0
 18 21  4  0
 21 26  4  0
 22 26  4  0
M  END
$$$$

 Created by Python create_sdf_string function

 28 30  0  0  0  0  0  0  0  0999 V2000
    5.7174   -8.4529   26.7190 C   0  0  0  0  0  0  0  0  0  0  0  0
    0.3974   -7.0711   27.5149 C   0  0  0  0  0  0  0  0  0  0  0  0
    2.5338   -7.6891   16.0102 C   0  0  0  0  0  0  0  0  0  0  0  0
    4.8690   -7.4380   26.4151 C   0  0  0  0  0  0  0  0  0  0  0  0
    2.3021   -5.6726   26.0378 C   0  0  0  0  0  0  0  0  0  0  0  0
    7.0880   -4.6163   27.0010 C   0  0  0  0  0  0  0  0  0  0  0  0
    8.3117   -4.3698   27.4436 C   0  0  0  0  0  0  0  0  0  0  0  0
    1.1339   -5.0515   26.3541 C   0  0  0  0  0  0  0  0  0  0  0  0
    4.8080   -8.0362   16.7101 C   0  0  0  0  0  0  0  0  0  0  0  0
   -1.2173   -3.9294   26.9717 O   0  0  0  0  0  0  0  0  0  0  0  0
   -1.0025   -5.0942   27.4586 C   0  0  0  0  0  0  0  0  0  0  0  0
    2.2474   -8.9123   16.6273 C   0  0  0  0  0  0  0  0  0  0  0  0
    4.4957   -9.2636   17.3041 C   0  0  0  0  0  0  0  0  0  0  0  0
   -1.8070   -5.6086   28.1920 O   0  0  0  0  0  0  0  0  0  0  0  0
   10.4296   -5.1799   28.3140 C   0  0  0  0  0  0  0  0  0  0  0  0
    6.6017   -5.9004   26.9187 C   0  0  0  0  0  0  0  0  0  0  0  0
    2.4761   -6.9940   26.4111 N   0  0  0  0  0  0  0  0  0  0  0  0
    9.1353   -5.4053   27.8239 C   0  0  0  0  0  0  0  0  0  0  0  0
    0.9922   -9.3232   16.5995 O   0  0  0  0  0  0  0  0  0  0  0  0
    1.5232   -7.6869   27.1182 C   0  0  0  0  0  0  0  0  0  0  0  0
    8.6878   -6.6715   27.7262 N   0  0  0  0  0  0  0  0  0  0  0  0
    6.9911   -8.2423   27.1808 C   0  0  0  0  0  0  0  0  0  0  0  0
    3.8436   -7.2758   16.0578 C   0  0  0  0  0  0  0  0  0  0  0  0
    3.1882   -9.7190   17.2566 C   0  0  0  0  0  0  0  0  0  0  0  0
    5.3488   -6.1737   26.5092 C   0  0  0  0  0  0  0  0  0  0  0  0
    7.4567   -6.9464   27.2858 C   0  0  0  0  0  0  0  0  0  0  0  0
    0.1921   -5.7592   27.1123 C   0  0  0  0  0  0  0  0  0  0  0  0
    3.5517   -7.7407   25.9711 C   0  0  0  0  0  0  0  0  0  0  0  0
  1  4  4  0
  1 22  4  0
  2 20  4  0
  2 27  4  0
  3 12  4  0
  3 23  4  0
  4 25  4  0
  4 28  1  0
  5  8  4  0
  5 17  4  0
  6  7  4  0
  6 16  4  0
  7 18  4  0
  8 27  4  0
  9 13  4  0
  9 23  4  0
 10 11  1  0
 11 14  2  0
 11 27  1  0
 12 19  1  0
 12 24  4  0
 13 24  4  0
 15 18  1  0
 16 25  4  0
 16 26  4  0
 17 20  4  0
 17 28  1  0
 18 21  4  0
 21 26  4  0
 22 26  4  0
M  END
$$$$

 Created by Python create_sdf_string function

 28 30  0  0  0  0  0  0  0  0999 V2000
    5.7174   -8.4529   26.7190 C   0  0  0  0  0  0  0  0  0  0  0  0
    0.3974   -7.0711   27.5149 C   0  0  0  0  0  0  0  0  0  0  0  0
    2.5338   -7.6891   16.0102 C   0  0  0  0  0  0  0  0  0  0  0  0
    4.8690   -7.4380   26.4151 C   0  0  0  0  0  0  0  0  0  0  0  0
    2.3021   -5.6726   26.0378 C   0  0  0  0  0  0  0  0  0  0  0  0
    7.0880   -4.6163   27.0010 C   0  0  0  0  0  0  0  0  0  0  0  0
    8.3117   -4.3698   27.4436 C   0  0  0  0  0  0  0  0  0  0  0  0
    1.1339   -5.0515   26.3541 C   0  0  0  0  0  0  0  0  0  0  0  0
    4.8080   -8.0362   16.7101 C   0  0  0  0  0  0  0  0  0  0  0  0
   -1.2173   -3.9294   26.9717 O   0  0  0  0  0  0  0  0  0  0  0  0
   -1.0025   -5.0942   27.4586 C   0  0  0  0  0  0  0  0  0  0  0  0
    2.2474   -8.9123   16.6273 C   0  0  0  0  0  0  0  0  0  0  0  0
    4.4957   -9.2636   17.3041 C   0  0  0  0  0  0  0  0  0  0  0  0
   -1.8070   -5.6086   28.1920 O   0  0  0  0  0  0  0  0  0  0  0  0
   10.4296   -5.1799   28.3140 C   0  0  0  0  0  0  0  0  0  0  0  0
    6.6017   -5.9004   26.9187 C   0  0  0  0  0  0  0  0  0  0  0  0
    2.4761   -6.9940   26.4111 N   0  0  0  0  0  0  0  0  0  0  0  0
    9.1353   -5.4053   27.8239 C   0  0  0  0  0  0  0  0  0  0  0  0
    0.9922   -9.3232   16.5995 O   0  0  0  0  0  0  0  0  0  0  0  0
    1.5232   -7.6869   27.1182 C   0  0  0  0  0  0  0  0  0  0  0  0
    8.6878   -6.6715   27.7262 N   0  0  0  0  0  0  0  0  0  0  0  0
    6.9911   -8.2423   27.1808 C   0  0  0  0  0  0  0  0  0  0  0  0
    3.8436   -7.2758   16.0578 C   0  0  0  0  0  0  0  0  0  0  0  0
    3.1882   -9.7190   17.2566 C   0  0  0  0  0  0  0  0  0  0  0  0
    5.3488   -6.1737   26.5092 C   0  0  0  0  0  0  0  0  0  0  0  0
    7.4567   -6.9464   27.2858 C   0  0  0  0  0  0  0  0  0  0  0  0
    0.1921   -5.7592   27.1123 C   0  0  0  0  0  0  0  0  0  0  0  0
    3.5517   -7.7407   25.9711 C   0  0  0  0  0  0  0  0  0  0  0  0
  1  4  4  0
  1 22  4  0
  2 20  4  0
  2 27  4  0
  3 12  4  0
  3 23  4  0
  4 25  4  0
  4 28  1  0
  5  8  4  0
  5 17  4  0
  6  7  4  0
  6 16  4  0
  7 18  4  0
  8 27  4  0
  9 13  4  0
  9 23  4  0
 10 11  1  0
 11 14  2  0
 11 27  1  0
 12 19  1  0
 12 24  4  0
 13 24  4  0
 15 18  1  0
 16 25  4  0
 16 26  4  0
 17 20  4  0
 17 28  1  0
 18 21  4  0
 21 26  4  0
 22 26  4  0
M  END
$$$$

 Created by Python create_sdf_string function

 28 30  0  0  0  0  0  0  0  0999 V2000
    5.7174   -8.4529   26.7190 C   0  0  0  0  0  0  0  0  0  0  0  0
    0.3974   -7.0711   27.5149 C   0  0  0  0  0  0  0  0  0  0  0  0
    2.5338   -7.6891   16.0102 C   0  0  0  0  0  0  0  0  0  0  0  0
    4.8690   -7.4380   26.4151 C   0  0  0  0  0  0  0  0  0  0  0  0
    2.3021   -5.6726   26.0378 C   0  0  0  0  0  0  0  0  0  0  0  0
    7.0880   -4.6163   27.0010 C   0  0  0  0  0  0  0  0  0  0  0  0
    8.3117   -4.3698   27.4436 C   0  0  0  0  0  0  0  0  0  0  0  0
    1.1339   -5.0515   26.3541 C   0  0  0  0  0  0  0  0  0  0  0  0
    4.8080   -8.0362   16.7101 C   0  0  0  0  0  0  0  0  0  0  0  0
   -1.2173   -3.9294   26.9717 O   0  0  0  0  0  0  0  0  0  0  0  0
   -1.0025   -5.0942   27.4586 C   0  0  0  0  0  0  0  0  0  0  0  0
    2.2474   -8.9123   16.6273 C   0  0  0  0  0  0  0  0  0  0  0  0
    4.4957   -9.2636   17.3041 C   0  0  0  0  0  0  0  0  0  0  0  0
   -1.8070   -5.6086   28.1920 O   0  0  0  0  0  0  0  0  0  0  0  0
   10.4296   -5.1799   28.3140 C   0  0  0  0  0  0  0  0  0  0  0  0
    6.6017   -5.9004   26.9187 C   0  0  0  0  0  0  0  0  0  0  0  0
    2.4761   -6.9940   26.4111 N   0  0  0  0  0  0  0  0  0  0  0  0
    9.1353   -5.4053   27.8239 C   0  0  0  0  0  0  0  0  0  0  0  0
    0.9922   -9.3232   16.5995 O   0  0  0  0  0  0  0  0  0  0  0  0
    1.5232   -7.6869   27.1182 C   0  0  0  0  0  0  0  0  0  0  0  0
    8.6878   -6.6715   27.7262 N   0  0  0  0  0  0  0  0  0  0  0  0
    6.9911   -8.2423   27.1808 C   0  0  0  0  0  0  0  0  0  0  0  0
    3.8436   -7.2758   16.0578 C   0  0  0  0  0  0  0  0  0  0  0  0
    3.1882   -9.7190   17.2566 C   0  0  0  0  0  0  0  0  0  0  0  0
    5.3488   -6.1737   26.5092 C   0  0  0  0  0  0  0  0  0  0  0  0
    7.4567   -6.9464   27.2858 C   0  0  0  0  0  0  0  0  0  0  0  0
    0.1921   -5.7592   27.1123 C   0  0  0  0  0  0  0  0  0  0  0  0
    3.5517   -7.7407   25.9711 C   0  0  0  0  0  0  0  0  0  0  0  0
  1  4  4  0
  1 22  4  0
  2 20  4  0
  2 27  4  0
  3 12  4  0
  3 23  4  0
  4 25  4  0
  4 28  1  0
  5  8  4  0
  5 17  4  0
  6  7  4  0
  6 16  4  0
  7 18  4  0
  8 27  4  0
  9 13  4  0
  9 23  4  0
 10 11  1  0
 11 14  2  0
 11 27  1  0
 12 19  1  0
 12 24  4  0
 13 24  4  0
 15 18  1  0
 16 25  4  0
 16 26  4  0
 17 20  4  0
 17 28  1  0
 18 21  4  0
 21 26  4  0
 22 26  4  0
M  END
$$$$

 Created by Python create_sdf_string function

 28 30  0  0  0  0  0  0  0  0999 V2000
    5.7174   -8.4529   26.7190 C   0  0  0  0  0  0  0  0  0  0  0  0
    0.3974   -7.0711   27.5149 C   0  0  0  0  0  0  0  0  0  0  0  0
    2.5338   -7.6891   16.0102 C   0  0  0  0  0  0  0  0  0  0  0  0
    4.8690   -7.4380   26.4151 C   0  0  0  0  0  0  0  0  0  0  0  0
    2.3021   -5.6726   26.0378 C   0  0  0  0  0  0  0  0  0  0  0  0
    7.0880   -4.6163   27.0010 C   0  0  0  0  0  0  0  0  0  0  0  0
    8.3117   -4.3698   27.4436 C   0  0  0  0  0  0  0  0  0  0  0  0
    1.1339   -5.0515   26.3541 C   0  0  0  0  0  0  0  0  0  0  0  0
    4.8080   -8.0362   16.7101 C   0  0  0  0  0  0  0  0  0  0  0  0
   -1.2173   -3.9294   26.9717 O   0  0  0  0  0  0  0  0  0  0  0  0
   -1.0025   -5.0942   27.4586 C   0  0  0  0  0  0  0  0  0  0  0  0
    2.2474   -8.9123   16.6273 C   0  0  0  0  0  0  0  0  0  0  0  0
    4.4957   -9.2636   17.3041 C   0  0  0  0  0  0  0  0  0  0  0  0
   -1.8070   -5.6086   28.1920 O   0  0  0  0  0  0  0  0  0  0  0  0
   10.4296   -5.1799   28.3140 C   0  0  0  0  0  0  0  0  0  0  0  0
    6.6017   -5.9004   26.9187 C   0  0  0  0  0  0  0  0  0  0  0  0
    2.4761   -6.9940   26.4111 N   0  0  0  0  0  0  0  0  0  0  0  0
    9.1353   -5.4053   27.8239 C   0  0  0  0  0  0  0  0  0  0  0  0
    0.9922   -9.3232   16.5995 O   0  0  0  0  0  0  0  0  0  0  0  0
    1.5232   -7.6869   27.1182 C   0  0  0  0  0  0  0  0  0  0  0  0
    8.6878   -6.6715   27.7262 N   0  0  0  0  0  0  0  0  0  0  0  0
    6.9911   -8.2423   27.1808 C   0  0  0  0  0  0  0  0  0  0  0  0
    3.8436   -7.2758   16.0578 C   0  0  0  0  0  0  0  0  0  0  0  0
    3.1882   -9.7190   17.2566 C   0  0  0  0  0  0  0  0  0  0  0  0
    5.3488   -6.1737   26.5092 C   0  0  0  0  0  0  0  0  0  0  0  0
    7.4567   -6.9464   27.2858 C   0  0  0  0  0  0  0  0  0  0  0  0
    0.1921   -5.7592   27.1123 C   0  0  0  0  0  0  0  0  0  0  0  0
    3.5517   -7.7407   25.9711 C   0  0  0  0  0  0  0  0  0  0  0  0
  1  4  4  0
  1 22  4  0
  2 20  4  0
  2 27  4  0
  3 12  4  0
  3 23  4  0
  4 25  4  0
  4 28  1  0
  5  8  4  0
  5 17  4  0
  6  7  4  0
  6 16  4  0
  7 18  4  0
  8 27  4  0
  9 13  4  0
  9 23  4  0
 10 11  1  0
 11 14  2  0
 11 27  1  0
 12 19  1  0
 12 24  4  0
 13 24  4  0
 15 18  1  0
 16 25  4  0
 16 26  4  0
 17 20  4  0
 17 28  1  0
 18 21  4  0
 21 26  4  0
 22 26  4  0
M  END
$$$$

 Created by Python create_sdf_string function

 28 30  0  0  0  0  0  0  0  0999 V2000
    5.7174   -8.4529   26.7190 C   0  0  0  0  0  0  0  0  0  0  0  0
    0.3974   -7.0711   27.5149 C   0  0  0  0  0  0  0  0  0  0  0  0
    2.5338   -7.6891   16.0102 C   0  0  0  0  0  0  0  0  0  0  0  0
    4.8690   -7.4380   26.4151 C   0  0  0  0  0  0  0  0  0  0  0  0
    2.3021   -5.6726   26.0378 C   0  0  0  0  0  0  0  0  0  0  0  0
    7.0880   -4.6163   27.0010 C   0  0  0  0  0  0  0  0  0  0  0  0
    8.3117   -4.3698   27.4436 C   0  0  0  0  0  0  0  0  0  0  0  0
    1.1339   -5.0515   26.3541 C   0  0  0  0  0  0  0  0  0  0  0  0
    4.8080   -8.0362   16.7101 C   0  0  0  0  0  0  0  0  0  0  0  0
   -1.2173   -3.9294   26.9717 O   0  0  0  0  0  0  0  0  0  0  0  0
   -1.0025   -5.0942   27.4586 C   0  0  0  0  0  0  0  0  0  0  0  0
    2.2474   -8.9123   16.6273 C   0  0  0  0  0  0  0  0  0  0  0  0
    4.4957   -9.2636   17.3041 C   0  0  0  0  0  0  0  0  0  0  0  0
   -1.8070   -5.6086   28.1920 O   0  0  0  0  0  0  0  0  0  0  0  0
   10.4296   -5.1799   28.3140 C   0  0  0  0  0  0  0  0  0  0  0  0
    6.6017   -5.9004   26.9187 C   0  0  0  0  0  0  0  0  0  0  0  0
    2.4761   -6.9940   26.4111 N   0  0  0  0  0  0  0  0  0  0  0  0
    9.1353   -5.4053   27.8239 C   0  0  0  0  0  0  0  0  0  0  0  0
    0.9922   -9.3232   16.5995 O   0  0  0  0  0  0  0  0  0  0  0  0
    1.5232   -7.6869   27.1182 C   0  0  0  0  0  0  0  0  0  0  0  0
    8.6878   -6.6715   27.7262 N   0  0  0  0  0  0  0  0  0  0  0  0
    6.9911   -8.2423   27.1808 C   0  0  0  0  0  0  0  0  0  0  0  0
    3.8436   -7.2758   16.0578 C   0  0  0  0  0  0  0  0  0  0  0  0
    3.1882   -9.7190   17.2566 C   0  0  0  0  0  0  0  0  0  0  0  0
    5.3488   -6.1737   26.5092 C   0  0  0  0  0  0  0  0  0  0  0  0
    7.4567   -6.9464   27.2858 C   0  0  0  0  0  0  0  0  0  0  0  0
    0.1921   -5.7592   27.1123 C   0  0  0  0  0  0  0  0  0  0  0  0
    3.5517   -7.7407   25.9711 C   0  0  0  0  0  0  0  0  0  0  0  0
  1  4  4  0
  1 22  4  0
  2 20  4  0
  2 27  4  0
  3 12  4  0
  3 23  4  0
  4 25  4  0
  4 28  1  0
  5  8  4  0
  5 17  4  0
  6  7  4  0
  6 16  4  0
  7 18  4  0
  8 27  4  0
  9 13  4  0
  9 23  4  0
 10 11  1  0
 11 14  2  0
 11 27  1  0
 12 19  1  0
 12 24  4  0
 13 24  4  0
 15 18  1  0
 16 25  4  0
 16 26  4  0
 17 20  4  0
 17 28  1  0
 18 21  4  0
 21 26  4  0
 22 26  4  0
M  END
$$$$

 Created by Python create_sdf_string function

 28 30  0  0  0  0  0  0  0  0999 V2000
    5.7174   -8.4529   26.7190 C   0  0  0  0  0  0  0  0  0  0  0  0
    0.3974   -7.0711   27.5149 C   0  0  0  0  0  0  0  0  0  0  0  0
    2.5338   -7.6891   16.0102 C   0  0  0  0  0  0  0  0  0  0  0  0
    4.8690   -7.4380   26.4151 C   0  0  0  0  0  0  0  0  0  0  0  0
    2.3021   -5.6726   26.0378 C   0  0  0  0  0  0  0  0  0  0  0  0
    7.0880   -4.6163   27.0010 C   0  0  0  0  0  0  0  0  0  0  0  0
    8.3117   -4.3698   27.4436 C   0  0  0  0  0  0  0  0  0  0  0  0
    1.1339   -5.0515   26.3541 C   0  0  0  0  0  0  0  0  0  0  0  0
    4.8080   -8.0362   16.7101 C   0  0  0  0  0  0  0  0  0  0  0  0
   -1.2173   -3.9294   26.9717 O   0  0  0  0  0  0  0  0  0  0  0  0
   -1.0025   -5.0942   27.4586 C   0  0  0  0  0  0  0  0  0  0  0  0
    2.2474   -8.9123   16.6273 C   0  0  0  0  0  0  0  0  0  0  0  0
    4.4957   -9.2636   17.3041 C   0  0  0  0  0  0  0  0  0  0  0  0
   -1.8070   -5.6086   28.1920 O   0  0  0  0  0  0  0  0  0  0  0  0
   10.4296   -5.1799   28.3140 C   0  0  0  0  0  0  0  0  0  0  0  0
    6.6017   -5.9004   26.9187 C   0  0  0  0  0  0  0  0  0  0  0  0
    2.4761   -6.9940   26.4111 N   0  0  0  0  0  0  0  0  0  0  0  0
    9.1353   -5.4053   27.8239 C   0  0  0  0  0  0  0  0  0  0  0  0
    0.9922   -9.3232   16.5995 O   0  0  0  0  0  0  0  0  0  0  0  0
    1.5232   -7.6869   27.1182 C   0  0  0  0  0  0  0  0  0  0  0  0
    8.6878   -6.6715   27.7262 N   0  0  0  0  0  0  0  0  0  0  0  0
    6.9911   -8.2423   27.1808 C   0  0  0  0  0  0  0  0  0  0  0  0
    3.8436   -7.2758   16.0578 C   0  0  0  0  0  0  0  0  0  0  0  0
    3.1882   -9.7190   17.2566 C   0  0  0  0  0  0  0  0  0  0  0  0
    5.3488   -6.1737   26.5092 C   0  0  0  0  0  0  0  0  0  0  0  0
    7.4567   -6.9464   27.2858 C   0  0  0  0  0  0  0  0  0  0  0  0
    0.1921   -5.7592   27.1123 C   0  0  0  0  0  0  0  0  0  0  0  0
    3.5517   -7.7407   25.9711 C   0  0  0  0  0  0  0  0  0  0  0  0
  1  4  4  0
  1 22  4  0
  2 20  4  0
  2 27  4  0
  3 12  4  0
  3 23  4  0
  4 25  4  0
  4 28  1  0
  5  8  4  0
  5 17  4  0
  6  7  4  0
  6 16  4  0
  7 18  4  0
  8 27  4  0
  9 13  4  0
  9 23  4  0
 10 11  1  0
 11 14  2  0
 11 27  1  0
 12 19  1  0
 12 24  4  0
 13 24  4  0
 15 18  1  0
 16 25  4  0
 16 26  4  0
 17 20  4  0
 17 28  1  0
 18 21  4  0
 21 26  4  0
 22 26  4  0
M  END
$$$$

 Created by Python create_sdf_string function

 28 30  0  0  0  0  0  0  0  0999 V2000
    5.7174   -8.4529   26.7190 C   0  0  0  0  0  0  0  0  0  0  0  0
    0.3974   -7.0711   27.5149 C   0  0  0  0  0  0  0  0  0  0  0  0
    2.5338   -7.6891   16.0102 C   0  0  0  0  0  0  0  0  0  0  0  0
    4.8690   -7.4380   26.4151 C   0  0  0  0  0  0  0  0  0  0  0  0
    2.3021   -5.6726   26.0378 C   0  0  0  0  0  0  0  0  0  0  0  0
    7.0880   -4.6163   27.0010 C   0  0  0  0  0  0  0  0  0  0  0  0
    8.3117   -4.3698   27.4436 C   0  0  0  0  0  0  0  0  0  0  0  0
    1.1339   -5.0515   26.3541 C   0  0  0  0  0  0  0  0  0  0  0  0
    4.8080   -8.0362   16.7101 C   0  0  0  0  0  0  0  0  0  0  0  0
   -1.2173   -3.9294   26.9717 O   0  0  0  0  0  0  0  0  0  0  0  0
   -1.0025   -5.0942   27.4586 C   0  0  0  0  0  0  0  0  0  0  0  0
    2.2474   -8.9123   16.6273 C   0  0  0  0  0  0  0  0  0  0  0  0
    4.4957   -9.2636   17.3041 C   0  0  0  0  0  0  0  0  0  0  0  0
   -1.8070   -5.6086   28.1920 O   0  0  0  0  0  0  0  0  0  0  0  0
   10.4296   -5.1799   28.3140 C   0  0  0  0  0  0  0  0  0  0  0  0
    6.6017   -5.9004   26.9187 C   0  0  0  0  0  0  0  0  0  0  0  0
    2.4761   -6.9940   26.4111 N   0  0  0  0  0  0  0  0  0  0  0  0
    9.1353   -5.4053   27.8239 C   0  0  0  0  0  0  0  0  0  0  0  0
    0.9922   -9.3232   16.5995 O   0  0  0  0  0  0  0  0  0  0  0  0
    1.5232   -7.6869   27.1182 C   0  0  0  0  0  0  0  0  0  0  0  0
    8.6878   -6.6715   27.7262 N   0  0  0  0  0  0  0  0  0  0  0  0
    6.9911   -8.2423   27.1808 C   0  0  0  0  0  0  0  0  0  0  0  0
    3.8436   -7.2758   16.0578 C   0  0  0  0  0  0  0  0  0  0  0  0
    3.1882   -9.7190   17.2566 C   0  0  0  0  0  0  0  0  0  0  0  0
    5.3488   -6.1737   26.5092 C   0  0  0  0  0  0  0  0  0  0  0  0
    7.4567   -6.9464   27.2858 C   0  0  0  0  0  0  0  0  0  0  0  0
    0.1921   -5.7592   27.1123 C   0  0  0  0  0  0  0  0  0  0  0  0
    3.5517   -7.7407   25.9711 C   0  0  0  0  0  0  0  0  0  0  0  0
  1  4  4  0
  1 22  4  0
  2 20  4  0
  2 27  4  0
  3 12  4  0
  3 23  4  0
  4 25  4  0
  4 28  1  0
  5  8  4  0
  5 17  4  0
  6  7  4  0
  6 16  4  0
  7 18  4  0
  8 27  4  0
  9 13  4  0
  9 23  4  0
 10 11  1  0
 11 14  2  0
 11 27  1  0
 12 19  1  0
 12 24  4  0
 13 24  4  0
 15 18  1  0
 16 25  4  0
 16 26  4  0
 17 20  4  0
 17 28  1  0
 18 21  4  0
 21 26  4  0
 22 26  4  0
M  END
$$$$

 Created by Python create_sdf_string function

 28 30  0  0  0  0  0  0  0  0999 V2000
    5.7174   -8.4529   26.7190 C   0  0  0  0  0  0  0  0  0  0  0  0
    0.3974   -7.0711   27.5149 C   0  0  0  0  0  0  0  0  0  0  0  0
    2.5338   -7.6891   16.0102 C   0  0  0  0  0  0  0  0  0  0  0  0
    4.8690   -7.4380   26.4151 C   0  0  0  0  0  0  0  0  0  0  0  0
    2.3021   -5.6726   26.0378 C   0  0  0  0  0  0  0  0  0  0  0  0
    7.0880   -4.6163   27.0010 C   0  0  0  0  0  0  0  0  0  0  0  0
    8.3117   -4.3698   27.4436 C   0  0  0  0  0  0  0  0  0  0  0  0
    1.1339   -5.0515   26.3541 C   0  0  0  0  0  0  0  0  0  0  0  0
    4.8080   -8.0362   16.7101 C   0  0  0  0  0  0  0  0  0  0  0  0
   -1.2173   -3.9294   26.9717 O   0  0  0  0  0  0  0  0  0  0  0  0
   -1.0025   -5.0942   27.4586 C   0  0  0  0  0  0  0  0  0  0  0  0
    2.2474   -8.9123   16.6273 C   0  0  0  0  0  0  0  0  0  0  0  0
    4.4957   -9.2636   17.3041 C   0  0  0  0  0  0  0  0  0  0  0  0
   -1.8070   -5.6086   28.1920 O   0  0  0  0  0  0  0  0  0  0  0  0
   10.4296   -5.1799   28.3140 C   0  0  0  0  0  0  0  0  0  0  0  0
    6.6017   -5.9004   26.9187 C   0  0  0  0  0  0  0  0  0  0  0  0
    2.4761   -6.9940   26.4111 N   0  0  0  0  0  0  0  0  0  0  0  0
    9.1353   -5.4053   27.8239 C   0  0  0  0  0  0  0  0  0  0  0  0
    0.9922   -9.3232   16.5995 O   0  0  0  0  0  0  0  0  0  0  0  0
    1.5232   -7.6869   27.1182 C   0  0  0  0  0  0  0  0  0  0  0  0
    8.6878   -6.6715   27.7262 N   0  0  0  0  0  0  0  0  0  0  0  0
    6.9911   -8.2423   27.1808 C   0  0  0  0  0  0  0  0  0  0  0  0
    3.8436   -7.2758   16.0578 C   0  0  0  0  0  0  0  0  0  0  0  0
    3.1882   -9.7190   17.2566 C   0  0  0  0  0  0  0  0  0  0  0  0
    5.3488   -6.1737   26.5092 C   0  0  0  0  0  0  0  0  0  0  0  0
    7.4567   -6.9464   27.2858 C   0  0  0  0  0  0  0  0  0  0  0  0
    0.1921   -5.7592   27.1123 C   0  0  0  0  0  0  0  0  0  0  0  0
    3.5517   -7.7407   25.9711 C   0  0  0  0  0  0  0  0  0  0  0  0
  1  4  4  0
  1 22  4  0
  2 20  4  0
  2 27  4  0
  3 12  4  0
  3 23  4  0
  4 25  4  0
  4 28  1  0
  5  8  4  0
  5 17  4  0
  6  7  4  0
  6 16  4  0
  7 18  4  0
  8 27  4  0
  9 13  4  0
  9 23  4  0
 10 11  1  0
 11 14  2  0
 11 27  1  0
 12 19  1  0
 12 24  4  0
 13 24  4  0
 15 18  1  0
 16 25  4  0
 16 26  4  0
 17 20  4  0
 17 28  1  0
 18 21  4  0
 21 26  4  0
 22 26  4  0
M  END
$$$$

 Created by Python create_sdf_string function

 28 30  0  0  0  0  0  0  0  0999 V2000
    5.7174   -8.4529   26.7190 C   0  0  0  0  0  0  0  0  0  0  0  0
    0.3974   -7.0711   27.5149 C   0  0  0  0  0  0  0  0  0  0  0  0
    2.5338   -7.6891   16.0102 C   0  0  0  0  0  0  0  0  0  0  0  0
    4.8690   -7.4380   26.4151 C   0  0  0  0  0  0  0  0  0  0  0  0
    2.3021   -5.6726   26.0378 C   0  0  0  0  0  0  0  0  0  0  0  0
    7.0880   -4.6163   27.0010 C   0  0  0  0  0  0  0  0  0  0  0  0
    8.3117   -4.3698   27.4436 C   0  0  0  0  0  0  0  0  0  0  0  0
    1.1339   -5.0515   26.3541 C   0  0  0  0  0  0  0  0  0  0  0  0
    4.8080   -8.0362   16.7101 C   0  0  0  0  0  0  0  0  0  0  0  0
   -1.2173   -3.9294   26.9717 O   0  0  0  0  0  0  0  0  0  0  0  0
   -1.0025   -5.0942   27.4586 C   0  0  0  0  0  0  0  0  0  0  0  0
    2.2474   -8.9123   16.6273 C   0  0  0  0  0  0  0  0  0  0  0  0
    4.4957   -9.2636   17.3041 C   0  0  0  0  0  0  0  0  0  0  0  0
   -1.8070   -5.6086   28.1920 O   0  0  0  0  0  0  0  0  0  0  0  0
   10.4296   -5.1799   28.3140 C   0  0  0  0  0  0  0  0  0  0  0  0
    6.6017   -5.9004   26.9187 C   0  0  0  0  0  0  0  0  0  0  0  0
    2.4761   -6.9940   26.4111 N   0  0  0  0  0  0  0  0  0  0  0  0
    9.1353   -5.4053   27.8239 C   0  0  0  0  0  0  0  0  0  0  0  0
    0.9922   -9.3232   16.5995 O   0  0  0  0  0  0  0  0  0  0  0  0
    1.5232   -7.6869   27.1182 C   0  0  0  0  0  0  0  0  0  0  0  0
    8.6878   -6.6715   27.7262 N   0  0  0  0  0  0  0  0  0  0  0  0
    6.9911   -8.2423   27.1808 C   0  0  0  0  0  0  0  0  0  0  0  0
    3.8436   -7.2758   16.0578 C   0  0  0  0  0  0  0  0  0  0  0  0
    3.1882   -9.7190   17.2566 C   0  0  0  0  0  0  0  0  0  0  0  0
    5.3488   -6.1737   26.5092 C   0  0  0  0  0  0  0  0  0  0  0  0
    7.4567   -6.9464   27.2858 C   0  0  0  0  0  0  0  0  0  0  0  0
    0.1921   -5.7592   27.1123 C   0  0  0  0  0  0  0  0  0  0  0  0
    3.5517   -7.7407   25.9711 C   0  0  0  0  0  0  0  0  0  0  0  0
  1  4  4  0
  1 22  4  0
  2 20  4  0
  2 27  4  0
  3 12  4  0
  3 23  4  0
  4 25  4  0
  4 28  1  0
  5  8  4  0
  5 17  4  0
  6  7  4  0
  6 16  4  0
  7 18  4  0
  8 27  4  0
  9 13  4  0
  9 23  4  0
 10 11  1  0
 11 14  2  0
 11 27  1  0
 12 19  1  0
 12 24  4  0
 13 24  4  0
 15 18  1  0
 16 25  4  0
 16 26  4  0
 17 20  4  0
 17 28  1  0
 18 21  4  0
 21 26  4  0
 22 26  4  0
M  END
$$$$

 Created by Python create_sdf_string function

 28 30  0  0  0  0  0  0  0  0999 V2000
    5.7174   -8.4529   26.7190 C   0  0  0  0  0  0  0  0  0  0  0  0
    0.3974   -7.0711   27.5149 C   0  0  0  0  0  0  0  0  0  0  0  0
    2.5338   -7.6891   16.0102 C   0  0  0  0  0  0  0  0  0  0  0  0
    4.8690   -7.4380   26.4151 C   0  0  0  0  0  0  0  0  0  0  0  0
    2.3021   -5.6726   26.0378 C   0  0  0  0  0  0  0  0  0  0  0  0
    7.0880   -4.6163   27.0010 C   0  0  0  0  0  0  0  0  0  0  0  0
    8.3117   -4.3698   27.4436 C   0  0  0  0  0  0  0  0  0  0  0  0
    1.1339   -5.0515   26.3541 C   0  0  0  0  0  0  0  0  0  0  0  0
    4.8080   -8.0362   16.7101 C   0  0  0  0  0  0  0  0  0  0  0  0
   -1.2173   -3.9294   26.9717 O   0  0  0  0  0  0  0  0  0  0  0  0
   -1.0025   -5.0942   27.4586 C   0  0  0  0  0  0  0  0  0  0  0  0
    2.2474   -8.9123   16.6273 C   0  0  0  0  0  0  0  0  0  0  0  0
    4.4957   -9.2636   17.3041 C   0  0  0  0  0  0  0  0  0  0  0  0
   -1.8070   -5.6086   28.1920 O   0  0  0  0  0  0  0  0  0  0  0  0
   10.4296   -5.1799   28.3140 C   0  0  0  0  0  0  0  0  0  0  0  0
    6.6017   -5.9004   26.9187 C   0  0  0  0  0  0  0  0  0  0  0  0
    2.4761   -6.9940   26.4111 N   0  0  0  0  0  0  0  0  0  0  0  0
    9.1353   -5.4053   27.8239 C   0  0  0  0  0  0  0  0  0  0  0  0
    0.9922   -9.3232   16.5995 O   0  0  0  0  0  0  0  0  0  0  0  0
    1.5232   -7.6869   27.1182 C   0  0  0  0  0  0  0  0  0  0  0  0
    8.6878   -6.6715   27.7262 N   0  0  0  0  0  0  0  0  0  0  0  0
    6.9911   -8.2423   27.1808 C   0  0  0  0  0  0  0  0  0  0  0  0
    3.8436   -7.2758   16.0578 C   0  0  0  0  0  0  0  0  0  0  0  0
    3.1882   -9.7190   17.2566 C   0  0  0  0  0  0  0  0  0  0  0  0
    5.3488   -6.1737   26.5092 C   0  0  0  0  0  0  0  0  0  0  0  0
    7.4567   -6.9464   27.2858 C   0  0  0  0  0  0  0  0  0  0  0  0
    0.1921   -5.7592   27.1123 C   0  0  0  0  0  0  0  0  0  0  0  0
    3.5517   -7.7407   25.9711 C   0  0  0  0  0  0  0  0  0  0  0  0
  1  4  4  0
  1 22  4  0
  2 20  4  0
  2 27  4  0
  3 12  4  0
  3 23  4  0
  4 25  4  0
  4 28  1  0
  5  8  4  0
  5 17  4  0
  6  7  4  0
  6 16  4  0
  7 18  4  0
  8 27  4  0
  9 13  4  0
  9 23  4  0
 10 11  1  0
 11 14  2  0
 11 27  1  0
 12 19  1  0
 12 24  4  0
 13 24  4  0
 15 18  1  0
 16 25  4  0
 16 26  4  0
 17 20  4  0
 17 28  1  0
 18 21  4  0
 21 26  4  0
 22 26  4  0
M  END
$$$$

 Created by Python create_sdf_string function

 28 30  0  0  0  0  0  0  0  0999 V2000
    5.7174   -8.4529   26.7190 C   0  0  0  0  0  0  0  0  0  0  0  0
    0.3974   -7.0711   27.5149 C   0  0  0  0  0  0  0  0  0  0  0  0
    2.5338   -7.6891   16.0102 C   0  0  0  0  0  0  0  0  0  0  0  0
    4.8690   -7.4380   26.4151 C   0  0  0  0  0  0  0  0  0  0  0  0
    2.3021   -5.6726   26.0378 C   0  0  0  0  0  0  0  0  0  0  0  0
    7.0880   -4.6163   27.0010 C   0  0  0  0  0  0  0  0  0  0  0  0
    8.3117   -4.3698   27.4436 C   0  0  0  0  0  0  0  0  0  0  0  0
    1.1339   -5.0515   26.3541 C   0  0  0  0  0  0  0  0  0  0  0  0
    4.8080   -8.0362   16.7101 C   0  0  0  0  0  0  0  0  0  0  0  0
   -1.2173   -3.9294   26.9717 O   0  0  0  0  0  0  0  0  0  0  0  0
   -1.0025   -5.0942   27.4586 C   0  0  0  0  0  0  0  0  0  0  0  0
    2.2474   -8.9123   16.6273 C   0  0  0  0  0  0  0  0  0  0  0  0
    4.4957   -9.2636   17.3041 C   0  0  0  0  0  0  0  0  0  0  0  0
   -1.8070   -5.6086   28.1920 O   0  0  0  0  0  0  0  0  0  0  0  0
   10.4296   -5.1799   28.3140 C   0  0  0  0  0  0  0  0  0  0  0  0
    6.6017   -5.9004   26.9187 C   0  0  0  0  0  0  0  0  0  0  0  0
    2.4761   -6.9940   26.4111 N   0  0  0  0  0  0  0  0  0  0  0  0
    9.1353   -5.4053   27.8239 C   0  0  0  0  0  0  0  0  0  0  0  0
    0.9922   -9.3232   16.5995 O   0  0  0  0  0  0  0  0  0  0  0  0
    1.5232   -7.6869   27.1182 C   0  0  0  0  0  0  0  0  0  0  0  0
    8.6878   -6.6715   27.7262 N   0  0  0  0  0  0  0  0  0  0  0  0
    6.9911   -8.2423   27.1808 C   0  0  0  0  0  0  0  0  0  0  0  0
    3.8436   -7.2758   16.0578 C   0  0  0  0  0  0  0  0  0  0  0  0
    3.1882   -9.7190   17.2566 C   0  0  0  0  0  0  0  0  0  0  0  0
    5.3488   -6.1737   26.5092 C   0  0  0  0  0  0  0  0  0  0  0  0
    7.4567   -6.9464   27.2858 C   0  0  0  0  0  0  0  0  0  0  0  0
    0.1921   -5.7592   27.1123 C   0  0  0  0  0  0  0  0  0  0  0  0
    3.5517   -7.7407   25.9711 C   0  0  0  0  0  0  0  0  0  0  0  0
  1  4  4  0
  1 22  4  0
  2 20  4  0
  2 27  4  0
  3 12  4  0
  3 23  4  0
  4 25  4  0
  4 28  1  0
  5  8  4  0
  5 17  4  0
  6  7  4  0
  6 16  4  0
  7 18  4  0
  8 27  4  0
  9 13  4  0
  9 23  4  0
 10 11  1  0
 11 14  2  0
 11 27  1  0
 12 19  1  0
 12 24  4  0
 13 24  4  0
 15 18  1  0
 16 25  4  0
 16 26  4  0
 17 20  4  0
 17 28  1  0
 18 21  4  0
 21 26  4  0
 22 26  4  0
M  END
$$$$

 Created by Python create_sdf_string function

 28 30  0  0  0  0  0  0  0  0999 V2000
    5.7174   -8.4529   26.7190 C   0  0  0  0  0  0  0  0  0  0  0  0
    0.3974   -7.0711   27.5149 C   0  0  0  0  0  0  0  0  0  0  0  0
    2.5338   -7.6891   16.0102 C   0  0  0  0  0  0  0  0  0  0  0  0
    4.8690   -7.4380   26.4151 C   0  0  0  0  0  0  0  0  0  0  0  0
    2.3021   -5.6726   26.0378 C   0  0  0  0  0  0  0  0  0  0  0  0
    7.0880   -4.6163   27.0010 C   0  0  0  0  0  0  0  0  0  0  0  0
    8.3117   -4.3698   27.4436 C   0  0  0  0  0  0  0  0  0  0  0  0
    1.1339   -5.0515   26.3541 C   0  0  0  0  0  0  0  0  0  0  0  0
    4.8080   -8.0362   16.7101 C   0  0  0  0  0  0  0  0  0  0  0  0
   -1.2173   -3.9294   26.9717 O   0  0  0  0  0  0  0  0  0  0  0  0
   -1.0025   -5.0942   27.4586 C   0  0  0  0  0  0  0  0  0  0  0  0
    2.2474   -8.9123   16.6273 C   0  0  0  0  0  0  0  0  0  0  0  0
    4.4957   -9.2636   17.3041 C   0  0  0  0  0  0  0  0  0  0  0  0
   -1.8070   -5.6086   28.1920 O   0  0  0  0  0  0  0  0  0  0  0  0
   10.4296   -5.1799   28.3140 C   0  0  0  0  0  0  0  0  0  0  0  0
    6.6017   -5.9004   26.9187 C   0  0  0  0  0  0  0  0  0  0  0  0
    2.4761   -6.9940   26.4111 N   0  0  0  0  0  0  0  0  0  0  0  0
    9.1353   -5.4053   27.8239 C   0  0  0  0  0  0  0  0  0  0  0  0
    0.9922   -9.3232   16.5995 O   0  0  0  0  0  0  0  0  0  0  0  0
    1.5232   -7.6869   27.1182 C   0  0  0  0  0  0  0  0  0  0  0  0
    8.6878   -6.6715   27.7262 N   0  0  0  0  0  0  0  0  0  0  0  0
    6.9911   -8.2423   27.1808 C   0  0  0  0  0  0  0  0  0  0  0  0
    3.8436   -7.2758   16.0578 C   0  0  0  0  0  0  0  0  0  0  0  0
    3.1882   -9.7190   17.2566 C   0  0  0  0  0  0  0  0  0  0  0  0
    5.3488   -6.1737   26.5092 C   0  0  0  0  0  0  0  0  0  0  0  0
    7.4567   -6.9464   27.2858 C   0  0  0  0  0  0  0  0  0  0  0  0
    0.1921   -5.7592   27.1123 C   0  0  0  0  0  0  0  0  0  0  0  0
    3.5517   -7.7407   25.9711 C   0  0  0  0  0  0  0  0  0  0  0  0
  1  4  4  0
  1 22  4  0
  2 20  4  0
  2 27  4  0
  3 12  4  0
  3 23  4  0
  4 25  4  0
  4 28  1  0
  5  8  4  0
  5 17  4  0
  6  7  4  0
  6 16  4  0
  7 18  4  0
  8 27  4  0
  9 13  4  0
  9 23  4  0
 10 11  1  0
 11 14  2  0
 11 27  1  0
 12 19  1  0
 12 24  4  0
 13 24  4  0
 15 18  1  0
 16 25  4  0
 16 26  4  0
 17 20  4  0
 17 28  1  0
 18 21  4  0
 21 26  4  0
 22 26  4  0
M  END
$$$$

 Created by Python create_sdf_string function

 28 30  0  0  0  0  0  0  0  0999 V2000
    5.7174   -8.4529   26.7190 C   0  0  0  0  0  0  0  0  0  0  0  0
    0.3974   -7.0711   27.5149 C   0  0  0  0  0  0  0  0  0  0  0  0
    2.5338   -7.6891   16.0102 C   0  0  0  0  0  0  0  0  0  0  0  0
    4.8690   -7.4380   26.4151 C   0  0  0  0  0  0  0  0  0  0  0  0
    2.3021   -5.6726   26.0378 C   0  0  0  0  0  0  0  0  0  0  0  0
    7.0880   -4.6163   27.0010 C   0  0  0  0  0  0  0  0  0  0  0  0
    8.3117   -4.3698   27.4436 C   0  0  0  0  0  0  0  0  0  0  0  0
    1.1339   -5.0515   26.3541 C   0  0  0  0  0  0  0  0  0  0  0  0
    4.8080   -8.0362   16.7101 C   0  0  0  0  0  0  0  0  0  0  0  0
   -1.2173   -3.9294   26.9717 O   0  0  0  0  0  0  0  0  0  0  0  0
   -1.0025   -5.0942   27.4586 C   0  0  0  0  0  0  0  0  0  0  0  0
    2.2474   -8.9123   16.6273 C   0  0  0  0  0  0  0  0  0  0  0  0
    4.4957   -9.2636   17.3041 C   0  0  0  0  0  0  0  0  0  0  0  0
   -1.8070   -5.6086   28.1920 O   0  0  0  0  0  0  0  0  0  0  0  0
   10.4296   -5.1799   28.3140 C   0  0  0  0  0  0  0  0  0  0  0  0
    6.6017   -5.9004   26.9187 C   0  0  0  0  0  0  0  0  0  0  0  0
    2.4761   -6.9940   26.4111 N   0  0  0  0  0  0  0  0  0  0  0  0
    9.1353   -5.4053   27.8239 C   0  0  0  0  0  0  0  0  0  0  0  0
    0.9922   -9.3232   16.5995 O   0  0  0  0  0  0  0  0  0  0  0  0
    1.5232   -7.6869   27.1182 C   0  0  0  0  0  0  0  0  0  0  0  0
    8.6878   -6.6715   27.7262 N   0  0  0  0  0  0  0  0  0  0  0  0
    6.9911   -8.2423   27.1808 C   0  0  0  0  0  0  0  0  0  0  0  0
    3.8436   -7.2758   16.0578 C   0  0  0  0  0  0  0  0  0  0  0  0
    3.1882   -9.7190   17.2566 C   0  0  0  0  0  0  0  0  0  0  0  0
    5.3488   -6.1737   26.5092 C   0  0  0  0  0  0  0  0  0  0  0  0
    7.4567   -6.9464   27.2858 C   0  0  0  0  0  0  0  0  0  0  0  0
    0.1921   -5.7592   27.1123 C   0  0  0  0  0  0  0  0  0  0  0  0
    3.5517   -7.7407   25.9711 C   0  0  0  0  0  0  0  0  0  0  0  0
  1  4  4  0
  1 22  4  0
  2 20  4  0
  2 27  4  0
  3 12  4  0
  3 23  4  0
  4 25  4  0
  4 28  1  0
  5  8  4  0
  5 17  4  0
  6  7  4  0
  6 16  4  0
  7 18  4  0
  8 27  4  0
  9 13  4  0
  9 23  4  0
 10 11  1  0
 11 14  2  0
 11 27  1  0
 12 19  1  0
 12 24  4  0
 13 24  4  0
 15 18  1  0
 16 25  4  0
 16 26  4  0
 17 20  4  0
 17 28  1  0
 18 21  4  0
 21 26  4  0
 22 26  4  0
M  END
$$$$

 Created by Python create_sdf_string function

 28 30  0  0  0  0  0  0  0  0999 V2000
    5.7174   -8.4529   26.7190 C   0  0  0  0  0  0  0  0  0  0  0  0
    0.3974   -7.0711   27.5149 C   0  0  0  0  0  0  0  0  0  0  0  0
    2.5338   -7.6891   16.0102 C   0  0  0  0  0  0  0  0  0  0  0  0
    4.8690   -7.4380   26.4151 C   0  0  0  0  0  0  0  0  0  0  0  0
    2.3021   -5.6726   26.0378 C   0  0  0  0  0  0  0  0  0  0  0  0
    7.0880   -4.6163   27.0010 C   0  0  0  0  0  0  0  0  0  0  0  0
    8.3117   -4.3698   27.4436 C   0  0  0  0  0  0  0  0  0  0  0  0
    1.1339   -5.0515   26.3541 C   0  0  0  0  0  0  0  0  0  0  0  0
    4.8080   -8.0362   16.7101 C   0  0  0  0  0  0  0  0  0  0  0  0
   -1.2173   -3.9294   26.9717 O   0  0  0  0  0  0  0  0  0  0  0  0
   -1.0025   -5.0942   27.4586 C   0  0  0  0  0  0  0  0  0  0  0  0
    2.2474   -8.9123   16.6273 C   0  0  0  0  0  0  0  0  0  0  0  0
    4.4957   -9.2636   17.3041 C   0  0  0  0  0  0  0  0  0  0  0  0
   -1.8070   -5.6086   28.1920 O   0  0  0  0  0  0  0  0  0  0  0  0
   10.4296   -5.1799   28.3140 C   0  0  0  0  0  0  0  0  0  0  0  0
    6.6017   -5.9004   26.9187 C   0  0  0  0  0  0  0  0  0  0  0  0
    2.4761   -6.9940   26.4111 N   0  0  0  0  0  0  0  0  0  0  0  0
    9.1353   -5.4053   27.8239 C   0  0  0  0  0  0  0  0  0  0  0  0
    0.9922   -9.3232   16.5995 O   0  0  0  0  0  0  0  0  0  0  0  0
    1.5232   -7.6869   27.1182 C   0  0  0  0  0  0  0  0  0  0  0  0
    8.6878   -6.6715   27.7262 N   0  0  0  0  0  0  0  0  0  0  0  0
    6.9911   -8.2423   27.1808 C   0  0  0  0  0  0  0  0  0  0  0  0
    3.8436   -7.2758   16.0578 C   0  0  0  0  0  0  0  0  0  0  0  0
    3.1882   -9.7190   17.2566 C   0  0  0  0  0  0  0  0  0  0  0  0
    5.3488   -6.1737   26.5092 C   0  0  0  0  0  0  0  0  0  0  0  0
    7.4567   -6.9464   27.2858 C   0  0  0  0  0  0  0  0  0  0  0  0
    0.1921   -5.7592   27.1123 C   0  0  0  0  0  0  0  0  0  0  0  0
    3.5517   -7.7407   25.9711 C   0  0  0  0  0  0  0  0  0  0  0  0
  1  4  4  0
  1 22  4  0
  2 20  4  0
  2 27  4  0
  3 12  4  0
  3 23  4  0
  4 25  4  0
  4 28  1  0
  5  8  4  0
  5 17  4  0
  6  7  4  0
  6 16  4  0
  7 18  4  0
  8 27  4  0
  9 13  4  0
  9 23  4  0
 10 11  1  0
 11 14  2  0
 11 27  1  0
 12 19  1  0
 12 24  4  0
 13 24  4  0
 15 18  1  0
 16 25  4  0
 16 26  4  0
 17 20  4  0
 17 28  1  0
 18 21  4  0
 21 26  4  0
 22 26  4  0
M  END
$$$$

 Created by Python create_sdf_string function

 28 30  0  0  0  0  0  0  0  0999 V2000
    5.7174   -8.4529   26.7190 C   0  0  0  0  0  0  0  0  0  0  0  0
    0.3974   -7.0711   27.5149 C   0  0  0  0  0  0  0  0  0  0  0  0
    2.5338   -7.6891   16.0102 C   0  0  0  0  0  0  0  0  0  0  0  0
    4.8690   -7.4380   26.4151 C   0  0  0  0  0  0  0  0  0  0  0  0
    2.3021   -5.6726   26.0378 C   0  0  0  0  0  0  0  0  0  0  0  0
    7.0880   -4.6163   27.0010 C   0  0  0  0  0  0  0  0  0  0  0  0
    8.3117   -4.3698   27.4436 C   0  0  0  0  0  0  0  0  0  0  0  0
    1.1339   -5.0515   26.3541 C   0  0  0  0  0  0  0  0  0  0  0  0
    4.8080   -8.0362   16.7101 C   0  0  0  0  0  0  0  0  0  0  0  0
   -1.2173   -3.9294   26.9717 O   0  0  0  0  0  0  0  0  0  0  0  0
   -1.0025   -5.0942   27.4586 C   0  0  0  0  0  0  0  0  0  0  0  0
    2.2474   -8.9123   16.6273 C   0  0  0  0  0  0  0  0  0  0  0  0
    4.4957   -9.2636   17.3041 C   0  0  0  0  0  0  0  0  0  0  0  0
   -1.8070   -5.6086   28.1920 O   0  0  0  0  0  0  0  0  0  0  0  0
   10.4296   -5.1799   28.3140 C   0  0  0  0  0  0  0  0  0  0  0  0
    6.6017   -5.9004   26.9187 C   0  0  0  0  0  0  0  0  0  0  0  0
    2.4761   -6.9940   26.4111 N   0  0  0  0  0  0  0  0  0  0  0  0
    9.1353   -5.4053   27.8239 C   0  0  0  0  0  0  0  0  0  0  0  0
    0.9922   -9.3232   16.5995 O   0  0  0  0  0  0  0  0  0  0  0  0
    1.5232   -7.6869   27.1182 C   0  0  0  0  0  0  0  0  0  0  0  0
    8.6878   -6.6715   27.7262 N   0  0  0  0  0  0  0  0  0  0  0  0
    6.9911   -8.2423   27.1808 C   0  0  0  0  0  0  0  0  0  0  0  0
    3.8436   -7.2758   16.0578 C   0  0  0  0  0  0  0  0  0  0  0  0
    3.1882   -9.7190   17.2566 C   0  0  0  0  0  0  0  0  0  0  0  0
    5.3488   -6.1737   26.5092 C   0  0  0  0  0  0  0  0  0  0  0  0
    7.4567   -6.9464   27.2858 C   0  0  0  0  0  0  0  0  0  0  0  0
    0.1921   -5.7592   27.1123 C   0  0  0  0  0  0  0  0  0  0  0  0
    3.5517   -7.7407   25.9711 C   0  0  0  0  0  0  0  0  0  0  0  0
  1  4  4  0
  1 22  4  0
  2 20  4  0
  2 27  4  0
  3 12  4  0
  3 23  4  0
  4 25  4  0
  4 28  1  0
  5  8  4  0
  5 17  4  0
  6  7  4  0
  6 16  4  0
  7 18  4  0
  8 27  4  0
  9 13  4  0
  9 23  4  0
 10 11  1  0
 11 14  2  0
 11 27  1  0
 12 19  1  0
 12 24  4  0
 13 24  4  0
 15 18  1  0
 16 25  4  0
 16 26  4  0
 17 20  4  0
 17 28  1  0
 18 21  4  0
 21 26  4  0
 22 26  4  0
M  END
$$$$

 Created by Python create_sdf_string function

 28 30  0  0  0  0  0  0  0  0999 V2000
    5.7174   -8.4529   26.7190 C   0  0  0  0  0  0  0  0  0  0  0  0
    0.3974   -7.0711   27.5149 C   0  0  0  0  0  0  0  0  0  0  0  0
    2.5338   -7.6891   16.0102 C   0  0  0  0  0  0  0  0  0  0  0  0
    4.8690   -7.4380   26.4151 C   0  0  0  0  0  0  0  0  0  0  0  0
    2.3021   -5.6726   26.0378 C   0  0  0  0  0  0  0  0  0  0  0  0
    7.0880   -4.6163   27.0010 C   0  0  0  0  0  0  0  0  0  0  0  0
    8.3117   -4.3698   27.4436 C   0  0  0  0  0  0  0  0  0  0  0  0
    1.1339   -5.0515   26.3541 C   0  0  0  0  0  0  0  0  0  0  0  0
    4.8080   -8.0362   16.7101 C   0  0  0  0  0  0  0  0  0  0  0  0
   -1.2173   -3.9294   26.9717 O   0  0  0  0  0  0  0  0  0  0  0  0
   -1.0025   -5.0942   27.4586 C   0  0  0  0  0  0  0  0  0  0  0  0
    2.2474   -8.9123   16.6273 C   0  0  0  0  0  0  0  0  0  0  0  0
    4.4957   -9.2636   17.3041 C   0  0  0  0  0  0  0  0  0  0  0  0
   -1.8070   -5.6086   28.1920 O   0  0  0  0  0  0  0  0  0  0  0  0
   10.4296   -5.1799   28.3140 C   0  0  0  0  0  0  0  0  0  0  0  0
    6.6017   -5.9004   26.9187 C   0  0  0  0  0  0  0  0  0  0  0  0
    2.4761   -6.9940   26.4111 N   0  0  0  0  0  0  0  0  0  0  0  0
    9.1353   -5.4053   27.8239 C   0  0  0  0  0  0  0  0  0  0  0  0
    0.9922   -9.3232   16.5995 O   0  0  0  0  0  0  0  0  0  0  0  0
    1.5232   -7.6869   27.1182 C   0  0  0  0  0  0  0  0  0  0  0  0
    8.6878   -6.6715   27.7262 N   0  0  0  0  0  0  0  0  0  0  0  0
    6.9911   -8.2423   27.1808 C   0  0  0  0  0  0  0  0  0  0  0  0
    3.8436   -7.2758   16.0578 C   0  0  0  0  0  0  0  0  0  0  0  0
    3.1882   -9.7190   17.2566 C   0  0  0  0  0  0  0  0  0  0  0  0
    5.3488   -6.1737   26.5092 C   0  0  0  0  0  0  0  0  0  0  0  0
    7.4567   -6.9464   27.2858 C   0  0  0  0  0  0  0  0  0  0  0  0
    0.1921   -5.7592   27.1123 C   0  0  0  0  0  0  0  0  0  0  0  0
    3.5517   -7.7407   25.9711 C   0  0  0  0  0  0  0  0  0  0  0  0
  1  4  4  0
  1 22  4  0
  2 20  4  0
  2 27  4  0
  3 12  4  0
  3 23  4  0
  4 25  4  0
  4 28  1  0
  5  8  4  0
  5 17  4  0
  6  7  4  0
  6 16  4  0
  7 18  4  0
  8 27  4  0
  9 13  4  0
  9 23  4  0
 10 11  1  0
 11 14  2  0
 11 27  1  0
 12 19  1  0
 12 24  4  0
 13 24  4  0
 15 18  1  0
 16 25  4  0
 16 26  4  0
 17 20  4  0
 17 28  1  0
 18 21  4  0
 21 26  4  0
 22 26  4  0
M  END
$$$$

 Created by Python create_sdf_string function

 28 30  0  0  0  0  0  0  0  0999 V2000
    5.7174   -8.4529   26.7190 C   0  0  0  0  0  0  0  0  0  0  0  0
    0.3974   -7.0711   27.5149 C   0  0  0  0  0  0  0  0  0  0  0  0
    2.5338   -7.6891   16.0102 C   0  0  0  0  0  0  0  0  0  0  0  0
    4.8690   -7.4380   26.4151 C   0  0  0  0  0  0  0  0  0  0  0  0
    2.3021   -5.6726   26.0378 C   0  0  0  0  0  0  0  0  0  0  0  0
    7.0880   -4.6163   27.0010 C   0  0  0  0  0  0  0  0  0  0  0  0
    8.3117   -4.3698   27.4436 C   0  0  0  0  0  0  0  0  0  0  0  0
    1.1339   -5.0515   26.3541 C   0  0  0  0  0  0  0  0  0  0  0  0
    4.8080   -8.0362   16.7101 C   0  0  0  0  0  0  0  0  0  0  0  0
   -1.2173   -3.9294   26.9717 O   0  0  0  0  0  0  0  0  0  0  0  0
   -1.0025   -5.0942   27.4586 C   0  0  0  0  0  0  0  0  0  0  0  0
    2.2474   -8.9123   16.6273 C   0  0  0  0  0  0  0  0  0  0  0  0
    4.4957   -9.2636   17.3041 C   0  0  0  0  0  0  0  0  0  0  0  0
   -1.8070   -5.6086   28.1920 O   0  0  0  0  0  0  0  0  0  0  0  0
   10.4296   -5.1799   28.3140 C   0  0  0  0  0  0  0  0  0  0  0  0
    6.6017   -5.9004   26.9187 C   0  0  0  0  0  0  0  0  0  0  0  0
    2.4761   -6.9940   26.4111 N   0  0  0  0  0  0  0  0  0  0  0  0
    9.1353   -5.4053   27.8239 C   0  0  0  0  0  0  0  0  0  0  0  0
    0.9922   -9.3232   16.5995 O   0  0  0  0  0  0  0  0  0  0  0  0
    1.5232   -7.6869   27.1182 C   0  0  0  0  0  0  0  0  0  0  0  0
    8.6878   -6.6715   27.7262 N   0  0  0  0  0  0  0  0  0  0  0  0
    6.9911   -8.2423   27.1808 C   0  0  0  0  0  0  0  0  0  0  0  0
    3.8436   -7.2758   16.0578 C   0  0  0  0  0  0  0  0  0  0  0  0
    3.1882   -9.7190   17.2566 C   0  0  0  0  0  0  0  0  0  0  0  0
    5.3488   -6.1737   26.5092 C   0  0  0  0  0  0  0  0  0  0  0  0
    7.4567   -6.9464   27.2858 C   0  0  0  0  0  0  0  0  0  0  0  0
    0.1921   -5.7592   27.1123 C   0  0  0  0  0  0  0  0  0  0  0  0
    3.5517   -7.7407   25.9711 C   0  0  0  0  0  0  0  0  0  0  0  0
  1  4  4  0
  1 22  4  0
  2 20  4  0
  2 27  4  0
  3 12  4  0
  3 23  4  0
  4 25  4  0
  4 28  1  0
  5  8  4  0
  5 17  4  0
  6  7  4  0
  6 16  4  0
  7 18  4  0
  8 27  4  0
  9 13  4  0
  9 23  4  0
 10 11  1  0
 11 14  2  0
 11 27  1  0
 12 19  1  0
 12 24  4  0
 13 24  4  0
 15 18  1  0
 16 25  4  0
 16 26  4  0
 17 20  4  0
 17 28  1  0
 18 21  4  0
 21 26  4  0
 22 26  4  0
M  END
$$$$

 Created by Python create_sdf_string function

 28 30  0  0  0  0  0  0  0  0999 V2000
    5.7174   -8.4529   26.7190 C   0  0  0  0  0  0  0  0  0  0  0  0
    0.3974   -7.0711   27.5149 C   0  0  0  0  0  0  0  0  0  0  0  0
    2.5338   -7.6891   16.0102 C   0  0  0  0  0  0  0  0  0  0  0  0
    4.8690   -7.4380   26.4151 C   0  0  0  0  0  0  0  0  0  0  0  0
    2.3021   -5.6726   26.0378 C   0  0  0  0  0  0  0  0  0  0  0  0
    7.0880   -4.6163   27.0010 C   0  0  0  0  0  0  0  0  0  0  0  0
    8.3117   -4.3698   27.4436 C   0  0  0  0  0  0  0  0  0  0  0  0
    1.1339   -5.0515   26.3541 C   0  0  0  0  0  0  0  0  0  0  0  0
    4.8080   -8.0362   16.7101 C   0  0  0  0  0  0  0  0  0  0  0  0
   -1.2173   -3.9294   26.9717 O   0  0  0  0  0  0  0  0  0  0  0  0
   -1.0025   -5.0942   27.4586 C   0  0  0  0  0  0  0  0  0  0  0  0
    2.2474   -8.9123   16.6273 C   0  0  0  0  0  0  0  0  0  0  0  0
    4.4957   -9.2636   17.3041 C   0  0  0  0  0  0  0  0  0  0  0  0
   -1.8070   -5.6086   28.1920 O   0  0  0  0  0  0  0  0  0  0  0  0
   10.4296   -5.1799   28.3140 C   0  0  0  0  0  0  0  0  0  0  0  0
    6.6017   -5.9004   26.9187 C   0  0  0  0  0  0  0  0  0  0  0  0
    2.4761   -6.9940   26.4111 N   0  0  0  0  0  0  0  0  0  0  0  0
    9.1353   -5.4053   27.8239 C   0  0  0  0  0  0  0  0  0  0  0  0
    0.9922   -9.3232   16.5995 O   0  0  0  0  0  0  0  0  0  0  0  0
    1.5232   -7.6869   27.1182 C   0  0  0  0  0  0  0  0  0  0  0  0
    8.6878   -6.6715   27.7262 N   0  0  0  0  0  0  0  0  0  0  0  0
    6.9911   -8.2423   27.1808 C   0  0  0  0  0  0  0  0  0  0  0  0
    3.8436   -7.2758   16.0578 C   0  0  0  0  0  0  0  0  0  0  0  0
    3.1882   -9.7190   17.2566 C   0  0  0  0  0  0  0  0  0  0  0  0
    5.3488   -6.1737   26.5092 C   0  0  0  0  0  0  0  0  0  0  0  0
    7.4567   -6.9464   27.2858 C   0  0  0  0  0  0  0  0  0  0  0  0
    0.1921   -5.7592   27.1123 C   0  0  0  0  0  0  0  0  0  0  0  0
    3.5517   -7.7407   25.9711 C   0  0  0  0  0  0  0  0  0  0  0  0
  1  4  4  0
  1 22  4  0
  2 20  4  0
  2 27  4  0
  3 12  4  0
  3 23  4  0
  4 25  4  0
  4 28  1  0
  5  8  4  0
  5 17  4  0
  6  7  4  0
  6 16  4  0
  7 18  4  0
  8 27  4  0
  9 13  4  0
  9 23  4  0
 10 11  1  0
 11 14  2  0
 11 27  1  0
 12 19  1  0
 12 24  4  0
 13 24  4  0
 15 18  1  0
 16 25  4  0
 16 26  4  0
 17 20  4  0
 17 28  1  0
 18 21  4  0
 21 26  4  0
 22 26  4  0
M  END
$$$$

 Created by Python create_sdf_string function

 28 30  0  0  0  0  0  0  0  0999 V2000
    5.7174   -8.4529   26.7190 C   0  0  0  0  0  0  0  0  0  0  0  0
    0.3974   -7.0711   27.5149 C   0  0  0  0  0  0  0  0  0  0  0  0
    2.5338   -7.6891   16.0102 C   0  0  0  0  0  0  0  0  0  0  0  0
    4.8690   -7.4380   26.4151 C   0  0  0  0  0  0  0  0  0  0  0  0
    2.3021   -5.6726   26.0378 C   0  0  0  0  0  0  0  0  0  0  0  0
    7.0880   -4.6163   27.0010 C   0  0  0  0  0  0  0  0  0  0  0  0
    8.3117   -4.3698   27.4436 C   0  0  0  0  0  0  0  0  0  0  0  0
    1.1339   -5.0515   26.3541 C   0  0  0  0  0  0  0  0  0  0  0  0
    4.8080   -8.0362   16.7101 C   0  0  0  0  0  0  0  0  0  0  0  0
   -1.2173   -3.9294   26.9717 O   0  0  0  0  0  0  0  0  0  0  0  0
   -1.0025   -5.0942   27.4586 C   0  0  0  0  0  0  0  0  0  0  0  0
    2.2474   -8.9123   16.6273 C   0  0  0  0  0  0  0  0  0  0  0  0
    4.4957   -9.2636   17.3041 C   0  0  0  0  0  0  0  0  0  0  0  0
   -1.8070   -5.6086   28.1920 O   0  0  0  0  0  0  0  0  0  0  0  0
   10.4296   -5.1799   28.3140 C   0  0  0  0  0  0  0  0  0  0  0  0
    6.6017   -5.9004   26.9187 C   0  0  0  0  0  0  0  0  0  0  0  0
    2.4761   -6.9940   26.4111 N   0  0  0  0  0  0  0  0  0  0  0  0
    9.1353   -5.4053   27.8239 C   0  0  0  0  0  0  0  0  0  0  0  0
    0.9922   -9.3232   16.5995 O   0  0  0  0  0  0  0  0  0  0  0  0
    1.5232   -7.6869   27.1182 C   0  0  0  0  0  0  0  0  0  0  0  0
    8.6878   -6.6715   27.7262 N   0  0  0  0  0  0  0  0  0  0  0  0
    6.9911   -8.2423   27.1808 C   0  0  0  0  0  0  0  0  0  0  0  0
    3.8436   -7.2758   16.0578 C   0  0  0  0  0  0  0  0  0  0  0  0
    3.1882   -9.7190   17.2566 C   0  0  0  0  0  0  0  0  0  0  0  0
    5.3488   -6.1737   26.5092 C   0  0  0  0  0  0  0  0  0  0  0  0
    7.4567   -6.9464   27.2858 C   0  0  0  0  0  0  0  0  0  0  0  0
    0.1921   -5.7592   27.1123 C   0  0  0  0  0  0  0  0  0  0  0  0
    3.5517   -7.7407   25.9711 C   0  0  0  0  0  0  0  0  0  0  0  0
  1  4  4  0
  1 22  4  0
  2 20  4  0
  2 27  4  0
  3 12  4  0
  3 23  4  0
  4 25  4  0
  4 28  1  0
  5  8  4  0
  5 17  4  0
  6  7  4  0
  6 16  4  0
  7 18  4  0
  8 27  4  0
  9 13  4  0
  9 23  4  0
 10 11  1  0
 11 14  2  0
 11 27  1  0
 12 19  1  0
 12 24  4  0
 13 24  4  0
 15 18  1  0
 16 25  4  0
 16 26  4  0
 17 20  4  0
 17 28  1  0
 18 21  4  0
 21 26  4  0
 22 26  4  0
M  END
$$$$

 Created by Python create_sdf_string function

 28 30  0  0  0  0  0  0  0  0999 V2000
    5.7174   -8.4529   26.7190 C   0  0  0  0  0  0  0  0  0  0  0  0
    0.3974   -7.0711   27.5149 C   0  0  0  0  0  0  0  0  0  0  0  0
    2.5338   -7.6891   16.0102 C   0  0  0  0  0  0  0  0  0  0  0  0
    4.8690   -7.4380   26.4151 C   0  0  0  0  0  0  0  0  0  0  0  0
    2.3021   -5.6726   26.0378 C   0  0  0  0  0  0  0  0  0  0  0  0
    7.0880   -4.6163   27.0010 C   0  0  0  0  0  0  0  0  0  0  0  0
    8.3117   -4.3698   27.4436 C   0  0  0  0  0  0  0  0  0  0  0  0
    1.1339   -5.0515   26.3541 C   0  0  0  0  0  0  0  0  0  0  0  0
    4.8080   -8.0362   16.7101 C   0  0  0  0  0  0  0  0  0  0  0  0
   -1.2173   -3.9294   26.9717 O   0  0  0  0  0  0  0  0  0  0  0  0
   -1.0025   -5.0942   27.4586 C   0  0  0  0  0  0  0  0  0  0  0  0
    2.2474   -8.9123   16.6273 C   0  0  0  0  0  0  0  0  0  0  0  0
    4.4957   -9.2636   17.3041 C   0  0  0  0  0  0  0  0  0  0  0  0
   -1.8070   -5.6086   28.1920 O   0  0  0  0  0  0  0  0  0  0  0  0
   10.4296   -5.1799   28.3140 C   0  0  0  0  0  0  0  0  0  0  0  0
    6.6017   -5.9004   26.9187 C   0  0  0  0  0  0  0  0  0  0  0  0
    2.4761   -6.9940   26.4111 N   0  0  0  0  0  0  0  0  0  0  0  0
    9.1353   -5.4053   27.8239 C   0  0  0  0  0  0  0  0  0  0  0  0
    0.9922   -9.3232   16.5995 O   0  0  0  0  0  0  0  0  0  0  0  0
    1.5232   -7.6869   27.1182 C   0  0  0  0  0  0  0  0  0  0  0  0
    8.6878   -6.6715   27.7262 N   0  0  0  0  0  0  0  0  0  0  0  0
    6.9911   -8.2423   27.1808 C   0  0  0  0  0  0  0  0  0  0  0  0
    3.8436   -7.2758   16.0578 C   0  0  0  0  0  0  0  0  0  0  0  0
    3.1882   -9.7190   17.2566 C   0  0  0  0  0  0  0  0  0  0  0  0
    5.3488   -6.1737   26.5092 C   0  0  0  0  0  0  0  0  0  0  0  0
    7.4567   -6.9464   27.2858 C   0  0  0  0  0  0  0  0  0  0  0  0
    0.1921   -5.7592   27.1123 C   0  0  0  0  0  0  0  0  0  0  0  0
    3.5517   -7.7407   25.9711 C   0  0  0  0  0  0  0  0  0  0  0  0
  1  4  4  0
  1 22  4  0
  2 20  4  0
  2 27  4  0
  3 12  4  0
  3 23  4  0
  4 25  4  0
  4 28  1  0
  5  8  4  0
  5 17  4  0
  6  7  4  0
  6 16  4  0
  7 18  4  0
  8 27  4  0
  9 13  4  0
  9 23  4  0
 10 11  1  0
 11 14  2  0
 11 27  1  0
 12 19  1  0
 12 24  4  0
 13 24  4  0
 15 18  1  0
 16 25  4  0
 16 26  4  0
 17 20  4  0
 17 28  1  0
 18 21  4  0
 21 26  4  0
 22 26  4  0
M  END
$$$$

 Created by Python create_sdf_string function

 28 30  0  0  0  0  0  0  0  0999 V2000
    5.7174   -8.4529   26.7190 C   0  0  0  0  0  0  0  0  0  0  0  0
    0.3974   -7.0711   27.5149 C   0  0  0  0  0  0  0  0  0  0  0  0
    2.5338   -7.6891   16.0102 C   0  0  0  0  0  0  0  0  0  0  0  0
    4.8690   -7.4380   26.4151 C   0  0  0  0  0  0  0  0  0  0  0  0
    2.3021   -5.6726   26.0378 C   0  0  0  0  0  0  0  0  0  0  0  0
    7.0880   -4.6163   27.0010 C   0  0  0  0  0  0  0  0  0  0  0  0
    8.3117   -4.3698   27.4436 C   0  0  0  0  0  0  0  0  0  0  0  0
    1.1339   -5.0515   26.3541 C   0  0  0  0  0  0  0  0  0  0  0  0
    4.8080   -8.0362   16.7101 C   0  0  0  0  0  0  0  0  0  0  0  0
   -1.2173   -3.9294   26.9717 O   0  0  0  0  0  0  0  0  0  0  0  0
   -1.0025   -5.0942   27.4586 C   0  0  0  0  0  0  0  0  0  0  0  0
    2.2474   -8.9123   16.6273 C   0  0  0  0  0  0  0  0  0  0  0  0
    4.4957   -9.2636   17.3041 C   0  0  0  0  0  0  0  0  0  0  0  0
   -1.8070   -5.6086   28.1920 O   0  0  0  0  0  0  0  0  0  0  0  0
   10.4296   -5.1799   28.3140 C   0  0  0  0  0  0  0  0  0  0  0  0
    6.6017   -5.9004   26.9187 C   0  0  0  0  0  0  0  0  0  0  0  0
    2.4761   -6.9940   26.4111 N   0  0  0  0  0  0  0  0  0  0  0  0
    9.1353   -5.4053   27.8239 C   0  0  0  0  0  0  0  0  0  0  0  0
    0.9922   -9.3232   16.5995 O   0  0  0  0  0  0  0  0  0  0  0  0
    1.5232   -7.6869   27.1182 C   0  0  0  0  0  0  0  0  0  0  0  0
    8.6878   -6.6715   27.7262 N   0  0  0  0  0  0  0  0  0  0  0  0
    6.9911   -8.2423   27.1808 C   0  0  0  0  0  0  0  0  0  0  0  0
    3.8436   -7.2758   16.0578 C   0  0  0  0  0  0  0  0  0  0  0  0
    3.1882   -9.7190   17.2566 C   0  0  0  0  0  0  0  0  0  0  0  0
    5.3488   -6.1737   26.5092 C   0  0  0  0  0  0  0  0  0  0  0  0
    7.4567   -6.9464   27.2858 C   0  0  0  0  0  0  0  0  0  0  0  0
    0.1921   -5.7592   27.1123 C   0  0  0  0  0  0  0  0  0  0  0  0
    3.5517   -7.7407   25.9711 C   0  0  0  0  0  0  0  0  0  0  0  0
  1  4  4  0
  1 22  4  0
  2 20  4  0
  2 27  4  0
  3 12  4  0
  3 23  4  0
  4 25  4  0
  4 28  1  0
  5  8  4  0
  5 17  4  0
  6  7  4  0
  6 16  4  0
  7 18  4  0
  8 27  4  0
  9 13  4  0
  9 23  4  0
 10 11  1  0
 11 14  2  0
 11 27  1  0
 12 19  1  0
 12 24  4  0
 13 24  4  0
 15 18  1  0
 16 25  4  0
 16 26  4  0
 17 20  4  0
 17 28  1  0
 18 21  4  0
 21 26  4  0
 22 26  4  0
M  END
$$$$

 Created by Python create_sdf_string function

 28 30  0  0  0  0  0  0  0  0999 V2000
    5.7174   -8.4529   26.7190 C   0  0  0  0  0  0  0  0  0  0  0  0
    0.3974   -7.0711   27.5149 C   0  0  0  0  0  0  0  0  0  0  0  0
    2.5338   -7.6891   16.0102 C   0  0  0  0  0  0  0  0  0  0  0  0
    4.8690   -7.4380   26.4151 C   0  0  0  0  0  0  0  0  0  0  0  0
    2.3021   -5.6726   26.0378 C   0  0  0  0  0  0  0  0  0  0  0  0
    7.0880   -4.6163   27.0010 C   0  0  0  0  0  0  0  0  0  0  0  0
    8.3117   -4.3698   27.4436 C   0  0  0  0  0  0  0  0  0  0  0  0
    1.1339   -5.0515   26.3541 C   0  0  0  0  0  0  0  0  0  0  0  0
    4.8080   -8.0362   16.7101 C   0  0  0  0  0  0  0  0  0  0  0  0
   -1.2173   -3.9294   26.9717 O   0  0  0  0  0  0  0  0  0  0  0  0
   -1.0025   -5.0942   27.4586 C   0  0  0  0  0  0  0  0  0  0  0  0
    2.2474   -8.9123   16.6273 C   0  0  0  0  0  0  0  0  0  0  0  0
    4.4957   -9.2636   17.3041 C   0  0  0  0  0  0  0  0  0  0  0  0
   -1.8070   -5.6086   28.1920 O   0  0  0  0  0  0  0  0  0  0  0  0
   10.4296   -5.1799   28.3140 C   0  0  0  0  0  0  0  0  0  0  0  0
    6.6017   -5.9004   26.9187 C   0  0  0  0  0  0  0  0  0  0  0  0
    2.4761   -6.9940   26.4111 N   0  0  0  0  0  0  0  0  0  0  0  0
    9.1353   -5.4053   27.8239 C   0  0  0  0  0  0  0  0  0  0  0  0
    0.9922   -9.3232   16.5995 O   0  0  0  0  0  0  0  0  0  0  0  0
    1.5232   -7.6869   27.1182 C   0  0  0  0  0  0  0  0  0  0  0  0
    8.6878   -6.6715   27.7262 N   0  0  0  0  0  0  0  0  0  0  0  0
    6.9911   -8.2423   27.1808 C   0  0  0  0  0  0  0  0  0  0  0  0
    3.8436   -7.2758   16.0578 C   0  0  0  0  0  0  0  0  0  0  0  0
    3.1882   -9.7190   17.2566 C   0  0  0  0  0  0  0  0  0  0  0  0
    5.3488   -6.1737   26.5092 C   0  0  0  0  0  0  0  0  0  0  0  0
    7.4567   -6.9464   27.2858 C   0  0  0  0  0  0  0  0  0  0  0  0
    0.1921   -5.7592   27.1123 C   0  0  0  0  0  0  0  0  0  0  0  0
    3.5517   -7.7407   25.9711 C   0  0  0  0  0  0  0  0  0  0  0  0
  1  4  4  0
  1 22  4  0
  2 20  4  0
  2 27  4  0
  3 12  4  0
  3 23  4  0
  4 25  4  0
  4 28  1  0
  5  8  4  0
  5 17  4  0
  6  7  4  0
  6 16  4  0
  7 18  4  0
  8 27  4  0
  9 13  4  0
  9 23  4  0
 10 11  1  0
 11 14  2  0
 11 27  1  0
 12 19  1  0
 12 24  4  0
 13 24  4  0
 15 18  1  0
 16 25  4  0
 16 26  4  0
 17 20  4  0
 17 28  1  0
 18 21  4  0
 21 26  4  0
 22 26  4  0
M  END
$$$$

 Created by Python create_sdf_string function

 28 30  0  0  0  0  0  0  0  0999 V2000
    5.7174   -8.4529   26.7190 C   0  0  0  0  0  0  0  0  0  0  0  0
    0.3974   -7.0711   27.5149 C   0  0  0  0  0  0  0  0  0  0  0  0
    2.5338   -7.6891   16.0102 C   0  0  0  0  0  0  0  0  0  0  0  0
    4.8690   -7.4380   26.4151 C   0  0  0  0  0  0  0  0  0  0  0  0
    2.3021   -5.6726   26.0378 C   0  0  0  0  0  0  0  0  0  0  0  0
    7.0880   -4.6163   27.0010 C   0  0  0  0  0  0  0  0  0  0  0  0
    8.3117   -4.3698   27.4436 C   0  0  0  0  0  0  0  0  0  0  0  0
    1.1339   -5.0515   26.3541 C   0  0  0  0  0  0  0  0  0  0  0  0
    4.8080   -8.0362   16.7101 C   0  0  0  0  0  0  0  0  0  0  0  0
   -1.2173   -3.9294   26.9717 O   0  0  0  0  0  0  0  0  0  0  0  0
   -1.0025   -5.0942   27.4586 C   0  0  0  0  0  0  0  0  0  0  0  0
    2.2474   -8.9123   16.6273 C   0  0  0  0  0  0  0  0  0  0  0  0
    4.4957   -9.2636   17.3041 C   0  0  0  0  0  0  0  0  0  0  0  0
   -1.8070   -5.6086   28.1920 O   0  0  0  0  0  0  0  0  0  0  0  0
   10.4296   -5.1799   28.3140 C   0  0  0  0  0  0  0  0  0  0  0  0
    6.6017   -5.9004   26.9187 C   0  0  0  0  0  0  0  0  0  0  0  0
    2.4761   -6.9940   26.4111 N   0  0  0  0  0  0  0  0  0  0  0  0
    9.1353   -5.4053   27.8239 C   0  0  0  0  0  0  0  0  0  0  0  0
    0.9922   -9.3232   16.5995 O   0  0  0  0  0  0  0  0  0  0  0  0
    1.5232   -7.6869   27.1182 C   0  0  0  0  0  0  0  0  0  0  0  0
    8.6878   -6.6715   27.7262 N   0  0  0  0  0  0  0  0  0  0  0  0
    6.9911   -8.2423   27.1808 C   0  0  0  0  0  0  0  0  0  0  0  0
    3.8436   -7.2758   16.0578 C   0  0  0  0  0  0  0  0  0  0  0  0
    3.1882   -9.7190   17.2566 C   0  0  0  0  0  0  0  0  0  0  0  0
    5.3488   -6.1737   26.5092 C   0  0  0  0  0  0  0  0  0  0  0  0
    7.4567   -6.9464   27.2858 C   0  0  0  0  0  0  0  0  0  0  0  0
    0.1921   -5.7592   27.1123 C   0  0  0  0  0  0  0  0  0  0  0  0
    3.5517   -7.7407   25.9711 C   0  0  0  0  0  0  0  0  0  0  0  0
  1  4  4  0
  1 22  4  0
  2 20  4  0
  2 27  4  0
  3 12  4  0
  3 23  4  0
  4 25  4  0
  4 28  1  0
  5  8  4  0
  5 17  4  0
  6  7  4  0
  6 16  4  0
  7 18  4  0
  8 27  4  0
  9 13  4  0
  9 23  4  0
 10 11  1  0
 11 14  2  0
 11 27  1  0
 12 19  1  0
 12 24  4  0
 13 24  4  0
 15 18  1  0
 16 25  4  0
 16 26  4  0
 17 20  4  0
 17 28  1  0
 18 21  4  0
 21 26  4  0
 22 26  4  0
M  END
$$$$

 Created by Python create_sdf_string function

 28 30  0  0  0  0  0  0  0  0999 V2000
    5.7174   -8.4529   26.7190 C   0  0  0  0  0  0  0  0  0  0  0  0
    0.3974   -7.0711   27.5149 C   0  0  0  0  0  0  0  0  0  0  0  0
    2.5338   -7.6891   16.0102 C   0  0  0  0  0  0  0  0  0  0  0  0
    4.8690   -7.4380   26.4151 C   0  0  0  0  0  0  0  0  0  0  0  0
    2.3021   -5.6726   26.0378 C   0  0  0  0  0  0  0  0  0  0  0  0
    7.0880   -4.6163   27.0010 C   0  0  0  0  0  0  0  0  0  0  0  0
    8.3117   -4.3698   27.4436 C   0  0  0  0  0  0  0  0  0  0  0  0
    1.1339   -5.0515   26.3541 C   0  0  0  0  0  0  0  0  0  0  0  0
    4.8080   -8.0362   16.7101 C   0  0  0  0  0  0  0  0  0  0  0  0
   -1.2173   -3.9294   26.9717 O   0  0  0  0  0  0  0  0  0  0  0  0
   -1.0025   -5.0942   27.4586 C   0  0  0  0  0  0  0  0  0  0  0  0
    2.2474   -8.9123   16.6273 C   0  0  0  0  0  0  0  0  0  0  0  0
    4.4957   -9.2636   17.3041 C   0  0  0  0  0  0  0  0  0  0  0  0
   -1.8070   -5.6086   28.1920 O   0  0  0  0  0  0  0  0  0  0  0  0
   10.4296   -5.1799   28.3140 C   0  0  0  0  0  0  0  0  0  0  0  0
    6.6017   -5.9004   26.9187 C   0  0  0  0  0  0  0  0  0  0  0  0
    2.4761   -6.9940   26.4111 N   0  0  0  0  0  0  0  0  0  0  0  0
    9.1353   -5.4053   27.8239 C   0  0  0  0  0  0  0  0  0  0  0  0
    0.9922   -9.3232   16.5995 O   0  0  0  0  0  0  0  0  0  0  0  0
    1.5232   -7.6869   27.1182 C   0  0  0  0  0  0  0  0  0  0  0  0
    8.6878   -6.6715   27.7262 N   0  0  0  0  0  0  0  0  0  0  0  0
    6.9911   -8.2423   27.1808 C   0  0  0  0  0  0  0  0  0  0  0  0
    3.8436   -7.2758   16.0578 C   0  0  0  0  0  0  0  0  0  0  0  0
    3.1882   -9.7190   17.2566 C   0  0  0  0  0  0  0  0  0  0  0  0
    5.3488   -6.1737   26.5092 C   0  0  0  0  0  0  0  0  0  0  0  0
    7.4567   -6.9464   27.2858 C   0  0  0  0  0  0  0  0  0  0  0  0
    0.1921   -5.7592   27.1123 C   0  0  0  0  0  0  0  0  0  0  0  0
    3.5517   -7.7407   25.9711 C   0  0  0  0  0  0  0  0  0  0  0  0
  1  4  4  0
  1 22  4  0
  2 20  4  0
  2 27  4  0
  3 12  4  0
  3 23  4  0
  4 25  4  0
  4 28  1  0
  5  8  4  0
  5 17  4  0
  6  7  4  0
  6 16  4  0
  7 18  4  0
  8 27  4  0
  9 13  4  0
  9 23  4  0
 10 11  1  0
 11 14  2  0
 11 27  1  0
 12 19  1  0
 12 24  4  0
 13 24  4  0
 15 18  1  0
 16 25  4  0
 16 26  4  0
 17 20  4  0
 17 28  1  0
 18 21  4  0
 21 26  4  0
 22 26  4  0
M  END
$$$$

 Created by Python create_sdf_string function

 28 30  0  0  0  0  0  0  0  0999 V2000
    5.7174   -8.4529   26.7190 C   0  0  0  0  0  0  0  0  0  0  0  0
    0.3974   -7.0711   27.5149 C   0  0  0  0  0  0  0  0  0  0  0  0
    2.5338   -7.6891   16.0102 C   0  0  0  0  0  0  0  0  0  0  0  0
    4.8690   -7.4380   26.4151 C   0  0  0  0  0  0  0  0  0  0  0  0
    2.3021   -5.6726   26.0378 C   0  0  0  0  0  0  0  0  0  0  0  0
    7.0880   -4.6163   27.0010 C   0  0  0  0  0  0  0  0  0  0  0  0
    8.3117   -4.3698   27.4436 C   0  0  0  0  0  0  0  0  0  0  0  0
    1.1339   -5.0515   26.3541 C   0  0  0  0  0  0  0  0  0  0  0  0
    4.8080   -8.0362   16.7101 C   0  0  0  0  0  0  0  0  0  0  0  0
   -1.2173   -3.9294   26.9717 O   0  0  0  0  0  0  0  0  0  0  0  0
   -1.0025   -5.0942   27.4586 C   0  0  0  0  0  0  0  0  0  0  0  0
    2.2474   -8.9123   16.6273 C   0  0  0  0  0  0  0  0  0  0  0  0
    4.4957   -9.2636   17.3041 C   0  0  0  0  0  0  0  0  0  0  0  0
   -1.8070   -5.6086   28.1920 O   0  0  0  0  0  0  0  0  0  0  0  0
   10.4296   -5.1799   28.3140 C   0  0  0  0  0  0  0  0  0  0  0  0
    6.6017   -5.9004   26.9187 C   0  0  0  0  0  0  0  0  0  0  0  0
    2.4761   -6.9940   26.4111 N   0  0  0  0  0  0  0  0  0  0  0  0
    9.1353   -5.4053   27.8239 C   0  0  0  0  0  0  0  0  0  0  0  0
    0.9922   -9.3232   16.5995 O   0  0  0  0  0  0  0  0  0  0  0  0
    1.5232   -7.6869   27.1182 C   0  0  0  0  0  0  0  0  0  0  0  0
    8.6878   -6.6715   27.7262 N   0  0  0  0  0  0  0  0  0  0  0  0
    6.9911   -8.2423   27.1808 C   0  0  0  0  0  0  0  0  0  0  0  0
    3.8436   -7.2758   16.0578 C   0  0  0  0  0  0  0  0  0  0  0  0
    3.1882   -9.7190   17.2566 C   0  0  0  0  0  0  0  0  0  0  0  0
    5.3488   -6.1737   26.5092 C   0  0  0  0  0  0  0  0  0  0  0  0
    7.4567   -6.9464   27.2858 C   0  0  0  0  0  0  0  0  0  0  0  0
    0.1921   -5.7592   27.1123 C   0  0  0  0  0  0  0  0  0  0  0  0
    3.5517   -7.7407   25.9711 C   0  0  0  0  0  0  0  0  0  0  0  0
  1  4  4  0
  1 22  4  0
  2 20  4  0
  2 27  4  0
  3 12  4  0
  3 23  4  0
  4 25  4  0
  4 28  1  0
  5  8  4  0
  5 17  4  0
  6  7  4  0
  6 16  4  0
  7 18  4  0
  8 27  4  0
  9 13  4  0
  9 23  4  0
 10 11  1  0
 11 14  2  0
 11 27  1  0
 12 19  1  0
 12 24  4  0
 13 24  4  0
 15 18  1  0
 16 25  4  0
 16 26  4  0
 17 20  4  0
 17 28  1  0
 18 21  4  0
 21 26  4  0
 22 26  4  0
M  END
$$$$

 Created by Python create_sdf_string function

 28 30  0  0  0  0  0  0  0  0999 V2000
    5.7174   -8.4529   26.7190 C   0  0  0  0  0  0  0  0  0  0  0  0
    0.3974   -7.0711   27.5149 C   0  0  0  0  0  0  0  0  0  0  0  0
    2.5338   -7.6891   16.0102 C   0  0  0  0  0  0  0  0  0  0  0  0
    4.8690   -7.4380   26.4151 C   0  0  0  0  0  0  0  0  0  0  0  0
    2.3021   -5.6726   26.0378 C   0  0  0  0  0  0  0  0  0  0  0  0
    7.0880   -4.6163   27.0010 C   0  0  0  0  0  0  0  0  0  0  0  0
    8.3117   -4.3698   27.4436 C   0  0  0  0  0  0  0  0  0  0  0  0
    1.1339   -5.0515   26.3541 C   0  0  0  0  0  0  0  0  0  0  0  0
    4.8080   -8.0362   16.7101 C   0  0  0  0  0  0  0  0  0  0  0  0
   -1.2173   -3.9294   26.9717 O   0  0  0  0  0  0  0  0  0  0  0  0
   -1.0025   -5.0942   27.4586 C   0  0  0  0  0  0  0  0  0  0  0  0
    2.2474   -8.9123   16.6273 C   0  0  0  0  0  0  0  0  0  0  0  0
    4.4957   -9.2636   17.3041 C   0  0  0  0  0  0  0  0  0  0  0  0
   -1.8070   -5.6086   28.1920 O   0  0  0  0  0  0  0  0  0  0  0  0
   10.4296   -5.1799   28.3140 C   0  0  0  0  0  0  0  0  0  0  0  0
    6.6017   -5.9004   26.9187 C   0  0  0  0  0  0  0  0  0  0  0  0
    2.4761   -6.9940   26.4111 N   0  0  0  0  0  0  0  0  0  0  0  0
    9.1353   -5.4053   27.8239 C   0  0  0  0  0  0  0  0  0  0  0  0
    0.9922   -9.3232   16.5995 O   0  0  0  0  0  0  0  0  0  0  0  0
    1.5232   -7.6869   27.1182 C   0  0  0  0  0  0  0  0  0  0  0  0
    8.6878   -6.6715   27.7262 N   0  0  0  0  0  0  0  0  0  0  0  0
    6.9911   -8.2423   27.1808 C   0  0  0  0  0  0  0  0  0  0  0  0
    3.8436   -7.2758   16.0578 C   0  0  0  0  0  0  0  0  0  0  0  0
    3.1882   -9.7190   17.2566 C   0  0  0  0  0  0  0  0  0  0  0  0
    5.3488   -6.1737   26.5092 C   0  0  0  0  0  0  0  0  0  0  0  0
    7.4567   -6.9464   27.2858 C   0  0  0  0  0  0  0  0  0  0  0  0
    0.1921   -5.7592   27.1123 C   0  0  0  0  0  0  0  0  0  0  0  0
    3.5517   -7.7407   25.9711 C   0  0  0  0  0  0  0  0  0  0  0  0
  1  4  4  0
  1 22  4  0
  2 20  4  0
  2 27  4  0
  3 12  4  0
  3 23  4  0
  4 25  4  0
  4 28  1  0
  5  8  4  0
  5 17  4  0
  6  7  4  0
  6 16  4  0
  7 18  4  0
  8 27  4  0
  9 13  4  0
  9 23  4  0
 10 11  1  0
 11 14  2  0
 11 27  1  0
 12 19  1  0
 12 24  4  0
 13 24  4  0
 15 18  1  0
 16 25  4  0
 16 26  4  0
 17 20  4  0
 17 28  1  0
 18 21  4  0
 21 26  4  0
 22 26  4  0
M  END
$$$$

 Created by Python create_sdf_string function

 28 30  0  0  0  0  0  0  0  0999 V2000
    5.7174   -8.4529   26.7190 C   0  0  0  0  0  0  0  0  0  0  0  0
    0.3974   -7.0711   27.5149 C   0  0  0  0  0  0  0  0  0  0  0  0
    2.5338   -7.6891   16.0102 C   0  0  0  0  0  0  0  0  0  0  0  0
    4.8690   -7.4380   26.4151 C   0  0  0  0  0  0  0  0  0  0  0  0
    2.3021   -5.6726   26.0378 C   0  0  0  0  0  0  0  0  0  0  0  0
    7.0880   -4.6163   27.0010 C   0  0  0  0  0  0  0  0  0  0  0  0
    8.3117   -4.3698   27.4436 C   0  0  0  0  0  0  0  0  0  0  0  0
    1.1339   -5.0515   26.3541 C   0  0  0  0  0  0  0  0  0  0  0  0
    4.8080   -8.0362   16.7101 C   0  0  0  0  0  0  0  0  0  0  0  0
   -1.2173   -3.9294   26.9717 O   0  0  0  0  0  0  0  0  0  0  0  0
   -1.0025   -5.0942   27.4586 C   0  0  0  0  0  0  0  0  0  0  0  0
    2.2474   -8.9123   16.6273 C   0  0  0  0  0  0  0  0  0  0  0  0
    4.4957   -9.2636   17.3041 C   0  0  0  0  0  0  0  0  0  0  0  0
   -1.8070   -5.6086   28.1920 O   0  0  0  0  0  0  0  0  0  0  0  0
   10.4296   -5.1799   28.3140 C   0  0  0  0  0  0  0  0  0  0  0  0
    6.6017   -5.9004   26.9187 C   0  0  0  0  0  0  0  0  0  0  0  0
    2.4761   -6.9940   26.4111 N   0  0  0  0  0  0  0  0  0  0  0  0
    9.1353   -5.4053   27.8239 C   0  0  0  0  0  0  0  0  0  0  0  0
    0.9922   -9.3232   16.5995 O   0  0  0  0  0  0  0  0  0  0  0  0
    1.5232   -7.6869   27.1182 C   0  0  0  0  0  0  0  0  0  0  0  0
    8.6878   -6.6715   27.7262 N   0  0  0  0  0  0  0  0  0  0  0  0
    6.9911   -8.2423   27.1808 C   0  0  0  0  0  0  0  0  0  0  0  0
    3.8436   -7.2758   16.0578 C   0  0  0  0  0  0  0  0  0  0  0  0
    3.1882   -9.7190   17.2566 C   0  0  0  0  0  0  0  0  0  0  0  0
    5.3488   -6.1737   26.5092 C   0  0  0  0  0  0  0  0  0  0  0  0
    7.4567   -6.9464   27.2858 C   0  0  0  0  0  0  0  0  0  0  0  0
    0.1921   -5.7592   27.1123 C   0  0  0  0  0  0  0  0  0  0  0  0
    3.5517   -7.7407   25.9711 C   0  0  0  0  0  0  0  0  0  0  0  0
  1  4  4  0
  1 22  4  0
  2 20  4  0
  2 27  4  0
  3 12  4  0
  3 23  4  0
  4 25  4  0
  4 28  1  0
  5  8  4  0
  5 17  4  0
  6  7  4  0
  6 16  4  0
  7 18  4  0
  8 27  4  0
  9 13  4  0
  9 23  4  0
 10 11  1  0
 11 14  2  0
 11 27  1  0
 12 19  1  0
 12 24  4  0
 13 24  4  0
 15 18  1  0
 16 25  4  0
 16 26  4  0
 17 20  4  0
 17 28  1  0
 18 21  4  0
 21 26  4  0
 22 26  4  0
M  END
$$$$

 Created by Python create_sdf_string function

 28 30  0  0  0  0  0  0  0  0999 V2000
    5.7174   -8.4529   26.7190 C   0  0  0  0  0  0  0  0  0  0  0  0
    0.3974   -7.0711   27.5149 C   0  0  0  0  0  0  0  0  0  0  0  0
    2.5338   -7.6891   16.0102 C   0  0  0  0  0  0  0  0  0  0  0  0
    4.8690   -7.4380   26.4151 C   0  0  0  0  0  0  0  0  0  0  0  0
    2.3021   -5.6726   26.0378 C   0  0  0  0  0  0  0  0  0  0  0  0
    7.0880   -4.6163   27.0010 C   0  0  0  0  0  0  0  0  0  0  0  0
    8.3117   -4.3698   27.4436 C   0  0  0  0  0  0  0  0  0  0  0  0
    1.1339   -5.0515   26.3541 C   0  0  0  0  0  0  0  0  0  0  0  0
    4.8080   -8.0362   16.7101 C   0  0  0  0  0  0  0  0  0  0  0  0
   -1.2173   -3.9294   26.9717 O   0  0  0  0  0  0  0  0  0  0  0  0
   -1.0025   -5.0942   27.4586 C   0  0  0  0  0  0  0  0  0  0  0  0
    2.2474   -8.9123   16.6273 C   0  0  0  0  0  0  0  0  0  0  0  0
    4.4957   -9.2636   17.3041 C   0  0  0  0  0  0  0  0  0  0  0  0
   -1.8070   -5.6086   28.1920 O   0  0  0  0  0  0  0  0  0  0  0  0
   10.4296   -5.1799   28.3140 C   0  0  0  0  0  0  0  0  0  0  0  0
    6.6017   -5.9004   26.9187 C   0  0  0  0  0  0  0  0  0  0  0  0
    2.4761   -6.9940   26.4111 N   0  0  0  0  0  0  0  0  0  0  0  0
    9.1353   -5.4053   27.8239 C   0  0  0  0  0  0  0  0  0  0  0  0
    0.9922   -9.3232   16.5995 O   0  0  0  0  0  0  0  0  0  0  0  0
    1.5232   -7.6869   27.1182 C   0  0  0  0  0  0  0  0  0  0  0  0
    8.6878   -6.6715   27.7262 N   0  0  0  0  0  0  0  0  0  0  0  0
    6.9911   -8.2423   27.1808 C   0  0  0  0  0  0  0  0  0  0  0  0
    3.8436   -7.2758   16.0578 C   0  0  0  0  0  0  0  0  0  0  0  0
    3.1882   -9.7190   17.2566 C   0  0  0  0  0  0  0  0  0  0  0  0
    5.3488   -6.1737   26.5092 C   0  0  0  0  0  0  0  0  0  0  0  0
    7.4567   -6.9464   27.2858 C   0  0  0  0  0  0  0  0  0  0  0  0
    0.1921   -5.7592   27.1123 C   0  0  0  0  0  0  0  0  0  0  0  0
    3.5517   -7.7407   25.9711 C   0  0  0  0  0  0  0  0  0  0  0  0
  1  4  4  0
  1 22  4  0
  2 20  4  0
  2 27  4  0
  3 12  4  0
  3 23  4  0
  4 25  4  0
  4 28  1  0
  5  8  4  0
  5 17  4  0
  6  7  4  0
  6 16  4  0
  7 18  4  0
  8 27  4  0
  9 13  4  0
  9 23  4  0
 10 11  1  0
 11 14  2  0
 11 27  1  0
 12 19  1  0
 12 24  4  0
 13 24  4  0
 15 18  1  0
 16 25  4  0
 16 26  4  0
 17 20  4  0
 17 28  1  0
 18 21  4  0
 21 26  4  0
 22 26  4  0
M  END
$$$$

 Created by Python create_sdf_string function

 28 30  0  0  0  0  0  0  0  0999 V2000
    5.7174   -8.4529   26.7190 C   0  0  0  0  0  0  0  0  0  0  0  0
    0.3974   -7.0711   27.5149 C   0  0  0  0  0  0  0  0  0  0  0  0
    2.5338   -7.6891   16.0102 C   0  0  0  0  0  0  0  0  0  0  0  0
    4.8690   -7.4380   26.4151 C   0  0  0  0  0  0  0  0  0  0  0  0
    2.3021   -5.6726   26.0378 C   0  0  0  0  0  0  0  0  0  0  0  0
    7.0880   -4.6163   27.0010 C   0  0  0  0  0  0  0  0  0  0  0  0
    8.3117   -4.3698   27.4436 C   0  0  0  0  0  0  0  0  0  0  0  0
    1.1339   -5.0515   26.3541 C   0  0  0  0  0  0  0  0  0  0  0  0
    4.8080   -8.0362   16.7101 C   0  0  0  0  0  0  0  0  0  0  0  0
   -1.2173   -3.9294   26.9717 O   0  0  0  0  0  0  0  0  0  0  0  0
   -1.0025   -5.0942   27.4586 C   0  0  0  0  0  0  0  0  0  0  0  0
    2.2474   -8.9123   16.6273 C   0  0  0  0  0  0  0  0  0  0  0  0
    4.4957   -9.2636   17.3041 C   0  0  0  0  0  0  0  0  0  0  0  0
   -1.8070   -5.6086   28.1920 O   0  0  0  0  0  0  0  0  0  0  0  0
   10.4296   -5.1799   28.3140 C   0  0  0  0  0  0  0  0  0  0  0  0
    6.6017   -5.9004   26.9187 C   0  0  0  0  0  0  0  0  0  0  0  0
    2.4761   -6.9940   26.4111 N   0  0  0  0  0  0  0  0  0  0  0  0
    9.1353   -5.4053   27.8239 C   0  0  0  0  0  0  0  0  0  0  0  0
    0.9922   -9.3232   16.5995 O   0  0  0  0  0  0  0  0  0  0  0  0
    1.5232   -7.6869   27.1182 C   0  0  0  0  0  0  0  0  0  0  0  0
    8.6878   -6.6715   27.7262 N   0  0  0  0  0  0  0  0  0  0  0  0
    6.9911   -8.2423   27.1808 C   0  0  0  0  0  0  0  0  0  0  0  0
    3.8436   -7.2758   16.0578 C   0  0  0  0  0  0  0  0  0  0  0  0
    3.1882   -9.7190   17.2566 C   0  0  0  0  0  0  0  0  0  0  0  0
    5.3488   -6.1737   26.5092 C   0  0  0  0  0  0  0  0  0  0  0  0
    7.4567   -6.9464   27.2858 C   0  0  0  0  0  0  0  0  0  0  0  0
    0.1921   -5.7592   27.1123 C   0  0  0  0  0  0  0  0  0  0  0  0
    3.5517   -7.7407   25.9711 C   0  0  0  0  0  0  0  0  0  0  0  0
  1  4  4  0
  1 22  4  0
  2 20  4  0
  2 27  4  0
  3 12  4  0
  3 23  4  0
  4 25  4  0
  4 28  1  0
  5  8  4  0
  5 17  4  0
  6  7  4  0
  6 16  4  0
  7 18  4  0
  8 27  4  0
  9 13  4  0
  9 23  4  0
 10 11  1  0
 11 14  2  0
 11 27  1  0
 12 19  1  0
 12 24  4  0
 13 24  4  0
 15 18  1  0
 16 25  4  0
 16 26  4  0
 17 20  4  0
 17 28  1  0
 18 21  4  0
 21 26  4  0
 22 26  4  0
M  END
$$$$

 Created by Python create_sdf_string function

 28 30  0  0  0  0  0  0  0  0999 V2000
    5.7174   -8.4529   26.7190 C   0  0  0  0  0  0  0  0  0  0  0  0
    0.3974   -7.0711   27.5149 C   0  0  0  0  0  0  0  0  0  0  0  0
    2.5338   -7.6891   16.0102 C   0  0  0  0  0  0  0  0  0  0  0  0
    4.8690   -7.4380   26.4151 C   0  0  0  0  0  0  0  0  0  0  0  0
    2.3021   -5.6726   26.0378 C   0  0  0  0  0  0  0  0  0  0  0  0
    7.0880   -4.6163   27.0010 C   0  0  0  0  0  0  0  0  0  0  0  0
    8.3117   -4.3698   27.4436 C   0  0  0  0  0  0  0  0  0  0  0  0
    1.1339   -5.0515   26.3541 C   0  0  0  0  0  0  0  0  0  0  0  0
    4.8080   -8.0362   16.7101 C   0  0  0  0  0  0  0  0  0  0  0  0
   -1.2173   -3.9294   26.9717 O   0  0  0  0  0  0  0  0  0  0  0  0
   -1.0025   -5.0942   27.4586 C   0  0  0  0  0  0  0  0  0  0  0  0
    2.2474   -8.9123   16.6273 C   0  0  0  0  0  0  0  0  0  0  0  0
    4.4957   -9.2636   17.3041 C   0  0  0  0  0  0  0  0  0  0  0  0
   -1.8070   -5.6086   28.1920 O   0  0  0  0  0  0  0  0  0  0  0  0
   10.4296   -5.1799   28.3140 C   0  0  0  0  0  0  0  0  0  0  0  0
    6.6017   -5.9004   26.9187 C   0  0  0  0  0  0  0  0  0  0  0  0
    2.4761   -6.9940   26.4111 N   0  0  0  0  0  0  0  0  0  0  0  0
    9.1353   -5.4053   27.8239 C   0  0  0  0  0  0  0  0  0  0  0  0
    0.9922   -9.3232   16.5995 O   0  0  0  0  0  0  0  0  0  0  0  0
    1.5232   -7.6869   27.1182 C   0  0  0  0  0  0  0  0  0  0  0  0
    8.6878   -6.6715   27.7262 N   0  0  0  0  0  0  0  0  0  0  0  0
    6.9911   -8.2423   27.1808 C   0  0  0  0  0  0  0  0  0  0  0  0
    3.8436   -7.2758   16.0578 C   0  0  0  0  0  0  0  0  0  0  0  0
    3.1882   -9.7190   17.2566 C   0  0  0  0  0  0  0  0  0  0  0  0
    5.3488   -6.1737   26.5092 C   0  0  0  0  0  0  0  0  0  0  0  0
    7.4567   -6.9464   27.2858 C   0  0  0  0  0  0  0  0  0  0  0  0
    0.1921   -5.7592   27.1123 C   0  0  0  0  0  0  0  0  0  0  0  0
    3.5517   -7.7407   25.9711 C   0  0  0  0  0  0  0  0  0  0  0  0
  1  4  4  0
  1 22  4  0
  2 20  4  0
  2 27  4  0
  3 12  4  0
  3 23  4  0
  4 25  4  0
  4 28  1  0
  5  8  4  0
  5 17  4  0
  6  7  4  0
  6 16  4  0
  7 18  4  0
  8 27  4  0
  9 13  4  0
  9 23  4  0
 10 11  1  0
 11 14  2  0
 11 27  1  0
 12 19  1  0
 12 24  4  0
 13 24  4  0
 15 18  1  0
 16 25  4  0
 16 26  4  0
 17 20  4  0
 17 28  1  0
 18 21  4  0
 21 26  4  0
 22 26  4  0
M  END
$$$$

 Created by Python create_sdf_string function

 28 30  0  0  0  0  0  0  0  0999 V2000
    5.7174   -8.4529   26.7190 C   0  0  0  0  0  0  0  0  0  0  0  0
    0.3974   -7.0711   27.5149 C   0  0  0  0  0  0  0  0  0  0  0  0
    2.5338   -7.6891   16.0102 C   0  0  0  0  0  0  0  0  0  0  0  0
    4.8690   -7.4380   26.4151 C   0  0  0  0  0  0  0  0  0  0  0  0
    2.3021   -5.6726   26.0378 C   0  0  0  0  0  0  0  0  0  0  0  0
    7.0880   -4.6163   27.0010 C   0  0  0  0  0  0  0  0  0  0  0  0
    8.3117   -4.3698   27.4436 C   0  0  0  0  0  0  0  0  0  0  0  0
    1.1339   -5.0515   26.3541 C   0  0  0  0  0  0  0  0  0  0  0  0
    4.8080   -8.0362   16.7101 C   0  0  0  0  0  0  0  0  0  0  0  0
   -1.2173   -3.9294   26.9717 O   0  0  0  0  0  0  0  0  0  0  0  0
   -1.0025   -5.0942   27.4586 C   0  0  0  0  0  0  0  0  0  0  0  0
    2.2474   -8.9123   16.6273 C   0  0  0  0  0  0  0  0  0  0  0  0
    4.4957   -9.2636   17.3041 C   0  0  0  0  0  0  0  0  0  0  0  0
   -1.8070   -5.6086   28.1920 O   0  0  0  0  0  0  0  0  0  0  0  0
   10.4296   -5.1799   28.3140 C   0  0  0  0  0  0  0  0  0  0  0  0
    6.6017   -5.9004   26.9187 C   0  0  0  0  0  0  0  0  0  0  0  0
    2.4761   -6.9940   26.4111 N   0  0  0  0  0  0  0  0  0  0  0  0
    9.1353   -5.4053   27.8239 C   0  0  0  0  0  0  0  0  0  0  0  0
    0.9922   -9.3232   16.5995 O   0  0  0  0  0  0  0  0  0  0  0  0
    1.5232   -7.6869   27.1182 C   0  0  0  0  0  0  0  0  0  0  0  0
    8.6878   -6.6715   27.7262 N   0  0  0  0  0  0  0  0  0  0  0  0
    6.9911   -8.2423   27.1808 C   0  0  0  0  0  0  0  0  0  0  0  0
    3.8436   -7.2758   16.0578 C   0  0  0  0  0  0  0  0  0  0  0  0
    3.1882   -9.7190   17.2566 C   0  0  0  0  0  0  0  0  0  0  0  0
    5.3488   -6.1737   26.5092 C   0  0  0  0  0  0  0  0  0  0  0  0
    7.4567   -6.9464   27.2858 C   0  0  0  0  0  0  0  0  0  0  0  0
    0.1921   -5.7592   27.1123 C   0  0  0  0  0  0  0  0  0  0  0  0
    3.5517   -7.7407   25.9711 C   0  0  0  0  0  0  0  0  0  0  0  0
  1  4  4  0
  1 22  4  0
  2 20  4  0
  2 27  4  0
  3 12  4  0
  3 23  4  0
  4 25  4  0
  4 28  1  0
  5  8  4  0
  5 17  4  0
  6  7  4  0
  6 16  4  0
  7 18  4  0
  8 27  4  0
  9 13  4  0
  9 23  4  0
 10 11  1  0
 11 14  2  0
 11 27  1  0
 12 19  1  0
 12 24  4  0
 13 24  4  0
 15 18  1  0
 16 25  4  0
 16 26  4  0
 17 20  4  0
 17 28  1  0
 18 21  4  0
 21 26  4  0
 22 26  4  0
M  END
$$$$

 Created by Python create_sdf_string function

 28 30  0  0  0  0  0  0  0  0999 V2000
    5.7174   -8.4529   26.7190 C   0  0  0  0  0  0  0  0  0  0  0  0
    0.3974   -7.0711   27.5149 C   0  0  0  0  0  0  0  0  0  0  0  0
    2.5338   -7.6891   16.0102 C   0  0  0  0  0  0  0  0  0  0  0  0
    4.8690   -7.4380   26.4151 C   0  0  0  0  0  0  0  0  0  0  0  0
    2.3021   -5.6726   26.0378 C   0  0  0  0  0  0  0  0  0  0  0  0
    7.0880   -4.6163   27.0010 C   0  0  0  0  0  0  0  0  0  0  0  0
    8.3117   -4.3698   27.4436 C   0  0  0  0  0  0  0  0  0  0  0  0
    1.1339   -5.0515   26.3541 C   0  0  0  0  0  0  0  0  0  0  0  0
    4.8080   -8.0362   16.7101 C   0  0  0  0  0  0  0  0  0  0  0  0
   -1.2173   -3.9294   26.9717 O   0  0  0  0  0  0  0  0  0  0  0  0
   -1.0025   -5.0942   27.4586 C   0  0  0  0  0  0  0  0  0  0  0  0
    2.2474   -8.9123   16.6273 C   0  0  0  0  0  0  0  0  0  0  0  0
    4.4957   -9.2636   17.3041 C   0  0  0  0  0  0  0  0  0  0  0  0
   -1.8070   -5.6086   28.1920 O   0  0  0  0  0  0  0  0  0  0  0  0
   10.4296   -5.1799   28.3140 C   0  0  0  0  0  0  0  0  0  0  0  0
    6.6017   -5.9004   26.9187 C   0  0  0  0  0  0  0  0  0  0  0  0
    2.4761   -6.9940   26.4111 N   0  0  0  0  0  0  0  0  0  0  0  0
    9.1353   -5.4053   27.8239 C   0  0  0  0  0  0  0  0  0  0  0  0
    0.9922   -9.3232   16.5995 O   0  0  0  0  0  0  0  0  0  0  0  0
    1.5232   -7.6869   27.1182 C   0  0  0  0  0  0  0  0  0  0  0  0
    8.6878   -6.6715   27.7262 N   0  0  0  0  0  0  0  0  0  0  0  0
    6.9911   -8.2423   27.1808 C   0  0  0  0  0  0  0  0  0  0  0  0
    3.8436   -7.2758   16.0578 C   0  0  0  0  0  0  0  0  0  0  0  0
    3.1882   -9.7190   17.2566 C   0  0  0  0  0  0  0  0  0  0  0  0
    5.3488   -6.1737   26.5092 C   0  0  0  0  0  0  0  0  0  0  0  0
    7.4567   -6.9464   27.2858 C   0  0  0  0  0  0  0  0  0  0  0  0
    0.1921   -5.7592   27.1123 C   0  0  0  0  0  0  0  0  0  0  0  0
    3.5517   -7.7407   25.9711 C   0  0  0  0  0  0  0  0  0  0  0  0
  1  4  4  0
  1 22  4  0
  2 20  4  0
  2 27  4  0
  3 12  4  0
  3 23  4  0
  4 25  4  0
  4 28  1  0
  5  8  4  0
  5 17  4  0
  6  7  4  0
  6 16  4  0
  7 18  4  0
  8 27  4  0
  9 13  4  0
  9 23  4  0
 10 11  1  0
 11 14  2  0
 11 27  1  0
 12 19  1  0
 12 24  4  0
 13 24  4  0
 15 18  1  0
 16 25  4  0
 16 26  4  0
 17 20  4  0
 17 28  1  0
 18 21  4  0
 21 26  4  0
 22 26  4  0
M  END
$$$$

 Created by Python create_sdf_string function

 28 30  0  0  0  0  0  0  0  0999 V2000
    5.7174   -8.4529   26.7190 C   0  0  0  0  0  0  0  0  0  0  0  0
    0.3974   -7.0711   27.5149 C   0  0  0  0  0  0  0  0  0  0  0  0
    2.5338   -7.6891   16.0102 C   0  0  0  0  0  0  0  0  0  0  0  0
    4.8690   -7.4380   26.4151 C   0  0  0  0  0  0  0  0  0  0  0  0
    2.3021   -5.6726   26.0378 C   0  0  0  0  0  0  0  0  0  0  0  0
    7.0880   -4.6163   27.0010 C   0  0  0  0  0  0  0  0  0  0  0  0
    8.3117   -4.3698   27.4436 C   0  0  0  0  0  0  0  0  0  0  0  0
    1.1339   -5.0515   26.3541 C   0  0  0  0  0  0  0  0  0  0  0  0
    4.8080   -8.0362   16.7101 C   0  0  0  0  0  0  0  0  0  0  0  0
   -1.2173   -3.9294   26.9717 O   0  0  0  0  0  0  0  0  0  0  0  0
   -1.0025   -5.0942   27.4586 C   0  0  0  0  0  0  0  0  0  0  0  0
    2.2474   -8.9123   16.6273 C   0  0  0  0  0  0  0  0  0  0  0  0
    4.4957   -9.2636   17.3041 C   0  0  0  0  0  0  0  0  0  0  0  0
   -1.8070   -5.6086   28.1920 O   0  0  0  0  0  0  0  0  0  0  0  0
   10.4296   -5.1799   28.3140 C   0  0  0  0  0  0  0  0  0  0  0  0
    6.6017   -5.9004   26.9187 C   0  0  0  0  0  0  0  0  0  0  0  0
    2.4761   -6.9940   26.4111 N   0  0  0  0  0  0  0  0  0  0  0  0
    9.1353   -5.4053   27.8239 C   0  0  0  0  0  0  0  0  0  0  0  0
    0.9922   -9.3232   16.5995 O   0  0  0  0  0  0  0  0  0  0  0  0
    1.5232   -7.6869   27.1182 C   0  0  0  0  0  0  0  0  0  0  0  0
    8.6878   -6.6715   27.7262 N   0  0  0  0  0  0  0  0  0  0  0  0
    6.9911   -8.2423   27.1808 C   0  0  0  0  0  0  0  0  0  0  0  0
    3.8436   -7.2758   16.0578 C   0  0  0  0  0  0  0  0  0  0  0  0
    3.1882   -9.7190   17.2566 C   0  0  0  0  0  0  0  0  0  0  0  0
    5.3488   -6.1737   26.5092 C   0  0  0  0  0  0  0  0  0  0  0  0
    7.4567   -6.9464   27.2858 C   0  0  0  0  0  0  0  0  0  0  0  0
    0.1921   -5.7592   27.1123 C   0  0  0  0  0  0  0  0  0  0  0  0
    3.5517   -7.7407   25.9711 C   0  0  0  0  0  0  0  0  0  0  0  0
  1  4  4  0
  1 22  4  0
  2 20  4  0
  2 27  4  0
  3 12  4  0
  3 23  4  0
  4 25  4  0
  4 28  1  0
  5  8  4  0
  5 17  4  0
  6  7  4  0
  6 16  4  0
  7 18  4  0
  8 27  4  0
  9 13  4  0
  9 23  4  0
 10 11  1  0
 11 14  2  0
 11 27  1  0
 12 19  1  0
 12 24  4  0
 13 24  4  0
 15 18  1  0
 16 25  4  0
 16 26  4  0
 17 20  4  0
 17 28  1  0
 18 21  4  0
 21 26  4  0
 22 26  4  0
M  END
$$$$

 Created by Python create_sdf_string function

 28 30  0  0  0  0  0  0  0  0999 V2000
    5.7174   -8.4529   26.7190 C   0  0  0  0  0  0  0  0  0  0  0  0
    0.3974   -7.0711   27.5149 C   0  0  0  0  0  0  0  0  0  0  0  0
    2.5338   -7.6891   16.0102 C   0  0  0  0  0  0  0  0  0  0  0  0
    4.8690   -7.4380   26.4151 C   0  0  0  0  0  0  0  0  0  0  0  0
    2.3021   -5.6726   26.0378 C   0  0  0  0  0  0  0  0  0  0  0  0
    7.0880   -4.6163   27.0010 C   0  0  0  0  0  0  0  0  0  0  0  0
    8.3117   -4.3698   27.4436 C   0  0  0  0  0  0  0  0  0  0  0  0
    1.1339   -5.0515   26.3541 C   0  0  0  0  0  0  0  0  0  0  0  0
    4.8080   -8.0362   16.7101 C   0  0  0  0  0  0  0  0  0  0  0  0
   -1.2173   -3.9294   26.9717 O   0  0  0  0  0  0  0  0  0  0  0  0
   -1.0025   -5.0942   27.4586 C   0  0  0  0  0  0  0  0  0  0  0  0
    2.2474   -8.9123   16.6273 C   0  0  0  0  0  0  0  0  0  0  0  0
    4.4957   -9.2636   17.3041 C   0  0  0  0  0  0  0  0  0  0  0  0
   -1.8070   -5.6086   28.1920 O   0  0  0  0  0  0  0  0  0  0  0  0
   10.4296   -5.1799   28.3140 C   0  0  0  0  0  0  0  0  0  0  0  0
    6.6017   -5.9004   26.9187 C   0  0  0  0  0  0  0  0  0  0  0  0
    2.4761   -6.9940   26.4111 N   0  0  0  0  0  0  0  0  0  0  0  0
    9.1353   -5.4053   27.8239 C   0  0  0  0  0  0  0  0  0  0  0  0
    0.9922   -9.3232   16.5995 O   0  0  0  0  0  0  0  0  0  0  0  0
    1.5232   -7.6869   27.1182 C   0  0  0  0  0  0  0  0  0  0  0  0
    8.6878   -6.6715   27.7262 N   0  0  0  0  0  0  0  0  0  0  0  0
    6.9911   -8.2423   27.1808 C   0  0  0  0  0  0  0  0  0  0  0  0
    3.8436   -7.2758   16.0578 C   0  0  0  0  0  0  0  0  0  0  0  0
    3.1882   -9.7190   17.2566 C   0  0  0  0  0  0  0  0  0  0  0  0
    5.3488   -6.1737   26.5092 C   0  0  0  0  0  0  0  0  0  0  0  0
    7.4567   -6.9464   27.2858 C   0  0  0  0  0  0  0  0  0  0  0  0
    0.1921   -5.7592   27.1123 C   0  0  0  0  0  0  0  0  0  0  0  0
    3.5517   -7.7407   25.9711 C   0  0  0  0  0  0  0  0  0  0  0  0
  1  4  4  0
  1 22  4  0
  2 20  4  0
  2 27  4  0
  3 12  4  0
  3 23  4  0
  4 25  4  0
  4 28  1  0
  5  8  4  0
  5 17  4  0
  6  7  4  0
  6 16  4  0
  7 18  4  0
  8 27  4  0
  9 13  4  0
  9 23  4  0
 10 11  1  0
 11 14  2  0
 11 27  1  0
 12 19  1  0
 12 24  4  0
 13 24  4  0
 15 18  1  0
 16 25  4  0
 16 26  4  0
 17 20  4  0
 17 28  1  0
 18 21  4  0
 21 26  4  0
 22 26  4  0
M  END
$$$$

 Created by Python create_sdf_string function

 28 30  0  0  0  0  0  0  0  0999 V2000
    5.7174   -8.4529   26.7190 C   0  0  0  0  0  0  0  0  0  0  0  0
    0.3974   -7.0711   27.5149 C   0  0  0  0  0  0  0  0  0  0  0  0
    2.5338   -7.6891   16.0102 C   0  0  0  0  0  0  0  0  0  0  0  0
    4.8690   -7.4380   26.4151 C   0  0  0  0  0  0  0  0  0  0  0  0
    2.3021   -5.6726   26.0378 C   0  0  0  0  0  0  0  0  0  0  0  0
    7.0880   -4.6163   27.0010 C   0  0  0  0  0  0  0  0  0  0  0  0
    8.3117   -4.3698   27.4436 C   0  0  0  0  0  0  0  0  0  0  0  0
    1.1339   -5.0515   26.3541 C   0  0  0  0  0  0  0  0  0  0  0  0
    4.8080   -8.0362   16.7101 C   0  0  0  0  0  0  0  0  0  0  0  0
   -1.2173   -3.9294   26.9717 O   0  0  0  0  0  0  0  0  0  0  0  0
   -1.0025   -5.0942   27.4586 C   0  0  0  0  0  0  0  0  0  0  0  0
    2.2474   -8.9123   16.6273 C   0  0  0  0  0  0  0  0  0  0  0  0
    4.4957   -9.2636   17.3041 C   0  0  0  0  0  0  0  0  0  0  0  0
   -1.8070   -5.6086   28.1920 O   0  0  0  0  0  0  0  0  0  0  0  0
   10.4296   -5.1799   28.3140 C   0  0  0  0  0  0  0  0  0  0  0  0
    6.6017   -5.9004   26.9187 C   0  0  0  0  0  0  0  0  0  0  0  0
    2.4761   -6.9940   26.4111 N   0  0  0  0  0  0  0  0  0  0  0  0
    9.1353   -5.4053   27.8239 C   0  0  0  0  0  0  0  0  0  0  0  0
    0.9922   -9.3232   16.5995 O   0  0  0  0  0  0  0  0  0  0  0  0
    1.5232   -7.6869   27.1182 C   0  0  0  0  0  0  0  0  0  0  0  0
    8.6878   -6.6715   27.7262 N   0  0  0  0  0  0  0  0  0  0  0  0
    6.9911   -8.2423   27.1808 C   0  0  0  0  0  0  0  0  0  0  0  0
    3.8436   -7.2758   16.0578 C   0  0  0  0  0  0  0  0  0  0  0  0
    3.1882   -9.7190   17.2566 C   0  0  0  0  0  0  0  0  0  0  0  0
    5.3488   -6.1737   26.5092 C   0  0  0  0  0  0  0  0  0  0  0  0
    7.4567   -6.9464   27.2858 C   0  0  0  0  0  0  0  0  0  0  0  0
    0.1921   -5.7592   27.1123 C   0  0  0  0  0  0  0  0  0  0  0  0
    3.5517   -7.7407   25.9711 C   0  0  0  0  0  0  0  0  0  0  0  0
  1  4  4  0
  1 22  4  0
  2 20  4  0
  2 27  4  0
  3 12  4  0
  3 23  4  0
  4 25  4  0
  4 28  1  0
  5  8  4  0
  5 17  4  0
  6  7  4  0
  6 16  4  0
  7 18  4  0
  8 27  4  0
  9 13  4  0
  9 23  4  0
 10 11  1  0
 11 14  2  0
 11 27  1  0
 12 19  1  0
 12 24  4  0
 13 24  4  0
 15 18  1  0
 16 25  4  0
 16 26  4  0
 17 20  4  0
 17 28  1  0
 18 21  4  0
 21 26  4  0
 22 26  4  0
M  END
$$$$

 Created by Python create_sdf_string function

 28 30  0  0  0  0  0  0  0  0999 V2000
    5.7174   -8.4529   26.7190 C   0  0  0  0  0  0  0  0  0  0  0  0
    0.3974   -7.0711   27.5149 C   0  0  0  0  0  0  0  0  0  0  0  0
    2.5338   -7.6891   16.0102 C   0  0  0  0  0  0  0  0  0  0  0  0
    4.8690   -7.4380   26.4151 C   0  0  0  0  0  0  0  0  0  0  0  0
    2.3021   -5.6726   26.0378 C   0  0  0  0  0  0  0  0  0  0  0  0
    7.0880   -4.6163   27.0010 C   0  0  0  0  0  0  0  0  0  0  0  0
    8.3117   -4.3698   27.4436 C   0  0  0  0  0  0  0  0  0  0  0  0
    1.1339   -5.0515   26.3541 C   0  0  0  0  0  0  0  0  0  0  0  0
    4.8080   -8.0362   16.7101 C   0  0  0  0  0  0  0  0  0  0  0  0
   -1.2173   -3.9294   26.9717 O   0  0  0  0  0  0  0  0  0  0  0  0
   -1.0025   -5.0942   27.4586 C   0  0  0  0  0  0  0  0  0  0  0  0
    2.2474   -8.9123   16.6273 C   0  0  0  0  0  0  0  0  0  0  0  0
    4.4957   -9.2636   17.3041 C   0  0  0  0  0  0  0  0  0  0  0  0
   -1.8070   -5.6086   28.1920 O   0  0  0  0  0  0  0  0  0  0  0  0
   10.4296   -5.1799   28.3140 C   0  0  0  0  0  0  0  0  0  0  0  0
    6.6017   -5.9004   26.9187 C   0  0  0  0  0  0  0  0  0  0  0  0
    2.4761   -6.9940   26.4111 N   0  0  0  0  0  0  0  0  0  0  0  0
    9.1353   -5.4053   27.8239 C   0  0  0  0  0  0  0  0  0  0  0  0
    0.9922   -9.3232   16.5995 O   0  0  0  0  0  0  0  0  0  0  0  0
    1.5232   -7.6869   27.1182 C   0  0  0  0  0  0  0  0  0  0  0  0
    8.6878   -6.6715   27.7262 N   0  0  0  0  0  0  0  0  0  0  0  0
    6.9911   -8.2423   27.1808 C   0  0  0  0  0  0  0  0  0  0  0  0
    3.8436   -7.2758   16.0578 C   0  0  0  0  0  0  0  0  0  0  0  0
    3.1882   -9.7190   17.2566 C   0  0  0  0  0  0  0  0  0  0  0  0
    5.3488   -6.1737   26.5092 C   0  0  0  0  0  0  0  0  0  0  0  0
    7.4567   -6.9464   27.2858 C   0  0  0  0  0  0  0  0  0  0  0  0
    0.1921   -5.7592   27.1123 C   0  0  0  0  0  0  0  0  0  0  0  0
    3.5517   -7.7407   25.9711 C   0  0  0  0  0  0  0  0  0  0  0  0
  1  4  4  0
  1 22  4  0
  2 20  4  0
  2 27  4  0
  3 12  4  0
  3 23  4  0
  4 25  4  0
  4 28  1  0
  5  8  4  0
  5 17  4  0
  6  7  4  0
  6 16  4  0
  7 18  4  0
  8 27  4  0
  9 13  4  0
  9 23  4  0
 10 11  1  0
 11 14  2  0
 11 27  1  0
 12 19  1  0
 12 24  4  0
 13 24  4  0
 15 18  1  0
 16 25  4  0
 16 26  4  0
 17 20  4  0
 17 28  1  0
 18 21  4  0
 21 26  4  0
 22 26  4  0
M  END
$$$$

 Created by Python create_sdf_string function

 28 30  0  0  0  0  0  0  0  0999 V2000
    5.7174   -8.4529   26.7190 C   0  0  0  0  0  0  0  0  0  0  0  0
    0.3974   -7.0711   27.5149 C   0  0  0  0  0  0  0  0  0  0  0  0
    2.5338   -7.6891   16.0102 C   0  0  0  0  0  0  0  0  0  0  0  0
    4.8690   -7.4380   26.4151 C   0  0  0  0  0  0  0  0  0  0  0  0
    2.3021   -5.6726   26.0378 C   0  0  0  0  0  0  0  0  0  0  0  0
    7.0880   -4.6163   27.0010 C   0  0  0  0  0  0  0  0  0  0  0  0
    8.3117   -4.3698   27.4436 C   0  0  0  0  0  0  0  0  0  0  0  0
    1.1339   -5.0515   26.3541 C   0  0  0  0  0  0  0  0  0  0  0  0
    4.8080   -8.0362   16.7101 C   0  0  0  0  0  0  0  0  0  0  0  0
   -1.2173   -3.9294   26.9717 O   0  0  0  0  0  0  0  0  0  0  0  0
   -1.0025   -5.0942   27.4586 C   0  0  0  0  0  0  0  0  0  0  0  0
    2.2474   -8.9123   16.6273 C   0  0  0  0  0  0  0  0  0  0  0  0
    4.4957   -9.2636   17.3041 C   0  0  0  0  0  0  0  0  0  0  0  0
   -1.8070   -5.6086   28.1920 O   0  0  0  0  0  0  0  0  0  0  0  0
   10.4296   -5.1799   28.3140 C   0  0  0  0  0  0  0  0  0  0  0  0
    6.6017   -5.9004   26.9187 C   0  0  0  0  0  0  0  0  0  0  0  0
    2.4761   -6.9940   26.4111 N   0  0  0  0  0  0  0  0  0  0  0  0
    9.1353   -5.4053   27.8239 C   0  0  0  0  0  0  0  0  0  0  0  0
    0.9922   -9.3232   16.5995 O   0  0  0  0  0  0  0  0  0  0  0  0
    1.5232   -7.6869   27.1182 C   0  0  0  0  0  0  0  0  0  0  0  0
    8.6878   -6.6715   27.7262 N   0  0  0  0  0  0  0  0  0  0  0  0
    6.9911   -8.2423   27.1808 C   0  0  0  0  0  0  0  0  0  0  0  0
    3.8436   -7.2758   16.0578 C   0  0  0  0  0  0  0  0  0  0  0  0
    3.1882   -9.7190   17.2566 C   0  0  0  0  0  0  0  0  0  0  0  0
    5.3488   -6.1737   26.5092 C   0  0  0  0  0  0  0  0  0  0  0  0
    7.4567   -6.9464   27.2858 C   0  0  0  0  0  0  0  0  0  0  0  0
    0.1921   -5.7592   27.1123 C   0  0  0  0  0  0  0  0  0  0  0  0
    3.5517   -7.7407   25.9711 C   0  0  0  0  0  0  0  0  0  0  0  0
  1  4  4  0
  1 22  4  0
  2 20  4  0
  2 27  4  0
  3 12  4  0
  3 23  4  0
  4 25  4  0
  4 28  1  0
  5  8  4  0
  5 17  4  0
  6  7  4  0
  6 16  4  0
  7 18  4  0
  8 27  4  0
  9 13  4  0
  9 23  4  0
 10 11  1  0
 11 14  2  0
 11 27  1  0
 12 19  1  0
 12 24  4  0
 13 24  4  0
 15 18  1  0
 16 25  4  0
 16 26  4  0
 17 20  4  0
 17 28  1  0
 18 21  4  0
 21 26  4  0
 22 26  4  0
M  END
$$$$

 Created by Python create_sdf_string function

 28 30  0  0  0  0  0  0  0  0999 V2000
    5.7174   -8.4529   26.7190 C   0  0  0  0  0  0  0  0  0  0  0  0
    0.3974   -7.0711   27.5149 C   0  0  0  0  0  0  0  0  0  0  0  0
    2.5338   -7.6891   16.0102 C   0  0  0  0  0  0  0  0  0  0  0  0
    4.8690   -7.4380   26.4151 C   0  0  0  0  0  0  0  0  0  0  0  0
    2.3021   -5.6726   26.0378 C   0  0  0  0  0  0  0  0  0  0  0  0
    7.0880   -4.6163   27.0010 C   0  0  0  0  0  0  0  0  0  0  0  0
    8.3117   -4.3698   27.4436 C   0  0  0  0  0  0  0  0  0  0  0  0
    1.1339   -5.0515   26.3541 C   0  0  0  0  0  0  0  0  0  0  0  0
    4.8080   -8.0362   16.7101 C   0  0  0  0  0  0  0  0  0  0  0  0
   -1.2173   -3.9294   26.9717 O   0  0  0  0  0  0  0  0  0  0  0  0
   -1.0025   -5.0942   27.4586 C   0  0  0  0  0  0  0  0  0  0  0  0
    2.2474   -8.9123   16.6273 C   0  0  0  0  0  0  0  0  0  0  0  0
    4.4957   -9.2636   17.3041 C   0  0  0  0  0  0  0  0  0  0  0  0
   -1.8070   -5.6086   28.1920 O   0  0  0  0  0  0  0  0  0  0  0  0
   10.4296   -5.1799   28.3140 C   0  0  0  0  0  0  0  0  0  0  0  0
    6.6017   -5.9004   26.9187 C   0  0  0  0  0  0  0  0  0  0  0  0
    2.4761   -6.9940   26.4111 N   0  0  0  0  0  0  0  0  0  0  0  0
    9.1353   -5.4053   27.8239 C   0  0  0  0  0  0  0  0  0  0  0  0
    0.9922   -9.3232   16.5995 O   0  0  0  0  0  0  0  0  0  0  0  0
    1.5232   -7.6869   27.1182 C   0  0  0  0  0  0  0  0  0  0  0  0
    8.6878   -6.6715   27.7262 N   0  0  0  0  0  0  0  0  0  0  0  0
    6.9911   -8.2423   27.1808 C   0  0  0  0  0  0  0  0  0  0  0  0
    3.8436   -7.2758   16.0578 C   0  0  0  0  0  0  0  0  0  0  0  0
    3.1882   -9.7190   17.2566 C   0  0  0  0  0  0  0  0  0  0  0  0
    5.3488   -6.1737   26.5092 C   0  0  0  0  0  0  0  0  0  0  0  0
    7.4567   -6.9464   27.2858 C   0  0  0  0  0  0  0  0  0  0  0  0
    0.1921   -5.7592   27.1123 C   0  0  0  0  0  0  0  0  0  0  0  0
    3.5517   -7.7407   25.9711 C   0  0  0  0  0  0  0  0  0  0  0  0
  1  4  4  0
  1 22  4  0
  2 20  4  0
  2 27  4  0
  3 12  4  0
  3 23  4  0
  4 25  4  0
  4 28  1  0
  5  8  4  0
  5 17  4  0
  6  7  4  0
  6 16  4  0
  7 18  4  0
  8 27  4  0
  9 13  4  0
  9 23  4  0
 10 11  1  0
 11 14  2  0
 11 27  1  0
 12 19  1  0
 12 24  4  0
 13 24  4  0
 15 18  1  0
 16 25  4  0
 16 26  4  0
 17 20  4  0
 17 28  1  0
 18 21  4  0
 21 26  4  0
 22 26  4  0
M  END
$$$$

 Created by Python create_sdf_string function

 28 30  0  0  0  0  0  0  0  0999 V2000
    5.7174   -8.4529   26.7190 C   0  0  0  0  0  0  0  0  0  0  0  0
    0.3974   -7.0711   27.5149 C   0  0  0  0  0  0  0  0  0  0  0  0
    2.5338   -7.6891   16.0102 C   0  0  0  0  0  0  0  0  0  0  0  0
    4.8690   -7.4380   26.4151 C   0  0  0  0  0  0  0  0  0  0  0  0
    2.3021   -5.6726   26.0378 C   0  0  0  0  0  0  0  0  0  0  0  0
    7.0880   -4.6163   27.0010 C   0  0  0  0  0  0  0  0  0  0  0  0
    8.3117   -4.3698   27.4436 C   0  0  0  0  0  0  0  0  0  0  0  0
    1.1339   -5.0515   26.3541 C   0  0  0  0  0  0  0  0  0  0  0  0
    4.8080   -8.0362   16.7101 C   0  0  0  0  0  0  0  0  0  0  0  0
   -1.2173   -3.9294   26.9717 O   0  0  0  0  0  0  0  0  0  0  0  0
   -1.0025   -5.0942   27.4586 C   0  0  0  0  0  0  0  0  0  0  0  0
    2.2474   -8.9123   16.6273 C   0  0  0  0  0  0  0  0  0  0  0  0
    4.4957   -9.2636   17.3041 C   0  0  0  0  0  0  0  0  0  0  0  0
   -1.8070   -5.6086   28.1920 O   0  0  0  0  0  0  0  0  0  0  0  0
   10.4296   -5.1799   28.3140 C   0  0  0  0  0  0  0  0  0  0  0  0
    6.6017   -5.9004   26.9187 C   0  0  0  0  0  0  0  0  0  0  0  0
    2.4761   -6.9940   26.4111 N   0  0  0  0  0  0  0  0  0  0  0  0
    9.1353   -5.4053   27.8239 C   0  0  0  0  0  0  0  0  0  0  0  0
    0.9922   -9.3232   16.5995 O   0  0  0  0  0  0  0  0  0  0  0  0
    1.5232   -7.6869   27.1182 C   0  0  0  0  0  0  0  0  0  0  0  0
    8.6878   -6.6715   27.7262 N   0  0  0  0  0  0  0  0  0  0  0  0
    6.9911   -8.2423   27.1808 C   0  0  0  0  0  0  0  0  0  0  0  0
    3.8436   -7.2758   16.0578 C   0  0  0  0  0  0  0  0  0  0  0  0
    3.1882   -9.7190   17.2566 C   0  0  0  0  0  0  0  0  0  0  0  0
    5.3488   -6.1737   26.5092 C   0  0  0  0  0  0  0  0  0  0  0  0
    7.4567   -6.9464   27.2858 C   0  0  0  0  0  0  0  0  0  0  0  0
    0.1921   -5.7592   27.1123 C   0  0  0  0  0  0  0  0  0  0  0  0
    3.5517   -7.7407   25.9711 C   0  0  0  0  0  0  0  0  0  0  0  0
  1  4  4  0
  1 22  4  0
  2 20  4  0
  2 27  4  0
  3 12  4  0
  3 23  4  0
  4 25  4  0
  4 28  1  0
  5  8  4  0
  5 17  4  0
  6  7  4  0
  6 16  4  0
  7 18  4  0
  8 27  4  0
  9 13  4  0
  9 23  4  0
 10 11  1  0
 11 14  2  0
 11 27  1  0
 12 19  1  0
 12 24  4  0
 13 24  4  0
 15 18  1  0
 16 25  4  0
 16 26  4  0
 17 20  4  0
 17 28  1  0
 18 21  4  0
 21 26  4  0
 22 26  4  0
M  END
$$$$

 Created by Python create_sdf_string function

 28 30  0  0  0  0  0  0  0  0999 V2000
    5.7174   -8.4529   26.7190 C   0  0  0  0  0  0  0  0  0  0  0  0
    0.3974   -7.0711   27.5149 C   0  0  0  0  0  0  0  0  0  0  0  0
    2.5338   -7.6891   16.0102 C   0  0  0  0  0  0  0  0  0  0  0  0
    4.8690   -7.4380   26.4151 C   0  0  0  0  0  0  0  0  0  0  0  0
    2.3021   -5.6726   26.0378 C   0  0  0  0  0  0  0  0  0  0  0  0
    7.0880   -4.6163   27.0010 C   0  0  0  0  0  0  0  0  0  0  0  0
    8.3117   -4.3698   27.4436 C   0  0  0  0  0  0  0  0  0  0  0  0
    1.1339   -5.0515   26.3541 C   0  0  0  0  0  0  0  0  0  0  0  0
    4.8080   -8.0362   16.7101 C   0  0  0  0  0  0  0  0  0  0  0  0
   -1.2173   -3.9294   26.9717 O   0  0  0  0  0  0  0  0  0  0  0  0
   -1.0025   -5.0942   27.4586 C   0  0  0  0  0  0  0  0  0  0  0  0
    2.2474   -8.9123   16.6273 C   0  0  0  0  0  0  0  0  0  0  0  0
    4.4957   -9.2636   17.3041 C   0  0  0  0  0  0  0  0  0  0  0  0
   -1.8070   -5.6086   28.1920 O   0  0  0  0  0  0  0  0  0  0  0  0
   10.4296   -5.1799   28.3140 C   0  0  0  0  0  0  0  0  0  0  0  0
    6.6017   -5.9004   26.9187 C   0  0  0  0  0  0  0  0  0  0  0  0
    2.4761   -6.9940   26.4111 N   0  0  0  0  0  0  0  0  0  0  0  0
    9.1353   -5.4053   27.8239 C   0  0  0  0  0  0  0  0  0  0  0  0
    0.9922   -9.3232   16.5995 O   0  0  0  0  0  0  0  0  0  0  0  0
    1.5232   -7.6869   27.1182 C   0  0  0  0  0  0  0  0  0  0  0  0
    8.6878   -6.6715   27.7262 N   0  0  0  0  0  0  0  0  0  0  0  0
    6.9911   -8.2423   27.1808 C   0  0  0  0  0  0  0  0  0  0  0  0
    3.8436   -7.2758   16.0578 C   0  0  0  0  0  0  0  0  0  0  0  0
    3.1882   -9.7190   17.2566 C   0  0  0  0  0  0  0  0  0  0  0  0
    5.3488   -6.1737   26.5092 C   0  0  0  0  0  0  0  0  0  0  0  0
    7.4567   -6.9464   27.2858 C   0  0  0  0  0  0  0  0  0  0  0  0
    0.1921   -5.7592   27.1123 C   0  0  0  0  0  0  0  0  0  0  0  0
    3.5517   -7.7407   25.9711 C   0  0  0  0  0  0  0  0  0  0  0  0
  1  4  4  0
  1 22  4  0
  2 20  4  0
  2 27  4  0
  3 12  4  0
  3 23  4  0
  4 25  4  0
  4 28  1  0
  5  8  4  0
  5 17  4  0
  6  7  4  0
  6 16  4  0
  7 18  4  0
  8 27  4  0
  9 13  4  0
  9 23  4  0
 10 11  1  0
 11 14  2  0
 11 27  1  0
 12 19  1  0
 12 24  4  0
 13 24  4  0
 15 18  1  0
 16 25  4  0
 16 26  4  0
 17 20  4  0
 17 28  1  0
 18 21  4  0
 21 26  4  0
 22 26  4  0
M  END
$$$$

 Created by Python create_sdf_string function

 28 30  0  0  0  0  0  0  0  0999 V2000
    5.7174   -8.4529   26.7190 C   0  0  0  0  0  0  0  0  0  0  0  0
    0.3974   -7.0711   27.5149 C   0  0  0  0  0  0  0  0  0  0  0  0
    2.5338   -7.6891   16.0102 C   0  0  0  0  0  0  0  0  0  0  0  0
    4.8690   -7.4380   26.4151 C   0  0  0  0  0  0  0  0  0  0  0  0
    2.3021   -5.6726   26.0378 C   0  0  0  0  0  0  0  0  0  0  0  0
    7.0880   -4.6163   27.0010 C   0  0  0  0  0  0  0  0  0  0  0  0
    8.3117   -4.3698   27.4436 C   0  0  0  0  0  0  0  0  0  0  0  0
    1.1339   -5.0515   26.3541 C   0  0  0  0  0  0  0  0  0  0  0  0
    4.8080   -8.0362   16.7101 C   0  0  0  0  0  0  0  0  0  0  0  0
   -1.2173   -3.9294   26.9717 O   0  0  0  0  0  0  0  0  0  0  0  0
   -1.0025   -5.0942   27.4586 C   0  0  0  0  0  0  0  0  0  0  0  0
    2.2474   -8.9123   16.6273 C   0  0  0  0  0  0  0  0  0  0  0  0
    4.4957   -9.2636   17.3041 C   0  0  0  0  0  0  0  0  0  0  0  0
   -1.8070   -5.6086   28.1920 O   0  0  0  0  0  0  0  0  0  0  0  0
   10.4296   -5.1799   28.3140 C   0  0  0  0  0  0  0  0  0  0  0  0
    6.6017   -5.9004   26.9187 C   0  0  0  0  0  0  0  0  0  0  0  0
    2.4761   -6.9940   26.4111 N   0  0  0  0  0  0  0  0  0  0  0  0
    9.1353   -5.4053   27.8239 C   0  0  0  0  0  0  0  0  0  0  0  0
    0.9922   -9.3232   16.5995 O   0  0  0  0  0  0  0  0  0  0  0  0
    1.5232   -7.6869   27.1182 C   0  0  0  0  0  0  0  0  0  0  0  0
    8.6878   -6.6715   27.7262 N   0  0  0  0  0  0  0  0  0  0  0  0
    6.9911   -8.2423   27.1808 C   0  0  0  0  0  0  0  0  0  0  0  0
    3.8436   -7.2758   16.0578 C   0  0  0  0  0  0  0  0  0  0  0  0
    3.1882   -9.7190   17.2566 C   0  0  0  0  0  0  0  0  0  0  0  0
    5.3488   -6.1737   26.5092 C   0  0  0  0  0  0  0  0  0  0  0  0
    7.4567   -6.9464   27.2858 C   0  0  0  0  0  0  0  0  0  0  0  0
    0.1921   -5.7592   27.1123 C   0  0  0  0  0  0  0  0  0  0  0  0
    3.5517   -7.7407   25.9711 C   0  0  0  0  0  0  0  0  0  0  0  0
  1  4  4  0
  1 22  4  0
  2 20  4  0
  2 27  4  0
  3 12  4  0
  3 23  4  0
  4 25  4  0
  4 28  1  0
  5  8  4  0
  5 17  4  0
  6  7  4  0
  6 16  4  0
  7 18  4  0
  8 27  4  0
  9 13  4  0
  9 23  4  0
 10 11  1  0
 11 14  2  0
 11 27  1  0
 12 19  1  0
 12 24  4  0
 13 24  4  0
 15 18  1  0
 16 25  4  0
 16 26  4  0
 17 20  4  0
 17 28  1  0
 18 21  4  0
 21 26  4  0
 22 26  4  0
M  END
$$$$

 Created by Python create_sdf_string function

 28 30  0  0  0  0  0  0  0  0999 V2000
    5.7174   -8.4529   26.7190 C   0  0  0  0  0  0  0  0  0  0  0  0
    0.3974   -7.0711   27.5149 C   0  0  0  0  0  0  0  0  0  0  0  0
    2.5338   -7.6891   16.0102 C   0  0  0  0  0  0  0  0  0  0  0  0
    4.8690   -7.4380   26.4151 C   0  0  0  0  0  0  0  0  0  0  0  0
    2.3021   -5.6726   26.0378 C   0  0  0  0  0  0  0  0  0  0  0  0
    7.0880   -4.6163   27.0010 C   0  0  0  0  0  0  0  0  0  0  0  0
    8.3117   -4.3698   27.4436 C   0  0  0  0  0  0  0  0  0  0  0  0
    1.1339   -5.0515   26.3541 C   0  0  0  0  0  0  0  0  0  0  0  0
    4.8080   -8.0362   16.7101 C   0  0  0  0  0  0  0  0  0  0  0  0
   -1.2173   -3.9294   26.9717 O   0  0  0  0  0  0  0  0  0  0  0  0
   -1.0025   -5.0942   27.4586 C   0  0  0  0  0  0  0  0  0  0  0  0
    2.2474   -8.9123   16.6273 C   0  0  0  0  0  0  0  0  0  0  0  0
    4.4957   -9.2636   17.3041 C   0  0  0  0  0  0  0  0  0  0  0  0
   -1.8070   -5.6086   28.1920 O   0  0  0  0  0  0  0  0  0  0  0  0
   10.4296   -5.1799   28.3140 C   0  0  0  0  0  0  0  0  0  0  0  0
    6.6017   -5.9004   26.9187 C   0  0  0  0  0  0  0  0  0  0  0  0
    2.4761   -6.9940   26.4111 N   0  0  0  0  0  0  0  0  0  0  0  0
    9.1353   -5.4053   27.8239 C   0  0  0  0  0  0  0  0  0  0  0  0
    0.9922   -9.3232   16.5995 O   0  0  0  0  0  0  0  0  0  0  0  0
    1.5232   -7.6869   27.1182 C   0  0  0  0  0  0  0  0  0  0  0  0
    8.6878   -6.6715   27.7262 N   0  0  0  0  0  0  0  0  0  0  0  0
    6.9911   -8.2423   27.1808 C   0  0  0  0  0  0  0  0  0  0  0  0
    3.8436   -7.2758   16.0578 C   0  0  0  0  0  0  0  0  0  0  0  0
    3.1882   -9.7190   17.2566 C   0  0  0  0  0  0  0  0  0  0  0  0
    5.3488   -6.1737   26.5092 C   0  0  0  0  0  0  0  0  0  0  0  0
    7.4567   -6.9464   27.2858 C   0  0  0  0  0  0  0  0  0  0  0  0
    0.1921   -5.7592   27.1123 C   0  0  0  0  0  0  0  0  0  0  0  0
    3.5517   -7.7407   25.9711 C   0  0  0  0  0  0  0  0  0  0  0  0
  1  4  4  0
  1 22  4  0
  2 20  4  0
  2 27  4  0
  3 12  4  0
  3 23  4  0
  4 25  4  0
  4 28  1  0
  5  8  4  0
  5 17  4  0
  6  7  4  0
  6 16  4  0
  7 18  4  0
  8 27  4  0
  9 13  4  0
  9 23  4  0
 10 11  1  0
 11 14  2  0
 11 27  1  0
 12 19  1  0
 12 24  4  0
 13 24  4  0
 15 18  1  0
 16 25  4  0
 16 26  4  0
 17 20  4  0
 17 28  1  0
 18 21  4  0
 21 26  4  0
 22 26  4  0
M  END
$$$$

 Created by Python create_sdf_string function

 28 30  0  0  0  0  0  0  0  0999 V2000
    5.7174   -8.4529   26.7190 C   0  0  0  0  0  0  0  0  0  0  0  0
    0.3974   -7.0711   27.5149 C   0  0  0  0  0  0  0  0  0  0  0  0
    2.5338   -7.6891   16.0102 C   0  0  0  0  0  0  0  0  0  0  0  0
    4.8690   -7.4380   26.4151 C   0  0  0  0  0  0  0  0  0  0  0  0
    2.3021   -5.6726   26.0378 C   0  0  0  0  0  0  0  0  0  0  0  0
    7.0880   -4.6163   27.0010 C   0  0  0  0  0  0  0  0  0  0  0  0
    8.3117   -4.3698   27.4436 C   0  0  0  0  0  0  0  0  0  0  0  0
    1.1339   -5.0515   26.3541 C   0  0  0  0  0  0  0  0  0  0  0  0
    4.8080   -8.0362   16.7101 C   0  0  0  0  0  0  0  0  0  0  0  0
   -1.2173   -3.9294   26.9717 O   0  0  0  0  0  0  0  0  0  0  0  0
   -1.0025   -5.0942   27.4586 C   0  0  0  0  0  0  0  0  0  0  0  0
    2.2474   -8.9123   16.6273 C   0  0  0  0  0  0  0  0  0  0  0  0
    4.4957   -9.2636   17.3041 C   0  0  0  0  0  0  0  0  0  0  0  0
   -1.8070   -5.6086   28.1920 O   0  0  0  0  0  0  0  0  0  0  0  0
   10.4296   -5.1799   28.3140 C   0  0  0  0  0  0  0  0  0  0  0  0
    6.6017   -5.9004   26.9187 C   0  0  0  0  0  0  0  0  0  0  0  0
    2.4761   -6.9940   26.4111 N   0  0  0  0  0  0  0  0  0  0  0  0
    9.1353   -5.4053   27.8239 C   0  0  0  0  0  0  0  0  0  0  0  0
    0.9922   -9.3232   16.5995 O   0  0  0  0  0  0  0  0  0  0  0  0
    1.5232   -7.6869   27.1182 C   0  0  0  0  0  0  0  0  0  0  0  0
    8.6878   -6.6715   27.7262 N   0  0  0  0  0  0  0  0  0  0  0  0
    6.9911   -8.2423   27.1808 C   0  0  0  0  0  0  0  0  0  0  0  0
    3.8436   -7.2758   16.0578 C   0  0  0  0  0  0  0  0  0  0  0  0
    3.1882   -9.7190   17.2566 C   0  0  0  0  0  0  0  0  0  0  0  0
    5.3488   -6.1737   26.5092 C   0  0  0  0  0  0  0  0  0  0  0  0
    7.4567   -6.9464   27.2858 C   0  0  0  0  0  0  0  0  0  0  0  0
    0.1921   -5.7592   27.1123 C   0  0  0  0  0  0  0  0  0  0  0  0
    3.5517   -7.7407   25.9711 C   0  0  0  0  0  0  0  0  0  0  0  0
  1  4  4  0
  1 22  4  0
  2 20  4  0
  2 27  4  0
  3 12  4  0
  3 23  4  0
  4 25  4  0
  4 28  1  0
  5  8  4  0
  5 17  4  0
  6  7  4  0
  6 16  4  0
  7 18  4  0
  8 27  4  0
  9 13  4  0
  9 23  4  0
 10 11  1  0
 11 14  2  0
 11 27  1  0
 12 19  1  0
 12 24  4  0
 13 24  4  0
 15 18  1  0
 16 25  4  0
 16 26  4  0
 17 20  4  0
 17 28  1  0
 18 21  4  0
 21 26  4  0
 22 26  4  0
M  END
$$$$

 Created by Python create_sdf_string function

 28 30  0  0  0  0  0  0  0  0999 V2000
    5.7174   -8.4529   26.7190 C   0  0  0  0  0  0  0  0  0  0  0  0
    0.3974   -7.0711   27.5149 C   0  0  0  0  0  0  0  0  0  0  0  0
    2.5338   -7.6891   16.0102 C   0  0  0  0  0  0  0  0  0  0  0  0
    4.8690   -7.4380   26.4151 C   0  0  0  0  0  0  0  0  0  0  0  0
    2.3021   -5.6726   26.0378 C   0  0  0  0  0  0  0  0  0  0  0  0
    7.0880   -4.6163   27.0010 C   0  0  0  0  0  0  0  0  0  0  0  0
    8.3117   -4.3698   27.4436 C   0  0  0  0  0  0  0  0  0  0  0  0
    1.1339   -5.0515   26.3541 C   0  0  0  0  0  0  0  0  0  0  0  0
    4.8080   -8.0362   16.7101 C   0  0  0  0  0  0  0  0  0  0  0  0
   -1.2173   -3.9294   26.9717 O   0  0  0  0  0  0  0  0  0  0  0  0
   -1.0025   -5.0942   27.4586 C   0  0  0  0  0  0  0  0  0  0  0  0
    2.2474   -8.9123   16.6273 C   0  0  0  0  0  0  0  0  0  0  0  0
    4.4957   -9.2636   17.3041 C   0  0  0  0  0  0  0  0  0  0  0  0
   -1.8070   -5.6086   28.1920 O   0  0  0  0  0  0  0  0  0  0  0  0
   10.4296   -5.1799   28.3140 C   0  0  0  0  0  0  0  0  0  0  0  0
    6.6017   -5.9004   26.9187 C   0  0  0  0  0  0  0  0  0  0  0  0
    2.4761   -6.9940   26.4111 N   0  0  0  0  0  0  0  0  0  0  0  0
    9.1353   -5.4053   27.8239 C   0  0  0  0  0  0  0  0  0  0  0  0
    0.9922   -9.3232   16.5995 O   0  0  0  0  0  0  0  0  0  0  0  0
    1.5232   -7.6869   27.1182 C   0  0  0  0  0  0  0  0  0  0  0  0
    8.6878   -6.6715   27.7262 N   0  0  0  0  0  0  0  0  0  0  0  0
    6.9911   -8.2423   27.1808 C   0  0  0  0  0  0  0  0  0  0  0  0
    3.8436   -7.2758   16.0578 C   0  0  0  0  0  0  0  0  0  0  0  0
    3.1882   -9.7190   17.2566 C   0  0  0  0  0  0  0  0  0  0  0  0
    5.3488   -6.1737   26.5092 C   0  0  0  0  0  0  0  0  0  0  0  0
    7.4567   -6.9464   27.2858 C   0  0  0  0  0  0  0  0  0  0  0  0
    0.1921   -5.7592   27.1123 C   0  0  0  0  0  0  0  0  0  0  0  0
    3.5517   -7.7407   25.9711 C   0  0  0  0  0  0  0  0  0  0  0  0
  1  4  4  0
  1 22  4  0
  2 20  4  0
  2 27  4  0
  3 12  4  0
  3 23  4  0
  4 25  4  0
  4 28  1  0
  5  8  4  0
  5 17  4  0
  6  7  4  0
  6 16  4  0
  7 18  4  0
  8 27  4  0
  9 13  4  0
  9 23  4  0
 10 11  1  0
 11 14  2  0
 11 27  1  0
 12 19  1  0
 12 24  4  0
 13 24  4  0
 15 18  1  0
 16 25  4  0
 16 26  4  0
 17 20  4  0
 17 28  1  0
 18 21  4  0
 21 26  4  0
 22 26  4  0
M  END
$$$$

 Created by Python create_sdf_string function

 28 30  0  0  0  0  0  0  0  0999 V2000
    5.7174   -8.4529   26.7190 C   0  0  0  0  0  0  0  0  0  0  0  0
    0.3974   -7.0711   27.5149 C   0  0  0  0  0  0  0  0  0  0  0  0
    2.5338   -7.6891   16.0102 C   0  0  0  0  0  0  0  0  0  0  0  0
    4.8690   -7.4380   26.4151 C   0  0  0  0  0  0  0  0  0  0  0  0
    2.3021   -5.6726   26.0378 C   0  0  0  0  0  0  0  0  0  0  0  0
    7.0880   -4.6163   27.0010 C   0  0  0  0  0  0  0  0  0  0  0  0
    8.3117   -4.3698   27.4436 C   0  0  0  0  0  0  0  0  0  0  0  0
    1.1339   -5.0515   26.3541 C   0  0  0  0  0  0  0  0  0  0  0  0
    4.8080   -8.0362   16.7101 C   0  0  0  0  0  0  0  0  0  0  0  0
   -1.2173   -3.9294   26.9717 O   0  0  0  0  0  0  0  0  0  0  0  0
   -1.0025   -5.0942   27.4586 C   0  0  0  0  0  0  0  0  0  0  0  0
    2.2474   -8.9123   16.6273 C   0  0  0  0  0  0  0  0  0  0  0  0
    4.4957   -9.2636   17.3041 C   0  0  0  0  0  0  0  0  0  0  0  0
   -1.8070   -5.6086   28.1920 O   0  0  0  0  0  0  0  0  0  0  0  0
   10.4296   -5.1799   28.3140 C   0  0  0  0  0  0  0  0  0  0  0  0
    6.6017   -5.9004   26.9187 C   0  0  0  0  0  0  0  0  0  0  0  0
    2.4761   -6.9940   26.4111 N   0  0  0  0  0  0  0  0  0  0  0  0
    9.1353   -5.4053   27.8239 C   0  0  0  0  0  0  0  0  0  0  0  0
    0.9922   -9.3232   16.5995 O   0  0  0  0  0  0  0  0  0  0  0  0
    1.5232   -7.6869   27.1182 C   0  0  0  0  0  0  0  0  0  0  0  0
    8.6878   -6.6715   27.7262 N   0  0  0  0  0  0  0  0  0  0  0  0
    6.9911   -8.2423   27.1808 C   0  0  0  0  0  0  0  0  0  0  0  0
    3.8436   -7.2758   16.0578 C   0  0  0  0  0  0  0  0  0  0  0  0
    3.1882   -9.7190   17.2566 C   0  0  0  0  0  0  0  0  0  0  0  0
    5.3488   -6.1737   26.5092 C   0  0  0  0  0  0  0  0  0  0  0  0
    7.4567   -6.9464   27.2858 C   0  0  0  0  0  0  0  0  0  0  0  0
    0.1921   -5.7592   27.1123 C   0  0  0  0  0  0  0  0  0  0  0  0
    3.5517   -7.7407   25.9711 C   0  0  0  0  0  0  0  0  0  0  0  0
  1  4  4  0
  1 22  4  0
  2 20  4  0
  2 27  4  0
  3 12  4  0
  3 23  4  0
  4 25  4  0
  4 28  1  0
  5  8  4  0
  5 17  4  0
  6  7  4  0
  6 16  4  0
  7 18  4  0
  8 27  4  0
  9 13  4  0
  9 23  4  0
 10 11  1  0
 11 14  2  0
 11 27  1  0
 12 19  1  0
 12 24  4  0
 13 24  4  0
 15 18  1  0
 16 25  4  0
 16 26  4  0
 17 20  4  0
 17 28  1  0
 18 21  4  0
 21 26  4  0
 22 26  4  0
M  END
$$$$

 Created by Python create_sdf_string function

 28 30  0  0  0  0  0  0  0  0999 V2000
    5.7174   -8.4529   26.7190 C   0  0  0  0  0  0  0  0  0  0  0  0
    0.3974   -7.0711   27.5149 C   0  0  0  0  0  0  0  0  0  0  0  0
    2.5338   -7.6891   16.0102 C   0  0  0  0  0  0  0  0  0  0  0  0
    4.8690   -7.4380   26.4151 C   0  0  0  0  0  0  0  0  0  0  0  0
    2.3021   -5.6726   26.0378 C   0  0  0  0  0  0  0  0  0  0  0  0
    7.0880   -4.6163   27.0010 C   0  0  0  0  0  0  0  0  0  0  0  0
    8.3117   -4.3698   27.4436 C   0  0  0  0  0  0  0  0  0  0  0  0
    1.1339   -5.0515   26.3541 C   0  0  0  0  0  0  0  0  0  0  0  0
    4.8080   -8.0362   16.7101 C   0  0  0  0  0  0  0  0  0  0  0  0
   -1.2173   -3.9294   26.9717 O   0  0  0  0  0  0  0  0  0  0  0  0
   -1.0025   -5.0942   27.4586 C   0  0  0  0  0  0  0  0  0  0  0  0
    2.2474   -8.9123   16.6273 C   0  0  0  0  0  0  0  0  0  0  0  0
    4.4957   -9.2636   17.3041 C   0  0  0  0  0  0  0  0  0  0  0  0
   -1.8070   -5.6086   28.1920 O   0  0  0  0  0  0  0  0  0  0  0  0
   10.4296   -5.1799   28.3140 C   0  0  0  0  0  0  0  0  0  0  0  0
    6.6017   -5.9004   26.9187 C   0  0  0  0  0  0  0  0  0  0  0  0
    2.4761   -6.9940   26.4111 N   0  0  0  0  0  0  0  0  0  0  0  0
    9.1353   -5.4053   27.8239 C   0  0  0  0  0  0  0  0  0  0  0  0
    0.9922   -9.3232   16.5995 O   0  0  0  0  0  0  0  0  0  0  0  0
    1.5232   -7.6869   27.1182 C   0  0  0  0  0  0  0  0  0  0  0  0
    8.6878   -6.6715   27.7262 N   0  0  0  0  0  0  0  0  0  0  0  0
    6.9911   -8.2423   27.1808 C   0  0  0  0  0  0  0  0  0  0  0  0
    3.8436   -7.2758   16.0578 C   0  0  0  0  0  0  0  0  0  0  0  0
    3.1882   -9.7190   17.2566 C   0  0  0  0  0  0  0  0  0  0  0  0
    5.3488   -6.1737   26.5092 C   0  0  0  0  0  0  0  0  0  0  0  0
    7.4567   -6.9464   27.2858 C   0  0  0  0  0  0  0  0  0  0  0  0
    0.1921   -5.7592   27.1123 C   0  0  0  0  0  0  0  0  0  0  0  0
    3.5517   -7.7407   25.9711 C   0  0  0  0  0  0  0  0  0  0  0  0
  1  4  4  0
  1 22  4  0
  2 20  4  0
  2 27  4  0
  3 12  4  0
  3 23  4  0
  4 25  4  0
  4 28  1  0
  5  8  4  0
  5 17  4  0
  6  7  4  0
  6 16  4  0
  7 18  4  0
  8 27  4  0
  9 13  4  0
  9 23  4  0
 10 11  1  0
 11 14  2  0
 11 27  1  0
 12 19  1  0
 12 24  4  0
 13 24  4  0
 15 18  1  0
 16 25  4  0
 16 26  4  0
 17 20  4  0
 17 28  1  0
 18 21  4  0
 21 26  4  0
 22 26  4  0
M  END
$$$$

 Created by Python create_sdf_string function

 28 30  0  0  0  0  0  0  0  0999 V2000
    5.7174   -8.4529   26.7190 C   0  0  0  0  0  0  0  0  0  0  0  0
    0.3974   -7.0711   27.5149 C   0  0  0  0  0  0  0  0  0  0  0  0
    2.5338   -7.6891   16.0102 C   0  0  0  0  0  0  0  0  0  0  0  0
    4.8690   -7.4380   26.4151 C   0  0  0  0  0  0  0  0  0  0  0  0
    2.3021   -5.6726   26.0378 C   0  0  0  0  0  0  0  0  0  0  0  0
    7.0880   -4.6163   27.0010 C   0  0  0  0  0  0  0  0  0  0  0  0
    8.3117   -4.3698   27.4436 C   0  0  0  0  0  0  0  0  0  0  0  0
    1.1339   -5.0515   26.3541 C   0  0  0  0  0  0  0  0  0  0  0  0
    4.8080   -8.0362   16.7101 C   0  0  0  0  0  0  0  0  0  0  0  0
   -1.2173   -3.9294   26.9717 O   0  0  0  0  0  0  0  0  0  0  0  0
   -1.0025   -5.0942   27.4586 C   0  0  0  0  0  0  0  0  0  0  0  0
    2.2474   -8.9123   16.6273 C   0  0  0  0  0  0  0  0  0  0  0  0
    4.4957   -9.2636   17.3041 C   0  0  0  0  0  0  0  0  0  0  0  0
   -1.8070   -5.6086   28.1920 O   0  0  0  0  0  0  0  0  0  0  0  0
   10.4296   -5.1799   28.3140 C   0  0  0  0  0  0  0  0  0  0  0  0
    6.6017   -5.9004   26.9187 C   0  0  0  0  0  0  0  0  0  0  0  0
    2.4761   -6.9940   26.4111 N   0  0  0  0  0  0  0  0  0  0  0  0
    9.1353   -5.4053   27.8239 C   0  0  0  0  0  0  0  0  0  0  0  0
    0.9922   -9.3232   16.5995 O   0  0  0  0  0  0  0  0  0  0  0  0
    1.5232   -7.6869   27.1182 C   0  0  0  0  0  0  0  0  0  0  0  0
    8.6878   -6.6715   27.7262 N   0  0  0  0  0  0  0  0  0  0  0  0
    6.9911   -8.2423   27.1808 C   0  0  0  0  0  0  0  0  0  0  0  0
    3.8436   -7.2758   16.0578 C   0  0  0  0  0  0  0  0  0  0  0  0
    3.1882   -9.7190   17.2566 C   0  0  0  0  0  0  0  0  0  0  0  0
    5.3488   -6.1737   26.5092 C   0  0  0  0  0  0  0  0  0  0  0  0
    7.4567   -6.9464   27.2858 C   0  0  0  0  0  0  0  0  0  0  0  0
    0.1921   -5.7592   27.1123 C   0  0  0  0  0  0  0  0  0  0  0  0
    3.5517   -7.7407   25.9711 C   0  0  0  0  0  0  0  0  0  0  0  0
  1  4  4  0
  1 22  4  0
  2 20  4  0
  2 27  4  0
  3 12  4  0
  3 23  4  0
  4 25  4  0
  4 28  1  0
  5  8  4  0
  5 17  4  0
  6  7  4  0
  6 16  4  0
  7 18  4  0
  8 27  4  0
  9 13  4  0
  9 23  4  0
 10 11  1  0
 11 14  2  0
 11 27  1  0
 12 19  1  0
 12 24  4  0
 13 24  4  0
 15 18  1  0
 16 25  4  0
 16 26  4  0
 17 20  4  0
 17 28  1  0
 18 21  4  0
 21 26  4  0
 22 26  4  0
M  END
$$$$

 Created by Python create_sdf_string function

 28 30  0  0  0  0  0  0  0  0999 V2000
    5.7174   -8.4529   26.7190 C   0  0  0  0  0  0  0  0  0  0  0  0
    0.3974   -7.0711   27.5149 C   0  0  0  0  0  0  0  0  0  0  0  0
    2.5338   -7.6891   16.0102 C   0  0  0  0  0  0  0  0  0  0  0  0
    4.8690   -7.4380   26.4151 C   0  0  0  0  0  0  0  0  0  0  0  0
    2.3021   -5.6726   26.0378 C   0  0  0  0  0  0  0  0  0  0  0  0
    7.0880   -4.6163   27.0010 C   0  0  0  0  0  0  0  0  0  0  0  0
    8.3117   -4.3698   27.4436 C   0  0  0  0  0  0  0  0  0  0  0  0
    1.1339   -5.0515   26.3541 C   0  0  0  0  0  0  0  0  0  0  0  0
    4.8080   -8.0362   16.7101 C   0  0  0  0  0  0  0  0  0  0  0  0
   -1.2173   -3.9294   26.9717 O   0  0  0  0  0  0  0  0  0  0  0  0
   -1.0025   -5.0942   27.4586 C   0  0  0  0  0  0  0  0  0  0  0  0
    2.2474   -8.9123   16.6273 C   0  0  0  0  0  0  0  0  0  0  0  0
    4.4957   -9.2636   17.3041 C   0  0  0  0  0  0  0  0  0  0  0  0
   -1.8070   -5.6086   28.1920 O   0  0  0  0  0  0  0  0  0  0  0  0
   10.4296   -5.1799   28.3140 C   0  0  0  0  0  0  0  0  0  0  0  0
    6.6017   -5.9004   26.9187 C   0  0  0  0  0  0  0  0  0  0  0  0
    2.4761   -6.9940   26.4111 N   0  0  0  0  0  0  0  0  0  0  0  0
    9.1353   -5.4053   27.8239 C   0  0  0  0  0  0  0  0  0  0  0  0
    0.9922   -9.3232   16.5995 O   0  0  0  0  0  0  0  0  0  0  0  0
    1.5232   -7.6869   27.1182 C   0  0  0  0  0  0  0  0  0  0  0  0
    8.6878   -6.6715   27.7262 N   0  0  0  0  0  0  0  0  0  0  0  0
    6.9911   -8.2423   27.1808 C   0  0  0  0  0  0  0  0  0  0  0  0
    3.8436   -7.2758   16.0578 C   0  0  0  0  0  0  0  0  0  0  0  0
    3.1882   -9.7190   17.2566 C   0  0  0  0  0  0  0  0  0  0  0  0
    5.3488   -6.1737   26.5092 C   0  0  0  0  0  0  0  0  0  0  0  0
    7.4567   -6.9464   27.2858 C   0  0  0  0  0  0  0  0  0  0  0  0
    0.1921   -5.7592   27.1123 C   0  0  0  0  0  0  0  0  0  0  0  0
    3.5517   -7.7407   25.9711 C   0  0  0  0  0  0  0  0  0  0  0  0
  1  4  4  0
  1 22  4  0
  2 20  4  0
  2 27  4  0
  3 12  4  0
  3 23  4  0
  4 25  4  0
  4 28  1  0
  5  8  4  0
  5 17  4  0
  6  7  4  0
  6 16  4  0
  7 18  4  0
  8 27  4  0
  9 13  4  0
  9 23  4  0
 10 11  1  0
 11 14  2  0
 11 27  1  0
 12 19  1  0
 12 24  4  0
 13 24  4  0
 15 18  1  0
 16 25  4  0
 16 26  4  0
 17 20  4  0
 17 28  1  0
 18 21  4  0
 21 26  4  0
 22 26  4  0
M  END
$$$$

 Created by Python create_sdf_string function

 28 30  0  0  0  0  0  0  0  0999 V2000
    5.7174   -8.4529   26.7190 C   0  0  0  0  0  0  0  0  0  0  0  0
    0.3974   -7.0711   27.5149 C   0  0  0  0  0  0  0  0  0  0  0  0
    2.5338   -7.6891   16.0102 C   0  0  0  0  0  0  0  0  0  0  0  0
    4.8690   -7.4380   26.4151 C   0  0  0  0  0  0  0  0  0  0  0  0
    2.3021   -5.6726   26.0378 C   0  0  0  0  0  0  0  0  0  0  0  0
    7.0880   -4.6163   27.0010 C   0  0  0  0  0  0  0  0  0  0  0  0
    8.3117   -4.3698   27.4436 C   0  0  0  0  0  0  0  0  0  0  0  0
    1.1339   -5.0515   26.3541 C   0  0  0  0  0  0  0  0  0  0  0  0
    4.8080   -8.0362   16.7101 C   0  0  0  0  0  0  0  0  0  0  0  0
   -1.2173   -3.9294   26.9717 O   0  0  0  0  0  0  0  0  0  0  0  0
   -1.0025   -5.0942   27.4586 C   0  0  0  0  0  0  0  0  0  0  0  0
    2.2474   -8.9123   16.6273 C   0  0  0  0  0  0  0  0  0  0  0  0
    4.4957   -9.2636   17.3041 C   0  0  0  0  0  0  0  0  0  0  0  0
   -1.8070   -5.6086   28.1920 O   0  0  0  0  0  0  0  0  0  0  0  0
   10.4296   -5.1799   28.3140 C   0  0  0  0  0  0  0  0  0  0  0  0
    6.6017   -5.9004   26.9187 C   0  0  0  0  0  0  0  0  0  0  0  0
    2.4761   -6.9940   26.4111 N   0  0  0  0  0  0  0  0  0  0  0  0
    9.1353   -5.4053   27.8239 C   0  0  0  0  0  0  0  0  0  0  0  0
    0.9922   -9.3232   16.5995 O   0  0  0  0  0  0  0  0  0  0  0  0
    1.5232   -7.6869   27.1182 C   0  0  0  0  0  0  0  0  0  0  0  0
    8.6878   -6.6715   27.7262 N   0  0  0  0  0  0  0  0  0  0  0  0
    6.9911   -8.2423   27.1808 C   0  0  0  0  0  0  0  0  0  0  0  0
    3.8436   -7.2758   16.0578 C   0  0  0  0  0  0  0  0  0  0  0  0
    3.1882   -9.7190   17.2566 C   0  0  0  0  0  0  0  0  0  0  0  0
    5.3488   -6.1737   26.5092 C   0  0  0  0  0  0  0  0  0  0  0  0
    7.4567   -6.9464   27.2858 C   0  0  0  0  0  0  0  0  0  0  0  0
    0.1921   -5.7592   27.1123 C   0  0  0  0  0  0  0  0  0  0  0  0
    3.5517   -7.7407   25.9711 C   0  0  0  0  0  0  0  0  0  0  0  0
  1  4  4  0
  1 22  4  0
  2 20  4  0
  2 27  4  0
  3 12  4  0
  3 23  4  0
  4 25  4  0
  4 28  1  0
  5  8  4  0
  5 17  4  0
  6  7  4  0
  6 16  4  0
  7 18  4  0
  8 27  4  0
  9 13  4  0
  9 23  4  0
 10 11  1  0
 11 14  2  0
 11 27  1  0
 12 19  1  0
 12 24  4  0
 13 24  4  0
 15 18  1  0
 16 25  4  0
 16 26  4  0
 17 20  4  0
 17 28  1  0
 18 21  4  0
 21 26  4  0
 22 26  4  0
M  END
$$$$

 Created by Python create_sdf_string function

 28 30  0  0  0  0  0  0  0  0999 V2000
    5.7174   -8.4529   26.7190 C   0  0  0  0  0  0  0  0  0  0  0  0
    0.3974   -7.0711   27.5149 C   0  0  0  0  0  0  0  0  0  0  0  0
    2.5338   -7.6891   16.0102 C   0  0  0  0  0  0  0  0  0  0  0  0
    4.8690   -7.4380   26.4151 C   0  0  0  0  0  0  0  0  0  0  0  0
    2.3021   -5.6726   26.0378 C   0  0  0  0  0  0  0  0  0  0  0  0
    7.0880   -4.6163   27.0010 C   0  0  0  0  0  0  0  0  0  0  0  0
    8.3117   -4.3698   27.4436 C   0  0  0  0  0  0  0  0  0  0  0  0
    1.1339   -5.0515   26.3541 C   0  0  0  0  0  0  0  0  0  0  0  0
    4.8080   -8.0362   16.7101 C   0  0  0  0  0  0  0  0  0  0  0  0
   -1.2173   -3.9294   26.9717 O   0  0  0  0  0  0  0  0  0  0  0  0
   -1.0025   -5.0942   27.4586 C   0  0  0  0  0  0  0  0  0  0  0  0
    2.2474   -8.9123   16.6273 C   0  0  0  0  0  0  0  0  0  0  0  0
    4.4957   -9.2636   17.3041 C   0  0  0  0  0  0  0  0  0  0  0  0
   -1.8070   -5.6086   28.1920 O   0  0  0  0  0  0  0  0  0  0  0  0
   10.4296   -5.1799   28.3140 C   0  0  0  0  0  0  0  0  0  0  0  0
    6.6017   -5.9004   26.9187 C   0  0  0  0  0  0  0  0  0  0  0  0
    2.4761   -6.9940   26.4111 N   0  0  0  0  0  0  0  0  0  0  0  0
    9.1353   -5.4053   27.8239 C   0  0  0  0  0  0  0  0  0  0  0  0
    0.9922   -9.3232   16.5995 O   0  0  0  0  0  0  0  0  0  0  0  0
    1.5232   -7.6869   27.1182 C   0  0  0  0  0  0  0  0  0  0  0  0
    8.6878   -6.6715   27.7262 N   0  0  0  0  0  0  0  0  0  0  0  0
    6.9911   -8.2423   27.1808 C   0  0  0  0  0  0  0  0  0  0  0  0
    3.8436   -7.2758   16.0578 C   0  0  0  0  0  0  0  0  0  0  0  0
    3.1882   -9.7190   17.2566 C   0  0  0  0  0  0  0  0  0  0  0  0
    5.3488   -6.1737   26.5092 C   0  0  0  0  0  0  0  0  0  0  0  0
    7.4567   -6.9464   27.2858 C   0  0  0  0  0  0  0  0  0  0  0  0
    0.1921   -5.7592   27.1123 C   0  0  0  0  0  0  0  0  0  0  0  0
    3.5517   -7.7407   25.9711 C   0  0  0  0  0  0  0  0  0  0  0  0
  1  4  4  0
  1 22  4  0
  2 20  4  0
  2 27  4  0
  3 12  4  0
  3 23  4  0
  4 25  4  0
  4 28  1  0
  5  8  4  0
  5 17  4  0
  6  7  4  0
  6 16  4  0
  7 18  4  0
  8 27  4  0
  9 13  4  0
  9 23  4  0
 10 11  1  0
 11 14  2  0
 11 27  1  0
 12 19  1  0
 12 24  4  0
 13 24  4  0
 15 18  1  0
 16 25  4  0
 16 26  4  0
 17 20  4  0
 17 28  1  0
 18 21  4  0
 21 26  4  0
 22 26  4  0
M  END
$$$$

 Created by Python create_sdf_string function

 28 30  0  0  0  0  0  0  0  0999 V2000
    5.7174   -8.4529   26.7190 C   0  0  0  0  0  0  0  0  0  0  0  0
    0.3974   -7.0711   27.5149 C   0  0  0  0  0  0  0  0  0  0  0  0
    2.5338   -7.6891   16.0102 C   0  0  0  0  0  0  0  0  0  0  0  0
    4.8690   -7.4380   26.4151 C   0  0  0  0  0  0  0  0  0  0  0  0
    2.3021   -5.6726   26.0378 C   0  0  0  0  0  0  0  0  0  0  0  0
    7.0880   -4.6163   27.0010 C   0  0  0  0  0  0  0  0  0  0  0  0
    8.3117   -4.3698   27.4436 C   0  0  0  0  0  0  0  0  0  0  0  0
    1.1339   -5.0515   26.3541 C   0  0  0  0  0  0  0  0  0  0  0  0
    4.8080   -8.0362   16.7101 C   0  0  0  0  0  0  0  0  0  0  0  0
   -1.2173   -3.9294   26.9717 O   0  0  0  0  0  0  0  0  0  0  0  0
   -1.0025   -5.0942   27.4586 C   0  0  0  0  0  0  0  0  0  0  0  0
    2.2474   -8.9123   16.6273 C   0  0  0  0  0  0  0  0  0  0  0  0
    4.4957   -9.2636   17.3041 C   0  0  0  0  0  0  0  0  0  0  0  0
   -1.8070   -5.6086   28.1920 O   0  0  0  0  0  0  0  0  0  0  0  0
   10.4296   -5.1799   28.3140 C   0  0  0  0  0  0  0  0  0  0  0  0
    6.6017   -5.9004   26.9187 C   0  0  0  0  0  0  0  0  0  0  0  0
    2.4761   -6.9940   26.4111 N   0  0  0  0  0  0  0  0  0  0  0  0
    9.1353   -5.4053   27.8239 C   0  0  0  0  0  0  0  0  0  0  0  0
    0.9922   -9.3232   16.5995 O   0  0  0  0  0  0  0  0  0  0  0  0
    1.5232   -7.6869   27.1182 C   0  0  0  0  0  0  0  0  0  0  0  0
    8.6878   -6.6715   27.7262 N   0  0  0  0  0  0  0  0  0  0  0  0
    6.9911   -8.2423   27.1808 C   0  0  0  0  0  0  0  0  0  0  0  0
    3.8436   -7.2758   16.0578 C   0  0  0  0  0  0  0  0  0  0  0  0
    3.1882   -9.7190   17.2566 C   0  0  0  0  0  0  0  0  0  0  0  0
    5.3488   -6.1737   26.5092 C   0  0  0  0  0  0  0  0  0  0  0  0
    7.4567   -6.9464   27.2858 C   0  0  0  0  0  0  0  0  0  0  0  0
    0.1921   -5.7592   27.1123 C   0  0  0  0  0  0  0  0  0  0  0  0
    3.5517   -7.7407   25.9711 C   0  0  0  0  0  0  0  0  0  0  0  0
  1  4  4  0
  1 22  4  0
  2 20  4  0
  2 27  4  0
  3 12  4  0
  3 23  4  0
  4 25  4  0
  4 28  1  0
  5  8  4  0
  5 17  4  0
  6  7  4  0
  6 16  4  0
  7 18  4  0
  8 27  4  0
  9 13  4  0
  9 23  4  0
 10 11  1  0
 11 14  2  0
 11 27  1  0
 12 19  1  0
 12 24  4  0
 13 24  4  0
 15 18  1  0
 16 25  4  0
 16 26  4  0
 17 20  4  0
 17 28  1  0
 18 21  4  0
 21 26  4  0
 22 26  4  0
M  END
$$$$

 Created by Python create_sdf_string function

 28 30  0  0  0  0  0  0  0  0999 V2000
    5.7174   -8.4529   26.7190 C   0  0  0  0  0  0  0  0  0  0  0  0
    0.3974   -7.0711   27.5149 C   0  0  0  0  0  0  0  0  0  0  0  0
    2.5338   -7.6891   16.0102 C   0  0  0  0  0  0  0  0  0  0  0  0
    4.8690   -7.4380   26.4151 C   0  0  0  0  0  0  0  0  0  0  0  0
    2.3021   -5.6726   26.0378 C   0  0  0  0  0  0  0  0  0  0  0  0
    7.0880   -4.6163   27.0010 C   0  0  0  0  0  0  0  0  0  0  0  0
    8.3117   -4.3698   27.4436 C   0  0  0  0  0  0  0  0  0  0  0  0
    1.1339   -5.0515   26.3541 C   0  0  0  0  0  0  0  0  0  0  0  0
    4.8080   -8.0362   16.7101 C   0  0  0  0  0  0  0  0  0  0  0  0
   -1.2173   -3.9294   26.9717 O   0  0  0  0  0  0  0  0  0  0  0  0
   -1.0025   -5.0942   27.4586 C   0  0  0  0  0  0  0  0  0  0  0  0
    2.2474   -8.9123   16.6273 C   0  0  0  0  0  0  0  0  0  0  0  0
    4.4957   -9.2636   17.3041 C   0  0  0  0  0  0  0  0  0  0  0  0
   -1.8070   -5.6086   28.1920 O   0  0  0  0  0  0  0  0  0  0  0  0
   10.4296   -5.1799   28.3140 C   0  0  0  0  0  0  0  0  0  0  0  0
    6.6017   -5.9004   26.9187 C   0  0  0  0  0  0  0  0  0  0  0  0
    2.4761   -6.9940   26.4111 N   0  0  0  0  0  0  0  0  0  0  0  0
    9.1353   -5.4053   27.8239 C   0  0  0  0  0  0  0  0  0  0  0  0
    0.9922   -9.3232   16.5995 O   0  0  0  0  0  0  0  0  0  0  0  0
    1.5232   -7.6869   27.1182 C   0  0  0  0  0  0  0  0  0  0  0  0
    8.6878   -6.6715   27.7262 N   0  0  0  0  0  0  0  0  0  0  0  0
    6.9911   -8.2423   27.1808 C   0  0  0  0  0  0  0  0  0  0  0  0
    3.8436   -7.2758   16.0578 C   0  0  0  0  0  0  0  0  0  0  0  0
    3.1882   -9.7190   17.2566 C   0  0  0  0  0  0  0  0  0  0  0  0
    5.3488   -6.1737   26.5092 C   0  0  0  0  0  0  0  0  0  0  0  0
    7.4567   -6.9464   27.2858 C   0  0  0  0  0  0  0  0  0  0  0  0
    0.1921   -5.7592   27.1123 C   0  0  0  0  0  0  0  0  0  0  0  0
    3.5517   -7.7407   25.9711 C   0  0  0  0  0  0  0  0  0  0  0  0
  1  4  4  0
  1 22  4  0
  2 20  4  0
  2 27  4  0
  3 12  4  0
  3 23  4  0
  4 25  4  0
  4 28  1  0
  5  8  4  0
  5 17  4  0
  6  7  4  0
  6 16  4  0
  7 18  4  0
  8 27  4  0
  9 13  4  0
  9 23  4  0
 10 11  1  0
 11 14  2  0
 11 27  1  0
 12 19  1  0
 12 24  4  0
 13 24  4  0
 15 18  1  0
 16 25  4  0
 16 26  4  0
 17 20  4  0
 17 28  1  0
 18 21  4  0
 21 26  4  0
 22 26  4  0
M  END
$$$$

 Created by Python create_sdf_string function

 28 30  0  0  0  0  0  0  0  0999 V2000
    5.7174   -8.4529   26.7190 C   0  0  0  0  0  0  0  0  0  0  0  0
    0.3974   -7.0711   27.5149 C   0  0  0  0  0  0  0  0  0  0  0  0
    2.5338   -7.6891   16.0102 C   0  0  0  0  0  0  0  0  0  0  0  0
    4.8690   -7.4380   26.4151 C   0  0  0  0  0  0  0  0  0  0  0  0
    2.3021   -5.6726   26.0378 C   0  0  0  0  0  0  0  0  0  0  0  0
    7.0880   -4.6163   27.0010 C   0  0  0  0  0  0  0  0  0  0  0  0
    8.3117   -4.3698   27.4436 C   0  0  0  0  0  0  0  0  0  0  0  0
    1.1339   -5.0515   26.3541 C   0  0  0  0  0  0  0  0  0  0  0  0
    4.8080   -8.0362   16.7101 C   0  0  0  0  0  0  0  0  0  0  0  0
   -1.2173   -3.9294   26.9717 O   0  0  0  0  0  0  0  0  0  0  0  0
   -1.0025   -5.0942   27.4586 C   0  0  0  0  0  0  0  0  0  0  0  0
    2.2474   -8.9123   16.6273 C   0  0  0  0  0  0  0  0  0  0  0  0
    4.4957   -9.2636   17.3041 C   0  0  0  0  0  0  0  0  0  0  0  0
   -1.8070   -5.6086   28.1920 O   0  0  0  0  0  0  0  0  0  0  0  0
   10.4296   -5.1799   28.3140 C   0  0  0  0  0  0  0  0  0  0  0  0
    6.6017   -5.9004   26.9187 C   0  0  0  0  0  0  0  0  0  0  0  0
    2.4761   -6.9940   26.4111 N   0  0  0  0  0  0  0  0  0  0  0  0
    9.1353   -5.4053   27.8239 C   0  0  0  0  0  0  0  0  0  0  0  0
    0.9922   -9.3232   16.5995 O   0  0  0  0  0  0  0  0  0  0  0  0
    1.5232   -7.6869   27.1182 C   0  0  0  0  0  0  0  0  0  0  0  0
    8.6878   -6.6715   27.7262 N   0  0  0  0  0  0  0  0  0  0  0  0
    6.9911   -8.2423   27.1808 C   0  0  0  0  0  0  0  0  0  0  0  0
    3.8436   -7.2758   16.0578 C   0  0  0  0  0  0  0  0  0  0  0  0
    3.1882   -9.7190   17.2566 C   0  0  0  0  0  0  0  0  0  0  0  0
    5.3488   -6.1737   26.5092 C   0  0  0  0  0  0  0  0  0  0  0  0
    7.4567   -6.9464   27.2858 C   0  0  0  0  0  0  0  0  0  0  0  0
    0.1921   -5.7592   27.1123 C   0  0  0  0  0  0  0  0  0  0  0  0
    3.5517   -7.7407   25.9711 C   0  0  0  0  0  0  0  0  0  0  0  0
  1  4  4  0
  1 22  4  0
  2 20  4  0
  2 27  4  0
  3 12  4  0
  3 23  4  0
  4 25  4  0
  4 28  1  0
  5  8  4  0
  5 17  4  0
  6  7  4  0
  6 16  4  0
  7 18  4  0
  8 27  4  0
  9 13  4  0
  9 23  4  0
 10 11  1  0
 11 14  2  0
 11 27  1  0
 12 19  1  0
 12 24  4  0
 13 24  4  0
 15 18  1  0
 16 25  4  0
 16 26  4  0
 17 20  4  0
 17 28  1  0
 18 21  4  0
 21 26  4  0
 22 26  4  0
M  END
$$$$

 Created by Python create_sdf_string function

 28 30  0  0  0  0  0  0  0  0999 V2000
    5.7174   -8.4529   26.7190 C   0  0  0  0  0  0  0  0  0  0  0  0
    0.3974   -7.0711   27.5149 C   0  0  0  0  0  0  0  0  0  0  0  0
    2.5338   -7.6891   16.0102 C   0  0  0  0  0  0  0  0  0  0  0  0
    4.8690   -7.4380   26.4151 C   0  0  0  0  0  0  0  0  0  0  0  0
    2.3021   -5.6726   26.0378 C   0  0  0  0  0  0  0  0  0  0  0  0
    7.0880   -4.6163   27.0010 C   0  0  0  0  0  0  0  0  0  0  0  0
    8.3117   -4.3698   27.4436 C   0  0  0  0  0  0  0  0  0  0  0  0
    1.1339   -5.0515   26.3541 C   0  0  0  0  0  0  0  0  0  0  0  0
    4.8080   -8.0362   16.7101 C   0  0  0  0  0  0  0  0  0  0  0  0
   -1.2173   -3.9294   26.9717 O   0  0  0  0  0  0  0  0  0  0  0  0
   -1.0025   -5.0942   27.4586 C   0  0  0  0  0  0  0  0  0  0  0  0
    2.2474   -8.9123   16.6273 C   0  0  0  0  0  0  0  0  0  0  0  0
    4.4957   -9.2636   17.3041 C   0  0  0  0  0  0  0  0  0  0  0  0
   -1.8070   -5.6086   28.1920 O   0  0  0  0  0  0  0  0  0  0  0  0
   10.4296   -5.1799   28.3140 C   0  0  0  0  0  0  0  0  0  0  0  0
    6.6017   -5.9004   26.9187 C   0  0  0  0  0  0  0  0  0  0  0  0
    2.4761   -6.9940   26.4111 N   0  0  0  0  0  0  0  0  0  0  0  0
    9.1353   -5.4053   27.8239 C   0  0  0  0  0  0  0  0  0  0  0  0
    0.9922   -9.3232   16.5995 O   0  0  0  0  0  0  0  0  0  0  0  0
    1.5232   -7.6869   27.1182 C   0  0  0  0  0  0  0  0  0  0  0  0
    8.6878   -6.6715   27.7262 N   0  0  0  0  0  0  0  0  0  0  0  0
    6.9911   -8.2423   27.1808 C   0  0  0  0  0  0  0  0  0  0  0  0
    3.8436   -7.2758   16.0578 C   0  0  0  0  0  0  0  0  0  0  0  0
    3.1882   -9.7190   17.2566 C   0  0  0  0  0  0  0  0  0  0  0  0
    5.3488   -6.1737   26.5092 C   0  0  0  0  0  0  0  0  0  0  0  0
    7.4567   -6.9464   27.2858 C   0  0  0  0  0  0  0  0  0  0  0  0
    0.1921   -5.7592   27.1123 C   0  0  0  0  0  0  0  0  0  0  0  0
    3.5517   -7.7407   25.9711 C   0  0  0  0  0  0  0  0  0  0  0  0
  1  4  4  0
  1 22  4  0
  2 20  4  0
  2 27  4  0
  3 12  4  0
  3 23  4  0
  4 25  4  0
  4 28  1  0
  5  8  4  0
  5 17  4  0
  6  7  4  0
  6 16  4  0
  7 18  4  0
  8 27  4  0
  9 13  4  0
  9 23  4  0
 10 11  1  0
 11 14  2  0
 11 27  1  0
 12 19  1  0
 12 24  4  0
 13 24  4  0
 15 18  1  0
 16 25  4  0
 16 26  4  0
 17 20  4  0
 17 28  1  0
 18 21  4  0
 21 26  4  0
 22 26  4  0
M  END
$$$$

 Created by Python create_sdf_string function

 28 30  0  0  0  0  0  0  0  0999 V2000
    5.7174   -8.4529   26.7190 C   0  0  0  0  0  0  0  0  0  0  0  0
    0.3974   -7.0711   27.5149 C   0  0  0  0  0  0  0  0  0  0  0  0
    2.5338   -7.6891   16.0102 C   0  0  0  0  0  0  0  0  0  0  0  0
    4.8690   -7.4380   26.4151 C   0  0  0  0  0  0  0  0  0  0  0  0
    2.3021   -5.6726   26.0378 C   0  0  0  0  0  0  0  0  0  0  0  0
    7.0880   -4.6163   27.0010 C   0  0  0  0  0  0  0  0  0  0  0  0
    8.3117   -4.3698   27.4436 C   0  0  0  0  0  0  0  0  0  0  0  0
    1.1339   -5.0515   26.3541 C   0  0  0  0  0  0  0  0  0  0  0  0
    4.8080   -8.0362   16.7101 C   0  0  0  0  0  0  0  0  0  0  0  0
   -1.2173   -3.9294   26.9717 O   0  0  0  0  0  0  0  0  0  0  0  0
   -1.0025   -5.0942   27.4586 C   0  0  0  0  0  0  0  0  0  0  0  0
    2.2474   -8.9123   16.6273 C   0  0  0  0  0  0  0  0  0  0  0  0
    4.4957   -9.2636   17.3041 C   0  0  0  0  0  0  0  0  0  0  0  0
   -1.8070   -5.6086   28.1920 O   0  0  0  0  0  0  0  0  0  0  0  0
   10.4296   -5.1799   28.3140 C   0  0  0  0  0  0  0  0  0  0  0  0
    6.6017   -5.9004   26.9187 C   0  0  0  0  0  0  0  0  0  0  0  0
    2.4761   -6.9940   26.4111 N   0  0  0  0  0  0  0  0  0  0  0  0
    9.1353   -5.4053   27.8239 C   0  0  0  0  0  0  0  0  0  0  0  0
    0.9922   -9.3232   16.5995 O   0  0  0  0  0  0  0  0  0  0  0  0
    1.5232   -7.6869   27.1182 C   0  0  0  0  0  0  0  0  0  0  0  0
    8.6878   -6.6715   27.7262 N   0  0  0  0  0  0  0  0  0  0  0  0
    6.9911   -8.2423   27.1808 C   0  0  0  0  0  0  0  0  0  0  0  0
    3.8436   -7.2758   16.0578 C   0  0  0  0  0  0  0  0  0  0  0  0
    3.1882   -9.7190   17.2566 C   0  0  0  0  0  0  0  0  0  0  0  0
    5.3488   -6.1737   26.5092 C   0  0  0  0  0  0  0  0  0  0  0  0
    7.4567   -6.9464   27.2858 C   0  0  0  0  0  0  0  0  0  0  0  0
    0.1921   -5.7592   27.1123 C   0  0  0  0  0  0  0  0  0  0  0  0
    3.5517   -7.7407   25.9711 C   0  0  0  0  0  0  0  0  0  0  0  0
  1  4  4  0
  1 22  4  0
  2 20  4  0
  2 27  4  0
  3 12  4  0
  3 23  4  0
  4 25  4  0
  4 28  1  0
  5  8  4  0
  5 17  4  0
  6  7  4  0
  6 16  4  0
  7 18  4  0
  8 27  4  0
  9 13  4  0
  9 23  4  0
 10 11  1  0
 11 14  2  0
 11 27  1  0
 12 19  1  0
 12 24  4  0
 13 24  4  0
 15 18  1  0
 16 25  4  0
 16 26  4  0
 17 20  4  0
 17 28  1  0
 18 21  4  0
 21 26  4  0
 22 26  4  0
M  END
$$$$

 Created by Python create_sdf_string function

 28 30  0  0  0  0  0  0  0  0999 V2000
    5.7174   -8.4529   26.7190 C   0  0  0  0  0  0  0  0  0  0  0  0
    0.3974   -7.0711   27.5149 C   0  0  0  0  0  0  0  0  0  0  0  0
    2.5338   -7.6891   16.0102 C   0  0  0  0  0  0  0  0  0  0  0  0
    4.8690   -7.4380   26.4151 C   0  0  0  0  0  0  0  0  0  0  0  0
    2.3021   -5.6726   26.0378 C   0  0  0  0  0  0  0  0  0  0  0  0
    7.0880   -4.6163   27.0010 C   0  0  0  0  0  0  0  0  0  0  0  0
    8.3117   -4.3698   27.4436 C   0  0  0  0  0  0  0  0  0  0  0  0
    1.1339   -5.0515   26.3541 C   0  0  0  0  0  0  0  0  0  0  0  0
    4.8080   -8.0362   16.7101 C   0  0  0  0  0  0  0  0  0  0  0  0
   -1.2173   -3.9294   26.9717 O   0  0  0  0  0  0  0  0  0  0  0  0
   -1.0025   -5.0942   27.4586 C   0  0  0  0  0  0  0  0  0  0  0  0
    2.2474   -8.9123   16.6273 C   0  0  0  0  0  0  0  0  0  0  0  0
    4.4957   -9.2636   17.3041 C   0  0  0  0  0  0  0  0  0  0  0  0
   -1.8070   -5.6086   28.1920 O   0  0  0  0  0  0  0  0  0  0  0  0
   10.4296   -5.1799   28.3140 C   0  0  0  0  0  0  0  0  0  0  0  0
    6.6017   -5.9004   26.9187 C   0  0  0  0  0  0  0  0  0  0  0  0
    2.4761   -6.9940   26.4111 N   0  0  0  0  0  0  0  0  0  0  0  0
    9.1353   -5.4053   27.8239 C   0  0  0  0  0  0  0  0  0  0  0  0
    0.9922   -9.3232   16.5995 O   0  0  0  0  0  0  0  0  0  0  0  0
    1.5232   -7.6869   27.1182 C   0  0  0  0  0  0  0  0  0  0  0  0
    8.6878   -6.6715   27.7262 N   0  0  0  0  0  0  0  0  0  0  0  0
    6.9911   -8.2423   27.1808 C   0  0  0  0  0  0  0  0  0  0  0  0
    3.8436   -7.2758   16.0578 C   0  0  0  0  0  0  0  0  0  0  0  0
    3.1882   -9.7190   17.2566 C   0  0  0  0  0  0  0  0  0  0  0  0
    5.3488   -6.1737   26.5092 C   0  0  0  0  0  0  0  0  0  0  0  0
    7.4567   -6.9464   27.2858 C   0  0  0  0  0  0  0  0  0  0  0  0
    0.1921   -5.7592   27.1123 C   0  0  0  0  0  0  0  0  0  0  0  0
    3.5517   -7.7407   25.9711 C   0  0  0  0  0  0  0  0  0  0  0  0
  1  4  4  0
  1 22  4  0
  2 20  4  0
  2 27  4  0
  3 12  4  0
  3 23  4  0
  4 25  4  0
  4 28  1  0
  5  8  4  0
  5 17  4  0
  6  7  4  0
  6 16  4  0
  7 18  4  0
  8 27  4  0
  9 13  4  0
  9 23  4  0
 10 11  1  0
 11 14  2  0
 11 27  1  0
 12 19  1  0
 12 24  4  0
 13 24  4  0
 15 18  1  0
 16 25  4  0
 16 26  4  0
 17 20  4  0
 17 28  1  0
 18 21  4  0
 21 26  4  0
 22 26  4  0
M  END
$$$$

 Created by Python create_sdf_string function

 28 30  0  0  0  0  0  0  0  0999 V2000
    5.7174   -8.4529   26.7190 C   0  0  0  0  0  0  0  0  0  0  0  0
    0.3974   -7.0711   27.5149 C   0  0  0  0  0  0  0  0  0  0  0  0
    2.5338   -7.6891   16.0102 C   0  0  0  0  0  0  0  0  0  0  0  0
    4.8690   -7.4380   26.4151 C   0  0  0  0  0  0  0  0  0  0  0  0
    2.3021   -5.6726   26.0378 C   0  0  0  0  0  0  0  0  0  0  0  0
    7.0880   -4.6163   27.0010 C   0  0  0  0  0  0  0  0  0  0  0  0
    8.3117   -4.3698   27.4436 C   0  0  0  0  0  0  0  0  0  0  0  0
    1.1339   -5.0515   26.3541 C   0  0  0  0  0  0  0  0  0  0  0  0
    4.8080   -8.0362   16.7101 C   0  0  0  0  0  0  0  0  0  0  0  0
   -1.2173   -3.9294   26.9717 O   0  0  0  0  0  0  0  0  0  0  0  0
   -1.0025   -5.0942   27.4586 C   0  0  0  0  0  0  0  0  0  0  0  0
    2.2474   -8.9123   16.6273 C   0  0  0  0  0  0  0  0  0  0  0  0
    4.4957   -9.2636   17.3041 C   0  0  0  0  0  0  0  0  0  0  0  0
   -1.8070   -5.6086   28.1920 O   0  0  0  0  0  0  0  0  0  0  0  0
   10.4296   -5.1799   28.3140 C   0  0  0  0  0  0  0  0  0  0  0  0
    6.6017   -5.9004   26.9187 C   0  0  0  0  0  0  0  0  0  0  0  0
    2.4761   -6.9940   26.4111 N   0  0  0  0  0  0  0  0  0  0  0  0
    9.1353   -5.4053   27.8239 C   0  0  0  0  0  0  0  0  0  0  0  0
    0.9922   -9.3232   16.5995 O   0  0  0  0  0  0  0  0  0  0  0  0
    1.5232   -7.6869   27.1182 C   0  0  0  0  0  0  0  0  0  0  0  0
    8.6878   -6.6715   27.7262 N   0  0  0  0  0  0  0  0  0  0  0  0
    6.9911   -8.2423   27.1808 C   0  0  0  0  0  0  0  0  0  0  0  0
    3.8436   -7.2758   16.0578 C   0  0  0  0  0  0  0  0  0  0  0  0
    3.1882   -9.7190   17.2566 C   0  0  0  0  0  0  0  0  0  0  0  0
    5.3488   -6.1737   26.5092 C   0  0  0  0  0  0  0  0  0  0  0  0
    7.4567   -6.9464   27.2858 C   0  0  0  0  0  0  0  0  0  0  0  0
    0.1921   -5.7592   27.1123 C   0  0  0  0  0  0  0  0  0  0  0  0
    3.5517   -7.7407   25.9711 C   0  0  0  0  0  0  0  0  0  0  0  0
  1  4  4  0
  1 22  4  0
  2 20  4  0
  2 27  4  0
  3 12  4  0
  3 23  4  0
  4 25  4  0
  4 28  1  0
  5  8  4  0
  5 17  4  0
  6  7  4  0
  6 16  4  0
  7 18  4  0
  8 27  4  0
  9 13  4  0
  9 23  4  0
 10 11  1  0
 11 14  2  0
 11 27  1  0
 12 19  1  0
 12 24  4  0
 13 24  4  0
 15 18  1  0
 16 25  4  0
 16 26  4  0
 17 20  4  0
 17 28  1  0
 18 21  4  0
 21 26  4  0
 22 26  4  0
M  END
$$$$

 Created by Python create_sdf_string function

 28 30  0  0  0  0  0  0  0  0999 V2000
    5.7174   -8.4529   26.7190 C   0  0  0  0  0  0  0  0  0  0  0  0
    0.3974   -7.0711   27.5149 C   0  0  0  0  0  0  0  0  0  0  0  0
    2.5338   -7.6891   16.0102 C   0  0  0  0  0  0  0  0  0  0  0  0
    4.8690   -7.4380   26.4151 C   0  0  0  0  0  0  0  0  0  0  0  0
    2.3021   -5.6726   26.0378 C   0  0  0  0  0  0  0  0  0  0  0  0
    7.0880   -4.6163   27.0010 C   0  0  0  0  0  0  0  0  0  0  0  0
    8.3117   -4.3698   27.4436 C   0  0  0  0  0  0  0  0  0  0  0  0
    1.1339   -5.0515   26.3541 C   0  0  0  0  0  0  0  0  0  0  0  0
    4.8080   -8.0362   16.7101 C   0  0  0  0  0  0  0  0  0  0  0  0
   -1.2173   -3.9294   26.9717 O   0  0  0  0  0  0  0  0  0  0  0  0
   -1.0025   -5.0942   27.4586 C   0  0  0  0  0  0  0  0  0  0  0  0
    2.2474   -8.9123   16.6273 C   0  0  0  0  0  0  0  0  0  0  0  0
    4.4957   -9.2636   17.3041 C   0  0  0  0  0  0  0  0  0  0  0  0
   -1.8070   -5.6086   28.1920 O   0  0  0  0  0  0  0  0  0  0  0  0
   10.4296   -5.1799   28.3140 C   0  0  0  0  0  0  0  0  0  0  0  0
    6.6017   -5.9004   26.9187 C   0  0  0  0  0  0  0  0  0  0  0  0
    2.4761   -6.9940   26.4111 N   0  0  0  0  0  0  0  0  0  0  0  0
    9.1353   -5.4053   27.8239 C   0  0  0  0  0  0  0  0  0  0  0  0
    0.9922   -9.3232   16.5995 O   0  0  0  0  0  0  0  0  0  0  0  0
    1.5232   -7.6869   27.1182 C   0  0  0  0  0  0  0  0  0  0  0  0
    8.6878   -6.6715   27.7262 N   0  0  0  0  0  0  0  0  0  0  0  0
    6.9911   -8.2423   27.1808 C   0  0  0  0  0  0  0  0  0  0  0  0
    3.8436   -7.2758   16.0578 C   0  0  0  0  0  0  0  0  0  0  0  0
    3.1882   -9.7190   17.2566 C   0  0  0  0  0  0  0  0  0  0  0  0
    5.3488   -6.1737   26.5092 C   0  0  0  0  0  0  0  0  0  0  0  0
    7.4567   -6.9464   27.2858 C   0  0  0  0  0  0  0  0  0  0  0  0
    0.1921   -5.7592   27.1123 C   0  0  0  0  0  0  0  0  0  0  0  0
    3.5517   -7.7407   25.9711 C   0  0  0  0  0  0  0  0  0  0  0  0
  1  4  4  0
  1 22  4  0
  2 20  4  0
  2 27  4  0
  3 12  4  0
  3 23  4  0
  4 25  4  0
  4 28  1  0
  5  8  4  0
  5 17  4  0
  6  7  4  0
  6 16  4  0
  7 18  4  0
  8 27  4  0
  9 13  4  0
  9 23  4  0
 10 11  1  0
 11 14  2  0
 11 27  1  0
 12 19  1  0
 12 24  4  0
 13 24  4  0
 15 18  1  0
 16 25  4  0
 16 26  4  0
 17 20  4  0
 17 28  1  0
 18 21  4  0
 21 26  4  0
 22 26  4  0
M  END
$$$$

 Created by Python create_sdf_string function

 28 30  0  0  0  0  0  0  0  0999 V2000
    5.7174   -8.4529   26.7190 C   0  0  0  0  0  0  0  0  0  0  0  0
    0.3974   -7.0711   27.5149 C   0  0  0  0  0  0  0  0  0  0  0  0
    2.5338   -7.6891   16.0102 C   0  0  0  0  0  0  0  0  0  0  0  0
    4.8690   -7.4380   26.4151 C   0  0  0  0  0  0  0  0  0  0  0  0
    2.3021   -5.6726   26.0378 C   0  0  0  0  0  0  0  0  0  0  0  0
    7.0880   -4.6163   27.0010 C   0  0  0  0  0  0  0  0  0  0  0  0
    8.3117   -4.3698   27.4436 C   0  0  0  0  0  0  0  0  0  0  0  0
    1.1339   -5.0515   26.3541 C   0  0  0  0  0  0  0  0  0  0  0  0
    4.8080   -8.0362   16.7101 C   0  0  0  0  0  0  0  0  0  0  0  0
   -1.2173   -3.9294   26.9717 O   0  0  0  0  0  0  0  0  0  0  0  0
   -1.0025   -5.0942   27.4586 C   0  0  0  0  0  0  0  0  0  0  0  0
    2.2474   -8.9123   16.6273 C   0  0  0  0  0  0  0  0  0  0  0  0
    4.4957   -9.2636   17.3041 C   0  0  0  0  0  0  0  0  0  0  0  0
   -1.8070   -5.6086   28.1920 O   0  0  0  0  0  0  0  0  0  0  0  0
   10.4296   -5.1799   28.3140 C   0  0  0  0  0  0  0  0  0  0  0  0
    6.6017   -5.9004   26.9187 C   0  0  0  0  0  0  0  0  0  0  0  0
    2.4761   -6.9940   26.4111 N   0  0  0  0  0  0  0  0  0  0  0  0
    9.1353   -5.4053   27.8239 C   0  0  0  0  0  0  0  0  0  0  0  0
    0.9922   -9.3232   16.5995 O   0  0  0  0  0  0  0  0  0  0  0  0
    1.5232   -7.6869   27.1182 C   0  0  0  0  0  0  0  0  0  0  0  0
    8.6878   -6.6715   27.7262 N   0  0  0  0  0  0  0  0  0  0  0  0
    6.9911   -8.2423   27.1808 C   0  0  0  0  0  0  0  0  0  0  0  0
    3.8436   -7.2758   16.0578 C   0  0  0  0  0  0  0  0  0  0  0  0
    3.1882   -9.7190   17.2566 C   0  0  0  0  0  0  0  0  0  0  0  0
    5.3488   -6.1737   26.5092 C   0  0  0  0  0  0  0  0  0  0  0  0
    7.4567   -6.9464   27.2858 C   0  0  0  0  0  0  0  0  0  0  0  0
    0.1921   -5.7592   27.1123 C   0  0  0  0  0  0  0  0  0  0  0  0
    3.5517   -7.7407   25.9711 C   0  0  0  0  0  0  0  0  0  0  0  0
  1  4  4  0
  1 22  4  0
  2 20  4  0
  2 27  4  0
  3 12  4  0
  3 23  4  0
  4 25  4  0
  4 28  1  0
  5  8  4  0
  5 17  4  0
  6  7  4  0
  6 16  4  0
  7 18  4  0
  8 27  4  0
  9 13  4  0
  9 23  4  0
 10 11  1  0
 11 14  2  0
 11 27  1  0
 12 19  1  0
 12 24  4  0
 13 24  4  0
 15 18  1  0
 16 25  4  0
 16 26  4  0
 17 20  4  0
 17 28  1  0
 18 21  4  0
 21 26  4  0
 22 26  4  0
M  END
$$$$

 Created by Python create_sdf_string function

 28 30  0  0  0  0  0  0  0  0999 V2000
    5.7174   -8.4529   26.7190 C   0  0  0  0  0  0  0  0  0  0  0  0
    0.3974   -7.0711   27.5149 C   0  0  0  0  0  0  0  0  0  0  0  0
    2.5338   -7.6891   16.0102 C   0  0  0  0  0  0  0  0  0  0  0  0
    4.8690   -7.4380   26.4151 C   0  0  0  0  0  0  0  0  0  0  0  0
    2.3021   -5.6726   26.0378 C   0  0  0  0  0  0  0  0  0  0  0  0
    7.0880   -4.6163   27.0010 C   0  0  0  0  0  0  0  0  0  0  0  0
    8.3117   -4.3698   27.4436 C   0  0  0  0  0  0  0  0  0  0  0  0
    1.1339   -5.0515   26.3541 C   0  0  0  0  0  0  0  0  0  0  0  0
    4.8080   -8.0362   16.7101 C   0  0  0  0  0  0  0  0  0  0  0  0
   -1.2173   -3.9294   26.9717 O   0  0  0  0  0  0  0  0  0  0  0  0
   -1.0025   -5.0942   27.4586 C   0  0  0  0  0  0  0  0  0  0  0  0
    2.2474   -8.9123   16.6273 C   0  0  0  0  0  0  0  0  0  0  0  0
    4.4957   -9.2636   17.3041 C   0  0  0  0  0  0  0  0  0  0  0  0
   -1.8070   -5.6086   28.1920 O   0  0  0  0  0  0  0  0  0  0  0  0
   10.4296   -5.1799   28.3140 C   0  0  0  0  0  0  0  0  0  0  0  0
    6.6017   -5.9004   26.9187 C   0  0  0  0  0  0  0  0  0  0  0  0
    2.4761   -6.9940   26.4111 N   0  0  0  0  0  0  0  0  0  0  0  0
    9.1353   -5.4053   27.8239 C   0  0  0  0  0  0  0  0  0  0  0  0
    0.9922   -9.3232   16.5995 O   0  0  0  0  0  0  0  0  0  0  0  0
    1.5232   -7.6869   27.1182 C   0  0  0  0  0  0  0  0  0  0  0  0
    8.6878   -6.6715   27.7262 N   0  0  0  0  0  0  0  0  0  0  0  0
    6.9911   -8.2423   27.1808 C   0  0  0  0  0  0  0  0  0  0  0  0
    3.8436   -7.2758   16.0578 C   0  0  0  0  0  0  0  0  0  0  0  0
    3.1882   -9.7190   17.2566 C   0  0  0  0  0  0  0  0  0  0  0  0
    5.3488   -6.1737   26.5092 C   0  0  0  0  0  0  0  0  0  0  0  0
    7.4567   -6.9464   27.2858 C   0  0  0  0  0  0  0  0  0  0  0  0
    0.1921   -5.7592   27.1123 C   0  0  0  0  0  0  0  0  0  0  0  0
    3.5517   -7.7407   25.9711 C   0  0  0  0  0  0  0  0  0  0  0  0
  1  4  4  0
  1 22  4  0
  2 20  4  0
  2 27  4  0
  3 12  4  0
  3 23  4  0
  4 25  4  0
  4 28  1  0
  5  8  4  0
  5 17  4  0
  6  7  4  0
  6 16  4  0
  7 18  4  0
  8 27  4  0
  9 13  4  0
  9 23  4  0
 10 11  1  0
 11 14  2  0
 11 27  1  0
 12 19  1  0
 12 24  4  0
 13 24  4  0
 15 18  1  0
 16 25  4  0
 16 26  4  0
 17 20  4  0
 17 28  1  0
 18 21  4  0
 21 26  4  0
 22 26  4  0
M  END
$$$$

 Created by Python create_sdf_string function

 28 30  0  0  0  0  0  0  0  0999 V2000
    5.7174   -8.4529   26.7190 C   0  0  0  0  0  0  0  0  0  0  0  0
    0.3974   -7.0711   27.5149 C   0  0  0  0  0  0  0  0  0  0  0  0
    2.5338   -7.6891   16.0102 C   0  0  0  0  0  0  0  0  0  0  0  0
    4.8690   -7.4380   26.4151 C   0  0  0  0  0  0  0  0  0  0  0  0
    2.3021   -5.6726   26.0378 C   0  0  0  0  0  0  0  0  0  0  0  0
    7.0880   -4.6163   27.0010 C   0  0  0  0  0  0  0  0  0  0  0  0
    8.3117   -4.3698   27.4436 C   0  0  0  0  0  0  0  0  0  0  0  0
    1.1339   -5.0515   26.3541 C   0  0  0  0  0  0  0  0  0  0  0  0
    4.8080   -8.0362   16.7101 C   0  0  0  0  0  0  0  0  0  0  0  0
   -1.2173   -3.9294   26.9717 O   0  0  0  0  0  0  0  0  0  0  0  0
   -1.0025   -5.0942   27.4586 C   0  0  0  0  0  0  0  0  0  0  0  0
    2.2474   -8.9123   16.6273 C   0  0  0  0  0  0  0  0  0  0  0  0
    4.4957   -9.2636   17.3041 C   0  0  0  0  0  0  0  0  0  0  0  0
   -1.8070   -5.6086   28.1920 O   0  0  0  0  0  0  0  0  0  0  0  0
   10.4296   -5.1799   28.3140 C   0  0  0  0  0  0  0  0  0  0  0  0
    6.6017   -5.9004   26.9187 C   0  0  0  0  0  0  0  0  0  0  0  0
    2.4761   -6.9940   26.4111 N   0  0  0  0  0  0  0  0  0  0  0  0
    9.1353   -5.4053   27.8239 C   0  0  0  0  0  0  0  0  0  0  0  0
    0.9922   -9.3232   16.5995 O   0  0  0  0  0  0  0  0  0  0  0  0
    1.5232   -7.6869   27.1182 C   0  0  0  0  0  0  0  0  0  0  0  0
    8.6878   -6.6715   27.7262 N   0  0  0  0  0  0  0  0  0  0  0  0
    6.9911   -8.2423   27.1808 C   0  0  0  0  0  0  0  0  0  0  0  0
    3.8436   -7.2758   16.0578 C   0  0  0  0  0  0  0  0  0  0  0  0
    3.1882   -9.7190   17.2566 C   0  0  0  0  0  0  0  0  0  0  0  0
    5.3488   -6.1737   26.5092 C   0  0  0  0  0  0  0  0  0  0  0  0
    7.4567   -6.9464   27.2858 C   0  0  0  0  0  0  0  0  0  0  0  0
    0.1921   -5.7592   27.1123 C   0  0  0  0  0  0  0  0  0  0  0  0
    3.5517   -7.7407   25.9711 C   0  0  0  0  0  0  0  0  0  0  0  0
  1  4  4  0
  1 22  4  0
  2 20  4  0
  2 27  4  0
  3 12  4  0
  3 23  4  0
  4 25  4  0
  4 28  1  0
  5  8  4  0
  5 17  4  0
  6  7  4  0
  6 16  4  0
  7 18  4  0
  8 27  4  0
  9 13  4  0
  9 23  4  0
 10 11  1  0
 11 14  2  0
 11 27  1  0
 12 19  1  0
 12 24  4  0
 13 24  4  0
 15 18  1  0
 16 25  4  0
 16 26  4  0
 17 20  4  0
 17 28  1  0
 18 21  4  0
 21 26  4  0
 22 26  4  0
M  END
$$$$

 Created by Python create_sdf_string function

 28 30  0  0  0  0  0  0  0  0999 V2000
    5.7174   -8.4529   26.7190 C   0  0  0  0  0  0  0  0  0  0  0  0
    0.3974   -7.0711   27.5149 C   0  0  0  0  0  0  0  0  0  0  0  0
    2.5338   -7.6891   16.0102 C   0  0  0  0  0  0  0  0  0  0  0  0
    4.8690   -7.4380   26.4151 C   0  0  0  0  0  0  0  0  0  0  0  0
    2.3021   -5.6726   26.0378 C   0  0  0  0  0  0  0  0  0  0  0  0
    7.0880   -4.6163   27.0010 C   0  0  0  0  0  0  0  0  0  0  0  0
    8.3117   -4.3698   27.4436 C   0  0  0  0  0  0  0  0  0  0  0  0
    1.1339   -5.0515   26.3541 C   0  0  0  0  0  0  0  0  0  0  0  0
    4.8080   -8.0362   16.7101 C   0  0  0  0  0  0  0  0  0  0  0  0
   -1.2173   -3.9294   26.9717 O   0  0  0  0  0  0  0  0  0  0  0  0
   -1.0025   -5.0942   27.4586 C   0  0  0  0  0  0  0  0  0  0  0  0
    2.2474   -8.9123   16.6273 C   0  0  0  0  0  0  0  0  0  0  0  0
    4.4957   -9.2636   17.3041 C   0  0  0  0  0  0  0  0  0  0  0  0
   -1.8070   -5.6086   28.1920 O   0  0  0  0  0  0  0  0  0  0  0  0
   10.4296   -5.1799   28.3140 C   0  0  0  0  0  0  0  0  0  0  0  0
    6.6017   -5.9004   26.9187 C   0  0  0  0  0  0  0  0  0  0  0  0
    2.4761   -6.9940   26.4111 N   0  0  0  0  0  0  0  0  0  0  0  0
    9.1353   -5.4053   27.8239 C   0  0  0  0  0  0  0  0  0  0  0  0
    0.9922   -9.3232   16.5995 O   0  0  0  0  0  0  0  0  0  0  0  0
    1.5232   -7.6869   27.1182 C   0  0  0  0  0  0  0  0  0  0  0  0
    8.6878   -6.6715   27.7262 N   0  0  0  0  0  0  0  0  0  0  0  0
    6.9911   -8.2423   27.1808 C   0  0  0  0  0  0  0  0  0  0  0  0
    3.8436   -7.2758   16.0578 C   0  0  0  0  0  0  0  0  0  0  0  0
    3.1882   -9.7190   17.2566 C   0  0  0  0  0  0  0  0  0  0  0  0
    5.3488   -6.1737   26.5092 C   0  0  0  0  0  0  0  0  0  0  0  0
    7.4567   -6.9464   27.2858 C   0  0  0  0  0  0  0  0  0  0  0  0
    0.1921   -5.7592   27.1123 C   0  0  0  0  0  0  0  0  0  0  0  0
    3.5517   -7.7407   25.9711 C   0  0  0  0  0  0  0  0  0  0  0  0
  1  4  4  0
  1 22  4  0
  2 20  4  0
  2 27  4  0
  3 12  4  0
  3 23  4  0
  4 25  4  0
  4 28  1  0
  5  8  4  0
  5 17  4  0
  6  7  4  0
  6 16  4  0
  7 18  4  0
  8 27  4  0
  9 13  4  0
  9 23  4  0
 10 11  1  0
 11 14  2  0
 11 27  1  0
 12 19  1  0
 12 24  4  0
 13 24  4  0
 15 18  1  0
 16 25  4  0
 16 26  4  0
 17 20  4  0
 17 28  1  0
 18 21  4  0
 21 26  4  0
 22 26  4  0
M  END
$$$$

 Created by Python create_sdf_string function

 28 30  0  0  0  0  0  0  0  0999 V2000
    5.7174   -8.4529   26.7190 C   0  0  0  0  0  0  0  0  0  0  0  0
    0.3974   -7.0711   27.5149 C   0  0  0  0  0  0  0  0  0  0  0  0
    2.5338   -7.6891   16.0102 C   0  0  0  0  0  0  0  0  0  0  0  0
    4.8690   -7.4380   26.4151 C   0  0  0  0  0  0  0  0  0  0  0  0
    2.3021   -5.6726   26.0378 C   0  0  0  0  0  0  0  0  0  0  0  0
    7.0880   -4.6163   27.0010 C   0  0  0  0  0  0  0  0  0  0  0  0
    8.3117   -4.3698   27.4436 C   0  0  0  0  0  0  0  0  0  0  0  0
    1.1339   -5.0515   26.3541 C   0  0  0  0  0  0  0  0  0  0  0  0
    4.8080   -8.0362   16.7101 C   0  0  0  0  0  0  0  0  0  0  0  0
   -1.2173   -3.9294   26.9717 O   0  0  0  0  0  0  0  0  0  0  0  0
   -1.0025   -5.0942   27.4586 C   0  0  0  0  0  0  0  0  0  0  0  0
    2.2474   -8.9123   16.6273 C   0  0  0  0  0  0  0  0  0  0  0  0
    4.4957   -9.2636   17.3041 C   0  0  0  0  0  0  0  0  0  0  0  0
   -1.8070   -5.6086   28.1920 O   0  0  0  0  0  0  0  0  0  0  0  0
   10.4296   -5.1799   28.3140 C   0  0  0  0  0  0  0  0  0  0  0  0
    6.6017   -5.9004   26.9187 C   0  0  0  0  0  0  0  0  0  0  0  0
    2.4761   -6.9940   26.4111 N   0  0  0  0  0  0  0  0  0  0  0  0
    9.1353   -5.4053   27.8239 C   0  0  0  0  0  0  0  0  0  0  0  0
    0.9922   -9.3232   16.5995 O   0  0  0  0  0  0  0  0  0  0  0  0
    1.5232   -7.6869   27.1182 C   0  0  0  0  0  0  0  0  0  0  0  0
    8.6878   -6.6715   27.7262 N   0  0  0  0  0  0  0  0  0  0  0  0
    6.9911   -8.2423   27.1808 C   0  0  0  0  0  0  0  0  0  0  0  0
    3.8436   -7.2758   16.0578 C   0  0  0  0  0  0  0  0  0  0  0  0
    3.1882   -9.7190   17.2566 C   0  0  0  0  0  0  0  0  0  0  0  0
    5.3488   -6.1737   26.5092 C   0  0  0  0  0  0  0  0  0  0  0  0
    7.4567   -6.9464   27.2858 C   0  0  0  0  0  0  0  0  0  0  0  0
    0.1921   -5.7592   27.1123 C   0  0  0  0  0  0  0  0  0  0  0  0
    3.5517   -7.7407   25.9711 C   0  0  0  0  0  0  0  0  0  0  0  0
  1  4  4  0
  1 22  4  0
  2 20  4  0
  2 27  4  0
  3 12  4  0
  3 23  4  0
  4 25  4  0
  4 28  1  0
  5  8  4  0
  5 17  4  0
  6  7  4  0
  6 16  4  0
  7 18  4  0
  8 27  4  0
  9 13  4  0
  9 23  4  0
 10 11  1  0
 11 14  2  0
 11 27  1  0
 12 19  1  0
 12 24  4  0
 13 24  4  0
 15 18  1  0
 16 25  4  0
 16 26  4  0
 17 20  4  0
 17 28  1  0
 18 21  4  0
 21 26  4  0
 22 26  4  0
M  END
$$$$

 Created by Python create_sdf_string function

 28 30  0  0  0  0  0  0  0  0999 V2000
    5.7174   -8.4529   26.7190 C   0  0  0  0  0  0  0  0  0  0  0  0
    0.3974   -7.0711   27.5149 C   0  0  0  0  0  0  0  0  0  0  0  0
    2.5338   -7.6891   16.0102 C   0  0  0  0  0  0  0  0  0  0  0  0
    4.8690   -7.4380   26.4151 C   0  0  0  0  0  0  0  0  0  0  0  0
    2.3021   -5.6726   26.0378 C   0  0  0  0  0  0  0  0  0  0  0  0
    7.0880   -4.6163   27.0010 C   0  0  0  0  0  0  0  0  0  0  0  0
    8.3117   -4.3698   27.4436 C   0  0  0  0  0  0  0  0  0  0  0  0
    1.1339   -5.0515   26.3541 C   0  0  0  0  0  0  0  0  0  0  0  0
    4.8080   -8.0362   16.7101 C   0  0  0  0  0  0  0  0  0  0  0  0
   -1.2173   -3.9294   26.9717 O   0  0  0  0  0  0  0  0  0  0  0  0
   -1.0025   -5.0942   27.4586 C   0  0  0  0  0  0  0  0  0  0  0  0
    2.2474   -8.9123   16.6273 C   0  0  0  0  0  0  0  0  0  0  0  0
    4.4957   -9.2636   17.3041 C   0  0  0  0  0  0  0  0  0  0  0  0
   -1.8070   -5.6086   28.1920 O   0  0  0  0  0  0  0  0  0  0  0  0
   10.4296   -5.1799   28.3140 C   0  0  0  0  0  0  0  0  0  0  0  0
    6.6017   -5.9004   26.9187 C   0  0  0  0  0  0  0  0  0  0  0  0
    2.4761   -6.9940   26.4111 N   0  0  0  0  0  0  0  0  0  0  0  0
    9.1353   -5.4053   27.8239 C   0  0  0  0  0  0  0  0  0  0  0  0
    0.9922   -9.3232   16.5995 O   0  0  0  0  0  0  0  0  0  0  0  0
    1.5232   -7.6869   27.1182 C   0  0  0  0  0  0  0  0  0  0  0  0
    8.6878   -6.6715   27.7262 N   0  0  0  0  0  0  0  0  0  0  0  0
    6.9911   -8.2423   27.1808 C   0  0  0  0  0  0  0  0  0  0  0  0
    3.8436   -7.2758   16.0578 C   0  0  0  0  0  0  0  0  0  0  0  0
    3.1882   -9.7190   17.2566 C   0  0  0  0  0  0  0  0  0  0  0  0
    5.3488   -6.1737   26.5092 C   0  0  0  0  0  0  0  0  0  0  0  0
    7.4567   -6.9464   27.2858 C   0  0  0  0  0  0  0  0  0  0  0  0
    0.1921   -5.7592   27.1123 C   0  0  0  0  0  0  0  0  0  0  0  0
    3.5517   -7.7407   25.9711 C   0  0  0  0  0  0  0  0  0  0  0  0
  1  4  4  0
  1 22  4  0
  2 20  4  0
  2 27  4  0
  3 12  4  0
  3 23  4  0
  4 25  4  0
  4 28  1  0
  5  8  4  0
  5 17  4  0
  6  7  4  0
  6 16  4  0
  7 18  4  0
  8 27  4  0
  9 13  4  0
  9 23  4  0
 10 11  1  0
 11 14  2  0
 11 27  1  0
 12 19  1  0
 12 24  4  0
 13 24  4  0
 15 18  1  0
 16 25  4  0
 16 26  4  0
 17 20  4  0
 17 28  1  0
 18 21  4  0
 21 26  4  0
 22 26  4  0
M  END
$$$$

 Created by Python create_sdf_string function

 28 30  0  0  0  0  0  0  0  0999 V2000
    5.7174   -8.4529   26.7190 C   0  0  0  0  0  0  0  0  0  0  0  0
    0.3974   -7.0711   27.5149 C   0  0  0  0  0  0  0  0  0  0  0  0
    2.5338   -7.6891   16.0102 C   0  0  0  0  0  0  0  0  0  0  0  0
    4.8690   -7.4380   26.4151 C   0  0  0  0  0  0  0  0  0  0  0  0
    2.3021   -5.6726   26.0378 C   0  0  0  0  0  0  0  0  0  0  0  0
    7.0880   -4.6163   27.0010 C   0  0  0  0  0  0  0  0  0  0  0  0
    8.3117   -4.3698   27.4436 C   0  0  0  0  0  0  0  0  0  0  0  0
    1.1339   -5.0515   26.3541 C   0  0  0  0  0  0  0  0  0  0  0  0
    4.8080   -8.0362   16.7101 C   0  0  0  0  0  0  0  0  0  0  0  0
   -1.2173   -3.9294   26.9717 O   0  0  0  0  0  0  0  0  0  0  0  0
   -1.0025   -5.0942   27.4586 C   0  0  0  0  0  0  0  0  0  0  0  0
    2.2474   -8.9123   16.6273 C   0  0  0  0  0  0  0  0  0  0  0  0
    4.4957   -9.2636   17.3041 C   0  0  0  0  0  0  0  0  0  0  0  0
   -1.8070   -5.6086   28.1920 O   0  0  0  0  0  0  0  0  0  0  0  0
   10.4296   -5.1799   28.3140 C   0  0  0  0  0  0  0  0  0  0  0  0
    6.6017   -5.9004   26.9187 C   0  0  0  0  0  0  0  0  0  0  0  0
    2.4761   -6.9940   26.4111 N   0  0  0  0  0  0  0  0  0  0  0  0
    9.1353   -5.4053   27.8239 C   0  0  0  0  0  0  0  0  0  0  0  0
    0.9922   -9.3232   16.5995 O   0  0  0  0  0  0  0  0  0  0  0  0
    1.5232   -7.6869   27.1182 C   0  0  0  0  0  0  0  0  0  0  0  0
    8.6878   -6.6715   27.7262 N   0  0  0  0  0  0  0  0  0  0  0  0
    6.9911   -8.2423   27.1808 C   0  0  0  0  0  0  0  0  0  0  0  0
    3.8436   -7.2758   16.0578 C   0  0  0  0  0  0  0  0  0  0  0  0
    3.1882   -9.7190   17.2566 C   0  0  0  0  0  0  0  0  0  0  0  0
    5.3488   -6.1737   26.5092 C   0  0  0  0  0  0  0  0  0  0  0  0
    7.4567   -6.9464   27.2858 C   0  0  0  0  0  0  0  0  0  0  0  0
    0.1921   -5.7592   27.1123 C   0  0  0  0  0  0  0  0  0  0  0  0
    3.5517   -7.7407   25.9711 C   0  0  0  0  0  0  0  0  0  0  0  0
  1  4  4  0
  1 22  4  0
  2 20  4  0
  2 27  4  0
  3 12  4  0
  3 23  4  0
  4 25  4  0
  4 28  1  0
  5  8  4  0
  5 17  4  0
  6  7  4  0
  6 16  4  0
  7 18  4  0
  8 27  4  0
  9 13  4  0
  9 23  4  0
 10 11  1  0
 11 14  2  0
 11 27  1  0
 12 19  1  0
 12 24  4  0
 13 24  4  0
 15 18  1  0
 16 25  4  0
 16 26  4  0
 17 20  4  0
 17 28  1  0
 18 21  4  0
 21 26  4  0
 22 26  4  0
M  END
$$$$

 Created by Python create_sdf_string function

 28 30  0  0  0  0  0  0  0  0999 V2000
    5.7174   -8.4529   26.7190 C   0  0  0  0  0  0  0  0  0  0  0  0
    0.3974   -7.0711   27.5149 C   0  0  0  0  0  0  0  0  0  0  0  0
    2.5338   -7.6891   16.0102 C   0  0  0  0  0  0  0  0  0  0  0  0
    4.8690   -7.4380   26.4151 C   0  0  0  0  0  0  0  0  0  0  0  0
    2.3021   -5.6726   26.0378 C   0  0  0  0  0  0  0  0  0  0  0  0
    7.0880   -4.6163   27.0010 C   0  0  0  0  0  0  0  0  0  0  0  0
    8.3117   -4.3698   27.4436 C   0  0  0  0  0  0  0  0  0  0  0  0
    1.1339   -5.0515   26.3541 C   0  0  0  0  0  0  0  0  0  0  0  0
    4.8080   -8.0362   16.7101 C   0  0  0  0  0  0  0  0  0  0  0  0
   -1.2173   -3.9294   26.9717 O   0  0  0  0  0  0  0  0  0  0  0  0
   -1.0025   -5.0942   27.4586 C   0  0  0  0  0  0  0  0  0  0  0  0
    2.2474   -8.9123   16.6273 C   0  0  0  0  0  0  0  0  0  0  0  0
    4.4957   -9.2636   17.3041 C   0  0  0  0  0  0  0  0  0  0  0  0
   -1.8070   -5.6086   28.1920 O   0  0  0  0  0  0  0  0  0  0  0  0
   10.4296   -5.1799   28.3140 C   0  0  0  0  0  0  0  0  0  0  0  0
    6.6017   -5.9004   26.9187 C   0  0  0  0  0  0  0  0  0  0  0  0
    2.4761   -6.9940   26.4111 N   0  0  0  0  0  0  0  0  0  0  0  0
    9.1353   -5.4053   27.8239 C   0  0  0  0  0  0  0  0  0  0  0  0
    0.9922   -9.3232   16.5995 O   0  0  0  0  0  0  0  0  0  0  0  0
    1.5232   -7.6869   27.1182 C   0  0  0  0  0  0  0  0  0  0  0  0
    8.6878   -6.6715   27.7262 N   0  0  0  0  0  0  0  0  0  0  0  0
    6.9911   -8.2423   27.1808 C   0  0  0  0  0  0  0  0  0  0  0  0
    3.8436   -7.2758   16.0578 C   0  0  0  0  0  0  0  0  0  0  0  0
    3.1882   -9.7190   17.2566 C   0  0  0  0  0  0  0  0  0  0  0  0
    5.3488   -6.1737   26.5092 C   0  0  0  0  0  0  0  0  0  0  0  0
    7.4567   -6.9464   27.2858 C   0  0  0  0  0  0  0  0  0  0  0  0
    0.1921   -5.7592   27.1123 C   0  0  0  0  0  0  0  0  0  0  0  0
    3.5517   -7.7407   25.9711 C   0  0  0  0  0  0  0  0  0  0  0  0
  1  4  4  0
  1 22  4  0
  2 20  4  0
  2 27  4  0
  3 12  4  0
  3 23  4  0
  4 25  4  0
  4 28  1  0
  5  8  4  0
  5 17  4  0
  6  7  4  0
  6 16  4  0
  7 18  4  0
  8 27  4  0
  9 13  4  0
  9 23  4  0
 10 11  1  0
 11 14  2  0
 11 27  1  0
 12 19  1  0
 12 24  4  0
 13 24  4  0
 15 18  1  0
 16 25  4  0
 16 26  4  0
 17 20  4  0
 17 28  1  0
 18 21  4  0
 21 26  4  0
 22 26  4  0
M  END
$$$$

 Created by Python create_sdf_string function

 28 30  0  0  0  0  0  0  0  0999 V2000
    5.7174   -8.4529   26.7190 C   0  0  0  0  0  0  0  0  0  0  0  0
    0.3974   -7.0711   27.5149 C   0  0  0  0  0  0  0  0  0  0  0  0
    2.5338   -7.6891   16.0102 C   0  0  0  0  0  0  0  0  0  0  0  0
    4.8690   -7.4380   26.4151 C   0  0  0  0  0  0  0  0  0  0  0  0
    2.3021   -5.6726   26.0378 C   0  0  0  0  0  0  0  0  0  0  0  0
    7.0880   -4.6163   27.0010 C   0  0  0  0  0  0  0  0  0  0  0  0
    8.3117   -4.3698   27.4436 C   0  0  0  0  0  0  0  0  0  0  0  0
    1.1339   -5.0515   26.3541 C   0  0  0  0  0  0  0  0  0  0  0  0
    4.8080   -8.0362   16.7101 C   0  0  0  0  0  0  0  0  0  0  0  0
   -1.2173   -3.9294   26.9717 O   0  0  0  0  0  0  0  0  0  0  0  0
   -1.0025   -5.0942   27.4586 C   0  0  0  0  0  0  0  0  0  0  0  0
    2.2474   -8.9123   16.6273 C   0  0  0  0  0  0  0  0  0  0  0  0
    4.4957   -9.2636   17.3041 C   0  0  0  0  0  0  0  0  0  0  0  0
   -1.8070   -5.6086   28.1920 O   0  0  0  0  0  0  0  0  0  0  0  0
   10.4296   -5.1799   28.3140 C   0  0  0  0  0  0  0  0  0  0  0  0
    6.6017   -5.9004   26.9187 C   0  0  0  0  0  0  0  0  0  0  0  0
    2.4761   -6.9940   26.4111 N   0  0  0  0  0  0  0  0  0  0  0  0
    9.1353   -5.4053   27.8239 C   0  0  0  0  0  0  0  0  0  0  0  0
    0.9922   -9.3232   16.5995 O   0  0  0  0  0  0  0  0  0  0  0  0
    1.5232   -7.6869   27.1182 C   0  0  0  0  0  0  0  0  0  0  0  0
    8.6878   -6.6715   27.7262 N   0  0  0  0  0  0  0  0  0  0  0  0
    6.9911   -8.2423   27.1808 C   0  0  0  0  0  0  0  0  0  0  0  0
    3.8436   -7.2758   16.0578 C   0  0  0  0  0  0  0  0  0  0  0  0
    3.1882   -9.7190   17.2566 C   0  0  0  0  0  0  0  0  0  0  0  0
    5.3488   -6.1737   26.5092 C   0  0  0  0  0  0  0  0  0  0  0  0
    7.4567   -6.9464   27.2858 C   0  0  0  0  0  0  0  0  0  0  0  0
    0.1921   -5.7592   27.1123 C   0  0  0  0  0  0  0  0  0  0  0  0
    3.5517   -7.7407   25.9711 C   0  0  0  0  0  0  0  0  0  0  0  0
  1  4  4  0
  1 22  4  0
  2 20  4  0
  2 27  4  0
  3 12  4  0
  3 23  4  0
  4 25  4  0
  4 28  1  0
  5  8  4  0
  5 17  4  0
  6  7  4  0
  6 16  4  0
  7 18  4  0
  8 27  4  0
  9 13  4  0
  9 23  4  0
 10 11  1  0
 11 14  2  0
 11 27  1  0
 12 19  1  0
 12 24  4  0
 13 24  4  0
 15 18  1  0
 16 25  4  0
 16 26  4  0
 17 20  4  0
 17 28  1  0
 18 21  4  0
 21 26  4  0
 22 26  4  0
M  END
$$$$

 Created by Python create_sdf_string function

 28 30  0  0  0  0  0  0  0  0999 V2000
    5.7174   -8.4529   26.7190 C   0  0  0  0  0  0  0  0  0  0  0  0
    0.3974   -7.0711   27.5149 C   0  0  0  0  0  0  0  0  0  0  0  0
    2.5338   -7.6891   16.0102 C   0  0  0  0  0  0  0  0  0  0  0  0
    4.8690   -7.4380   26.4151 C   0  0  0  0  0  0  0  0  0  0  0  0
    2.3021   -5.6726   26.0378 C   0  0  0  0  0  0  0  0  0  0  0  0
    7.0880   -4.6163   27.0010 C   0  0  0  0  0  0  0  0  0  0  0  0
    8.3117   -4.3698   27.4436 C   0  0  0  0  0  0  0  0  0  0  0  0
    1.1339   -5.0515   26.3541 C   0  0  0  0  0  0  0  0  0  0  0  0
    4.8080   -8.0362   16.7101 C   0  0  0  0  0  0  0  0  0  0  0  0
   -1.2173   -3.9294   26.9717 O   0  0  0  0  0  0  0  0  0  0  0  0
   -1.0025   -5.0942   27.4586 C   0  0  0  0  0  0  0  0  0  0  0  0
    2.2474   -8.9123   16.6273 C   0  0  0  0  0  0  0  0  0  0  0  0
    4.4957   -9.2636   17.3041 C   0  0  0  0  0  0  0  0  0  0  0  0
   -1.8070   -5.6086   28.1920 O   0  0  0  0  0  0  0  0  0  0  0  0
   10.4296   -5.1799   28.3140 C   0  0  0  0  0  0  0  0  0  0  0  0
    6.6017   -5.9004   26.9187 C   0  0  0  0  0  0  0  0  0  0  0  0
    2.4761   -6.9940   26.4111 N   0  0  0  0  0  0  0  0  0  0  0  0
    9.1353   -5.4053   27.8239 C   0  0  0  0  0  0  0  0  0  0  0  0
    0.9922   -9.3232   16.5995 O   0  0  0  0  0  0  0  0  0  0  0  0
    1.5232   -7.6869   27.1182 C   0  0  0  0  0  0  0  0  0  0  0  0
    8.6878   -6.6715   27.7262 N   0  0  0  0  0  0  0  0  0  0  0  0
    6.9911   -8.2423   27.1808 C   0  0  0  0  0  0  0  0  0  0  0  0
    3.8436   -7.2758   16.0578 C   0  0  0  0  0  0  0  0  0  0  0  0
    3.1882   -9.7190   17.2566 C   0  0  0  0  0  0  0  0  0  0  0  0
    5.3488   -6.1737   26.5092 C   0  0  0  0  0  0  0  0  0  0  0  0
    7.4567   -6.9464   27.2858 C   0  0  0  0  0  0  0  0  0  0  0  0
    0.1921   -5.7592   27.1123 C   0  0  0  0  0  0  0  0  0  0  0  0
    3.5517   -7.7407   25.9711 C   0  0  0  0  0  0  0  0  0  0  0  0
  1  4  4  0
  1 22  4  0
  2 20  4  0
  2 27  4  0
  3 12  4  0
  3 23  4  0
  4 25  4  0
  4 28  1  0
  5  8  4  0
  5 17  4  0
  6  7  4  0
  6 16  4  0
  7 18  4  0
  8 27  4  0
  9 13  4  0
  9 23  4  0
 10 11  1  0
 11 14  2  0
 11 27  1  0
 12 19  1  0
 12 24  4  0
 13 24  4  0
 15 18  1  0
 16 25  4  0
 16 26  4  0
 17 20  4  0
 17 28  1  0
 18 21  4  0
 21 26  4  0
 22 26  4  0
M  END
$$$$

 Created by Python create_sdf_string function

 28 30  0  0  0  0  0  0  0  0999 V2000
    5.7174   -8.4529   26.7190 C   0  0  0  0  0  0  0  0  0  0  0  0
    0.3974   -7.0711   27.5149 C   0  0  0  0  0  0  0  0  0  0  0  0
    2.5338   -7.6891   16.0102 C   0  0  0  0  0  0  0  0  0  0  0  0
    4.8690   -7.4380   26.4151 C   0  0  0  0  0  0  0  0  0  0  0  0
    2.3021   -5.6726   26.0378 C   0  0  0  0  0  0  0  0  0  0  0  0
    7.0880   -4.6163   27.0010 C   0  0  0  0  0  0  0  0  0  0  0  0
    8.3117   -4.3698   27.4436 C   0  0  0  0  0  0  0  0  0  0  0  0
    1.1339   -5.0515   26.3541 C   0  0  0  0  0  0  0  0  0  0  0  0
    4.8080   -8.0362   16.7101 C   0  0  0  0  0  0  0  0  0  0  0  0
   -1.2173   -3.9294   26.9717 O   0  0  0  0  0  0  0  0  0  0  0  0
   -1.0025   -5.0942   27.4586 C   0  0  0  0  0  0  0  0  0  0  0  0
    2.2474   -8.9123   16.6273 C   0  0  0  0  0  0  0  0  0  0  0  0
    4.4957   -9.2636   17.3041 C   0  0  0  0  0  0  0  0  0  0  0  0
   -1.8070   -5.6086   28.1920 O   0  0  0  0  0  0  0  0  0  0  0  0
   10.4296   -5.1799   28.3140 C   0  0  0  0  0  0  0  0  0  0  0  0
    6.6017   -5.9004   26.9187 C   0  0  0  0  0  0  0  0  0  0  0  0
    2.4761   -6.9940   26.4111 N   0  0  0  0  0  0  0  0  0  0  0  0
    9.1353   -5.4053   27.8239 C   0  0  0  0  0  0  0  0  0  0  0  0
    0.9922   -9.3232   16.5995 O   0  0  0  0  0  0  0  0  0  0  0  0
    1.5232   -7.6869   27.1182 C   0  0  0  0  0  0  0  0  0  0  0  0
    8.6878   -6.6715   27.7262 N   0  0  0  0  0  0  0  0  0  0  0  0
    6.9911   -8.2423   27.1808 C   0  0  0  0  0  0  0  0  0  0  0  0
    3.8436   -7.2758   16.0578 C   0  0  0  0  0  0  0  0  0  0  0  0
    3.1882   -9.7190   17.2566 C   0  0  0  0  0  0  0  0  0  0  0  0
    5.3488   -6.1737   26.5092 C   0  0  0  0  0  0  0  0  0  0  0  0
    7.4567   -6.9464   27.2858 C   0  0  0  0  0  0  0  0  0  0  0  0
    0.1921   -5.7592   27.1123 C   0  0  0  0  0  0  0  0  0  0  0  0
    3.5517   -7.7407   25.9711 C   0  0  0  0  0  0  0  0  0  0  0  0
  1  4  4  0
  1 22  4  0
  2 20  4  0
  2 27  4  0
  3 12  4  0
  3 23  4  0
  4 25  4  0
  4 28  1  0
  5  8  4  0
  5 17  4  0
  6  7  4  0
  6 16  4  0
  7 18  4  0
  8 27  4  0
  9 13  4  0
  9 23  4  0
 10 11  1  0
 11 14  2  0
 11 27  1  0
 12 19  1  0
 12 24  4  0
 13 24  4  0
 15 18  1  0
 16 25  4  0
 16 26  4  0
 17 20  4  0
 17 28  1  0
 18 21  4  0
 21 26  4  0
 22 26  4  0
M  END
$$$$

 Created by Python create_sdf_string function

 28 30  0  0  0  0  0  0  0  0999 V2000
    5.7174   -8.4529   26.7190 C   0  0  0  0  0  0  0  0  0  0  0  0
    0.3974   -7.0711   27.5149 C   0  0  0  0  0  0  0  0  0  0  0  0
    2.5338   -7.6891   16.0102 C   0  0  0  0  0  0  0  0  0  0  0  0
    4.8690   -7.4380   26.4151 C   0  0  0  0  0  0  0  0  0  0  0  0
    2.3021   -5.6726   26.0378 C   0  0  0  0  0  0  0  0  0  0  0  0
    7.0880   -4.6163   27.0010 C   0  0  0  0  0  0  0  0  0  0  0  0
    8.3117   -4.3698   27.4436 C   0  0  0  0  0  0  0  0  0  0  0  0
    1.1339   -5.0515   26.3541 C   0  0  0  0  0  0  0  0  0  0  0  0
    4.8080   -8.0362   16.7101 C   0  0  0  0  0  0  0  0  0  0  0  0
   -1.2173   -3.9294   26.9717 O   0  0  0  0  0  0  0  0  0  0  0  0
   -1.0025   -5.0942   27.4586 C   0  0  0  0  0  0  0  0  0  0  0  0
    2.2474   -8.9123   16.6273 C   0  0  0  0  0  0  0  0  0  0  0  0
    4.4957   -9.2636   17.3041 C   0  0  0  0  0  0  0  0  0  0  0  0
   -1.8070   -5.6086   28.1920 O   0  0  0  0  0  0  0  0  0  0  0  0
   10.4296   -5.1799   28.3140 C   0  0  0  0  0  0  0  0  0  0  0  0
    6.6017   -5.9004   26.9187 C   0  0  0  0  0  0  0  0  0  0  0  0
    2.4761   -6.9940   26.4111 N   0  0  0  0  0  0  0  0  0  0  0  0
    9.1353   -5.4053   27.8239 C   0  0  0  0  0  0  0  0  0  0  0  0
    0.9922   -9.3232   16.5995 O   0  0  0  0  0  0  0  0  0  0  0  0
    1.5232   -7.6869   27.1182 C   0  0  0  0  0  0  0  0  0  0  0  0
    8.6878   -6.6715   27.7262 N   0  0  0  0  0  0  0  0  0  0  0  0
    6.9911   -8.2423   27.1808 C   0  0  0  0  0  0  0  0  0  0  0  0
    3.8436   -7.2758   16.0578 C   0  0  0  0  0  0  0  0  0  0  0  0
    3.1882   -9.7190   17.2566 C   0  0  0  0  0  0  0  0  0  0  0  0
    5.3488   -6.1737   26.5092 C   0  0  0  0  0  0  0  0  0  0  0  0
    7.4567   -6.9464   27.2858 C   0  0  0  0  0  0  0  0  0  0  0  0
    0.1921   -5.7592   27.1123 C   0  0  0  0  0  0  0  0  0  0  0  0
    3.5517   -7.7407   25.9711 C   0  0  0  0  0  0  0  0  0  0  0  0
  1  4  4  0
  1 22  4  0
  2 20  4  0
  2 27  4  0
  3 12  4  0
  3 23  4  0
  4 25  4  0
  4 28  1  0
  5  8  4  0
  5 17  4  0
  6  7  4  0
  6 16  4  0
  7 18  4  0
  8 27  4  0
  9 13  4  0
  9 23  4  0
 10 11  1  0
 11 14  2  0
 11 27  1  0
 12 19  1  0
 12 24  4  0
 13 24  4  0
 15 18  1  0
 16 25  4  0
 16 26  4  0
 17 20  4  0
 17 28  1  0
 18 21  4  0
 21 26  4  0
 22 26  4  0
M  END
$$$$

 Created by Python create_sdf_string function

 28 30  0  0  0  0  0  0  0  0999 V2000
    5.7174   -8.4529   26.7190 C   0  0  0  0  0  0  0  0  0  0  0  0
    0.3974   -7.0711   27.5149 C   0  0  0  0  0  0  0  0  0  0  0  0
    2.5338   -7.6891   16.0102 C   0  0  0  0  0  0  0  0  0  0  0  0
    4.8690   -7.4380   26.4151 C   0  0  0  0  0  0  0  0  0  0  0  0
    2.3021   -5.6726   26.0378 C   0  0  0  0  0  0  0  0  0  0  0  0
    7.0880   -4.6163   27.0010 C   0  0  0  0  0  0  0  0  0  0  0  0
    8.3117   -4.3698   27.4436 C   0  0  0  0  0  0  0  0  0  0  0  0
    1.1339   -5.0515   26.3541 C   0  0  0  0  0  0  0  0  0  0  0  0
    4.8080   -8.0362   16.7101 C   0  0  0  0  0  0  0  0  0  0  0  0
   -1.2173   -3.9294   26.9717 O   0  0  0  0  0  0  0  0  0  0  0  0
   -1.0025   -5.0942   27.4586 C   0  0  0  0  0  0  0  0  0  0  0  0
    2.2474   -8.9123   16.6273 C   0  0  0  0  0  0  0  0  0  0  0  0
    4.4957   -9.2636   17.3041 C   0  0  0  0  0  0  0  0  0  0  0  0
   -1.8070   -5.6086   28.1920 O   0  0  0  0  0  0  0  0  0  0  0  0
   10.4296   -5.1799   28.3140 C   0  0  0  0  0  0  0  0  0  0  0  0
    6.6017   -5.9004   26.9187 C   0  0  0  0  0  0  0  0  0  0  0  0
    2.4761   -6.9940   26.4111 N   0  0  0  0  0  0  0  0  0  0  0  0
    9.1353   -5.4053   27.8239 C   0  0  0  0  0  0  0  0  0  0  0  0
    0.9922   -9.3232   16.5995 O   0  0  0  0  0  0  0  0  0  0  0  0
    1.5232   -7.6869   27.1182 C   0  0  0  0  0  0  0  0  0  0  0  0
    8.6878   -6.6715   27.7262 N   0  0  0  0  0  0  0  0  0  0  0  0
    6.9911   -8.2423   27.1808 C   0  0  0  0  0  0  0  0  0  0  0  0
    3.8436   -7.2758   16.0578 C   0  0  0  0  0  0  0  0  0  0  0  0
    3.1882   -9.7190   17.2566 C   0  0  0  0  0  0  0  0  0  0  0  0
    5.3488   -6.1737   26.5092 C   0  0  0  0  0  0  0  0  0  0  0  0
    7.4567   -6.9464   27.2858 C   0  0  0  0  0  0  0  0  0  0  0  0
    0.1921   -5.7592   27.1123 C   0  0  0  0  0  0  0  0  0  0  0  0
    3.5517   -7.7407   25.9711 C   0  0  0  0  0  0  0  0  0  0  0  0
  1  4  4  0
  1 22  4  0
  2 20  4  0
  2 27  4  0
  3 12  4  0
  3 23  4  0
  4 25  4  0
  4 28  1  0
  5  8  4  0
  5 17  4  0
  6  7  4  0
  6 16  4  0
  7 18  4  0
  8 27  4  0
  9 13  4  0
  9 23  4  0
 10 11  1  0
 11 14  2  0
 11 27  1  0
 12 19  1  0
 12 24  4  0
 13 24  4  0
 15 18  1  0
 16 25  4  0
 16 26  4  0
 17 20  4  0
 17 28  1  0
 18 21  4  0
 21 26  4  0
 22 26  4  0
M  END
$$$$

 Created by Python create_sdf_string function

 28 30  0  0  0  0  0  0  0  0999 V2000
    5.7174   -8.4529   26.7190 C   0  0  0  0  0  0  0  0  0  0  0  0
    0.3974   -7.0711   27.5149 C   0  0  0  0  0  0  0  0  0  0  0  0
    2.5338   -7.6891   16.0102 C   0  0  0  0  0  0  0  0  0  0  0  0
    4.8690   -7.4380   26.4151 C   0  0  0  0  0  0  0  0  0  0  0  0
    2.3021   -5.6726   26.0378 C   0  0  0  0  0  0  0  0  0  0  0  0
    7.0880   -4.6163   27.0010 C   0  0  0  0  0  0  0  0  0  0  0  0
    8.3117   -4.3698   27.4436 C   0  0  0  0  0  0  0  0  0  0  0  0
    1.1339   -5.0515   26.3541 C   0  0  0  0  0  0  0  0  0  0  0  0
    4.8080   -8.0362   16.7101 C   0  0  0  0  0  0  0  0  0  0  0  0
   -1.2173   -3.9294   26.9717 O   0  0  0  0  0  0  0  0  0  0  0  0
   -1.0025   -5.0942   27.4586 C   0  0  0  0  0  0  0  0  0  0  0  0
    2.2474   -8.9123   16.6273 C   0  0  0  0  0  0  0  0  0  0  0  0
    4.4957   -9.2636   17.3041 C   0  0  0  0  0  0  0  0  0  0  0  0
   -1.8070   -5.6086   28.1920 O   0  0  0  0  0  0  0  0  0  0  0  0
   10.4296   -5.1799   28.3140 C   0  0  0  0  0  0  0  0  0  0  0  0
    6.6017   -5.9004   26.9187 C   0  0  0  0  0  0  0  0  0  0  0  0
    2.4761   -6.9940   26.4111 N   0  0  0  0  0  0  0  0  0  0  0  0
    9.1353   -5.4053   27.8239 C   0  0  0  0  0  0  0  0  0  0  0  0
    0.9922   -9.3232   16.5995 O   0  0  0  0  0  0  0  0  0  0  0  0
    1.5232   -7.6869   27.1182 C   0  0  0  0  0  0  0  0  0  0  0  0
    8.6878   -6.6715   27.7262 N   0  0  0  0  0  0  0  0  0  0  0  0
    6.9911   -8.2423   27.1808 C   0  0  0  0  0  0  0  0  0  0  0  0
    3.8436   -7.2758   16.0578 C   0  0  0  0  0  0  0  0  0  0  0  0
    3.1882   -9.7190   17.2566 C   0  0  0  0  0  0  0  0  0  0  0  0
    5.3488   -6.1737   26.5092 C   0  0  0  0  0  0  0  0  0  0  0  0
    7.4567   -6.9464   27.2858 C   0  0  0  0  0  0  0  0  0  0  0  0
    0.1921   -5.7592   27.1123 C   0  0  0  0  0  0  0  0  0  0  0  0
    3.5517   -7.7407   25.9711 C   0  0  0  0  0  0  0  0  0  0  0  0
  1  4  4  0
  1 22  4  0
  2 20  4  0
  2 27  4  0
  3 12  4  0
  3 23  4  0
  4 25  4  0
  4 28  1  0
  5  8  4  0
  5 17  4  0
  6  7  4  0
  6 16  4  0
  7 18  4  0
  8 27  4  0
  9 13  4  0
  9 23  4  0
 10 11  1  0
 11 14  2  0
 11 27  1  0
 12 19  1  0
 12 24  4  0
 13 24  4  0
 15 18  1  0
 16 25  4  0
 16 26  4  0
 17 20  4  0
 17 28  1  0
 18 21  4  0
 21 26  4  0
 22 26  4  0
M  END
$$$$

 Created by Python create_sdf_string function

 28 30  0  0  0  0  0  0  0  0999 V2000
    5.7174   -8.4529   26.7190 C   0  0  0  0  0  0  0  0  0  0  0  0
    0.3974   -7.0711   27.5149 C   0  0  0  0  0  0  0  0  0  0  0  0
    2.5338   -7.6891   16.0102 C   0  0  0  0  0  0  0  0  0  0  0  0
    4.8690   -7.4380   26.4151 C   0  0  0  0  0  0  0  0  0  0  0  0
    2.3021   -5.6726   26.0378 C   0  0  0  0  0  0  0  0  0  0  0  0
    7.0880   -4.6163   27.0010 C   0  0  0  0  0  0  0  0  0  0  0  0
    8.3117   -4.3698   27.4436 C   0  0  0  0  0  0  0  0  0  0  0  0
    1.1339   -5.0515   26.3541 C   0  0  0  0  0  0  0  0  0  0  0  0
    4.8080   -8.0362   16.7101 C   0  0  0  0  0  0  0  0  0  0  0  0
   -1.2173   -3.9294   26.9717 O   0  0  0  0  0  0  0  0  0  0  0  0
   -1.0025   -5.0942   27.4586 C   0  0  0  0  0  0  0  0  0  0  0  0
    2.2474   -8.9123   16.6273 C   0  0  0  0  0  0  0  0  0  0  0  0
    4.4957   -9.2636   17.3041 C   0  0  0  0  0  0  0  0  0  0  0  0
   -1.8070   -5.6086   28.1920 O   0  0  0  0  0  0  0  0  0  0  0  0
   10.4296   -5.1799   28.3140 C   0  0  0  0  0  0  0  0  0  0  0  0
    6.6017   -5.9004   26.9187 C   0  0  0  0  0  0  0  0  0  0  0  0
    2.4761   -6.9940   26.4111 N   0  0  0  0  0  0  0  0  0  0  0  0
    9.1353   -5.4053   27.8239 C   0  0  0  0  0  0  0  0  0  0  0  0
    0.9922   -9.3232   16.5995 O   0  0  0  0  0  0  0  0  0  0  0  0
    1.5232   -7.6869   27.1182 C   0  0  0  0  0  0  0  0  0  0  0  0
    8.6878   -6.6715   27.7262 N   0  0  0  0  0  0  0  0  0  0  0  0
    6.9911   -8.2423   27.1808 C   0  0  0  0  0  0  0  0  0  0  0  0
    3.8436   -7.2758   16.0578 C   0  0  0  0  0  0  0  0  0  0  0  0
    3.1882   -9.7190   17.2566 C   0  0  0  0  0  0  0  0  0  0  0  0
    5.3488   -6.1737   26.5092 C   0  0  0  0  0  0  0  0  0  0  0  0
    7.4567   -6.9464   27.2858 C   0  0  0  0  0  0  0  0  0  0  0  0
    0.1921   -5.7592   27.1123 C   0  0  0  0  0  0  0  0  0  0  0  0
    3.5517   -7.7407   25.9711 C   0  0  0  0  0  0  0  0  0  0  0  0
  1  4  4  0
  1 22  4  0
  2 20  4  0
  2 27  4  0
  3 12  4  0
  3 23  4  0
  4 25  4  0
  4 28  1  0
  5  8  4  0
  5 17  4  0
  6  7  4  0
  6 16  4  0
  7 18  4  0
  8 27  4  0
  9 13  4  0
  9 23  4  0
 10 11  1  0
 11 14  2  0
 11 27  1  0
 12 19  1  0
 12 24  4  0
 13 24  4  0
 15 18  1  0
 16 25  4  0
 16 26  4  0
 17 20  4  0
 17 28  1  0
 18 21  4  0
 21 26  4  0
 22 26  4  0
M  END
$$$$

 Created by Python create_sdf_string function

 28 30  0  0  0  0  0  0  0  0999 V2000
    5.7174   -8.4529   26.7190 C   0  0  0  0  0  0  0  0  0  0  0  0
    0.3974   -7.0711   27.5149 C   0  0  0  0  0  0  0  0  0  0  0  0
    2.5338   -7.6891   16.0102 C   0  0  0  0  0  0  0  0  0  0  0  0
    4.8690   -7.4380   26.4151 C   0  0  0  0  0  0  0  0  0  0  0  0
    2.3021   -5.6726   26.0378 C   0  0  0  0  0  0  0  0  0  0  0  0
    7.0880   -4.6163   27.0010 C   0  0  0  0  0  0  0  0  0  0  0  0
    8.3117   -4.3698   27.4436 C   0  0  0  0  0  0  0  0  0  0  0  0
    1.1339   -5.0515   26.3541 C   0  0  0  0  0  0  0  0  0  0  0  0
    4.8080   -8.0362   16.7101 C   0  0  0  0  0  0  0  0  0  0  0  0
   -1.2173   -3.9294   26.9717 O   0  0  0  0  0  0  0  0  0  0  0  0
   -1.0025   -5.0942   27.4586 C   0  0  0  0  0  0  0  0  0  0  0  0
    2.2474   -8.9123   16.6273 C   0  0  0  0  0  0  0  0  0  0  0  0
    4.4957   -9.2636   17.3041 C   0  0  0  0  0  0  0  0  0  0  0  0
   -1.8070   -5.6086   28.1920 O   0  0  0  0  0  0  0  0  0  0  0  0
   10.4296   -5.1799   28.3140 C   0  0  0  0  0  0  0  0  0  0  0  0
    6.6017   -5.9004   26.9187 C   0  0  0  0  0  0  0  0  0  0  0  0
    2.4761   -6.9940   26.4111 N   0  0  0  0  0  0  0  0  0  0  0  0
    9.1353   -5.4053   27.8239 C   0  0  0  0  0  0  0  0  0  0  0  0
    0.9922   -9.3232   16.5995 O   0  0  0  0  0  0  0  0  0  0  0  0
    1.5232   -7.6869   27.1182 C   0  0  0  0  0  0  0  0  0  0  0  0
    8.6878   -6.6715   27.7262 N   0  0  0  0  0  0  0  0  0  0  0  0
    6.9911   -8.2423   27.1808 C   0  0  0  0  0  0  0  0  0  0  0  0
    3.8436   -7.2758   16.0578 C   0  0  0  0  0  0  0  0  0  0  0  0
    3.1882   -9.7190   17.2566 C   0  0  0  0  0  0  0  0  0  0  0  0
    5.3488   -6.1737   26.5092 C   0  0  0  0  0  0  0  0  0  0  0  0
    7.4567   -6.9464   27.2858 C   0  0  0  0  0  0  0  0  0  0  0  0
    0.1921   -5.7592   27.1123 C   0  0  0  0  0  0  0  0  0  0  0  0
    3.5517   -7.7407   25.9711 C   0  0  0  0  0  0  0  0  0  0  0  0
  1  4  4  0
  1 22  4  0
  2 20  4  0
  2 27  4  0
  3 12  4  0
  3 23  4  0
  4 25  4  0
  4 28  1  0
  5  8  4  0
  5 17  4  0
  6  7  4  0
  6 16  4  0
  7 18  4  0
  8 27  4  0
  9 13  4  0
  9 23  4  0
 10 11  1  0
 11 14  2  0
 11 27  1  0
 12 19  1  0
 12 24  4  0
 13 24  4  0
 15 18  1  0
 16 25  4  0
 16 26  4  0
 17 20  4  0
 17 28  1  0
 18 21  4  0
 21 26  4  0
 22 26  4  0
M  END
$$$$

 Created by Python create_sdf_string function

 28 30  0  0  0  0  0  0  0  0999 V2000
    5.7174   -8.4529   26.7190 C   0  0  0  0  0  0  0  0  0  0  0  0
    0.3974   -7.0711   27.5149 C   0  0  0  0  0  0  0  0  0  0  0  0
    2.5338   -7.6891   16.0102 C   0  0  0  0  0  0  0  0  0  0  0  0
    4.8690   -7.4380   26.4151 C   0  0  0  0  0  0  0  0  0  0  0  0
    2.3021   -5.6726   26.0378 C   0  0  0  0  0  0  0  0  0  0  0  0
    7.0880   -4.6163   27.0010 C   0  0  0  0  0  0  0  0  0  0  0  0
    8.3117   -4.3698   27.4436 C   0  0  0  0  0  0  0  0  0  0  0  0
    1.1339   -5.0515   26.3541 C   0  0  0  0  0  0  0  0  0  0  0  0
    4.8080   -8.0362   16.7101 C   0  0  0  0  0  0  0  0  0  0  0  0
   -1.2173   -3.9294   26.9717 O   0  0  0  0  0  0  0  0  0  0  0  0
   -1.0025   -5.0942   27.4586 C   0  0  0  0  0  0  0  0  0  0  0  0
    2.2474   -8.9123   16.6273 C   0  0  0  0  0  0  0  0  0  0  0  0
    4.4957   -9.2636   17.3041 C   0  0  0  0  0  0  0  0  0  0  0  0
   -1.8070   -5.6086   28.1920 O   0  0  0  0  0  0  0  0  0  0  0  0
   10.4296   -5.1799   28.3140 C   0  0  0  0  0  0  0  0  0  0  0  0
    6.6017   -5.9004   26.9187 C   0  0  0  0  0  0  0  0  0  0  0  0
    2.4761   -6.9940   26.4111 N   0  0  0  0  0  0  0  0  0  0  0  0
    9.1353   -5.4053   27.8239 C   0  0  0  0  0  0  0  0  0  0  0  0
    0.9922   -9.3232   16.5995 O   0  0  0  0  0  0  0  0  0  0  0  0
    1.5232   -7.6869   27.1182 C   0  0  0  0  0  0  0  0  0  0  0  0
    8.6878   -6.6715   27.7262 N   0  0  0  0  0  0  0  0  0  0  0  0
    6.9911   -8.2423   27.1808 C   0  0  0  0  0  0  0  0  0  0  0  0
    3.8436   -7.2758   16.0578 C   0  0  0  0  0  0  0  0  0  0  0  0
    3.1882   -9.7190   17.2566 C   0  0  0  0  0  0  0  0  0  0  0  0
    5.3488   -6.1737   26.5092 C   0  0  0  0  0  0  0  0  0  0  0  0
    7.4567   -6.9464   27.2858 C   0  0  0  0  0  0  0  0  0  0  0  0
    0.1921   -5.7592   27.1123 C   0  0  0  0  0  0  0  0  0  0  0  0
    3.5517   -7.7407   25.9711 C   0  0  0  0  0  0  0  0  0  0  0  0
  1  4  4  0
  1 22  4  0
  2 20  4  0
  2 27  4  0
  3 12  4  0
  3 23  4  0
  4 25  4  0
  4 28  1  0
  5  8  4  0
  5 17  4  0
  6  7  4  0
  6 16  4  0
  7 18  4  0
  8 27  4  0
  9 13  4  0
  9 23  4  0
 10 11  1  0
 11 14  2  0
 11 27  1  0
 12 19  1  0
 12 24  4  0
 13 24  4  0
 15 18  1  0
 16 25  4  0
 16 26  4  0
 17 20  4  0
 17 28  1  0
 18 21  4  0
 21 26  4  0
 22 26  4  0
M  END
$$$$

 Created by Python create_sdf_string function

 28 30  0  0  0  0  0  0  0  0999 V2000
    5.7174   -8.4529   26.7190 C   0  0  0  0  0  0  0  0  0  0  0  0
    0.3974   -7.0711   27.5149 C   0  0  0  0  0  0  0  0  0  0  0  0
    2.5338   -7.6891   16.0102 C   0  0  0  0  0  0  0  0  0  0  0  0
    4.8690   -7.4380   26.4151 C   0  0  0  0  0  0  0  0  0  0  0  0
    2.3021   -5.6726   26.0378 C   0  0  0  0  0  0  0  0  0  0  0  0
    7.0880   -4.6163   27.0010 C   0  0  0  0  0  0  0  0  0  0  0  0
    8.3117   -4.3698   27.4436 C   0  0  0  0  0  0  0  0  0  0  0  0
    1.1339   -5.0515   26.3541 C   0  0  0  0  0  0  0  0  0  0  0  0
    4.8080   -8.0362   16.7101 C   0  0  0  0  0  0  0  0  0  0  0  0
   -1.2173   -3.9294   26.9717 O   0  0  0  0  0  0  0  0  0  0  0  0
   -1.0025   -5.0942   27.4586 C   0  0  0  0  0  0  0  0  0  0  0  0
    2.2474   -8.9123   16.6273 C   0  0  0  0  0  0  0  0  0  0  0  0
    4.4957   -9.2636   17.3041 C   0  0  0  0  0  0  0  0  0  0  0  0
   -1.8070   -5.6086   28.1920 O   0  0  0  0  0  0  0  0  0  0  0  0
   10.4296   -5.1799   28.3140 C   0  0  0  0  0  0  0  0  0  0  0  0
    6.6017   -5.9004   26.9187 C   0  0  0  0  0  0  0  0  0  0  0  0
    2.4761   -6.9940   26.4111 N   0  0  0  0  0  0  0  0  0  0  0  0
    9.1353   -5.4053   27.8239 C   0  0  0  0  0  0  0  0  0  0  0  0
    0.9922   -9.3232   16.5995 O   0  0  0  0  0  0  0  0  0  0  0  0
    1.5232   -7.6869   27.1182 C   0  0  0  0  0  0  0  0  0  0  0  0
    8.6878   -6.6715   27.7262 N   0  0  0  0  0  0  0  0  0  0  0  0
    6.9911   -8.2423   27.1808 C   0  0  0  0  0  0  0  0  0  0  0  0
    3.8436   -7.2758   16.0578 C   0  0  0  0  0  0  0  0  0  0  0  0
    3.1882   -9.7190   17.2566 C   0  0  0  0  0  0  0  0  0  0  0  0
    5.3488   -6.1737   26.5092 C   0  0  0  0  0  0  0  0  0  0  0  0
    7.4567   -6.9464   27.2858 C   0  0  0  0  0  0  0  0  0  0  0  0
    0.1921   -5.7592   27.1123 C   0  0  0  0  0  0  0  0  0  0  0  0
    3.5517   -7.7407   25.9711 C   0  0  0  0  0  0  0  0  0  0  0  0
  1  4  4  0
  1 22  4  0
  2 20  4  0
  2 27  4  0
  3 12  4  0
  3 23  4  0
  4 25  4  0
  4 28  1  0
  5  8  4  0
  5 17  4  0
  6  7  4  0
  6 16  4  0
  7 18  4  0
  8 27  4  0
  9 13  4  0
  9 23  4  0
 10 11  1  0
 11 14  2  0
 11 27  1  0
 12 19  1  0
 12 24  4  0
 13 24  4  0
 15 18  1  0
 16 25  4  0
 16 26  4  0
 17 20  4  0
 17 28  1  0
 18 21  4  0
 21 26  4  0
 22 26  4  0
M  END
$$$$

 Created by Python create_sdf_string function

 28 30  0  0  0  0  0  0  0  0999 V2000
    5.7174   -8.4529   26.7190 C   0  0  0  0  0  0  0  0  0  0  0  0
    0.3974   -7.0711   27.5149 C   0  0  0  0  0  0  0  0  0  0  0  0
    2.5338   -7.6891   16.0102 C   0  0  0  0  0  0  0  0  0  0  0  0
    4.8690   -7.4380   26.4151 C   0  0  0  0  0  0  0  0  0  0  0  0
    2.3021   -5.6726   26.0378 C   0  0  0  0  0  0  0  0  0  0  0  0
    7.0880   -4.6163   27.0010 C   0  0  0  0  0  0  0  0  0  0  0  0
    8.3117   -4.3698   27.4436 C   0  0  0  0  0  0  0  0  0  0  0  0
    1.1339   -5.0515   26.3541 C   0  0  0  0  0  0  0  0  0  0  0  0
    4.8080   -8.0362   16.7101 C   0  0  0  0  0  0  0  0  0  0  0  0
   -1.2173   -3.9294   26.9717 O   0  0  0  0  0  0  0  0  0  0  0  0
   -1.0025   -5.0942   27.4586 C   0  0  0  0  0  0  0  0  0  0  0  0
    2.2474   -8.9123   16.6273 C   0  0  0  0  0  0  0  0  0  0  0  0
    4.4957   -9.2636   17.3041 C   0  0  0  0  0  0  0  0  0  0  0  0
   -1.8070   -5.6086   28.1920 O   0  0  0  0  0  0  0  0  0  0  0  0
   10.4296   -5.1799   28.3140 C   0  0  0  0  0  0  0  0  0  0  0  0
    6.6017   -5.9004   26.9187 C   0  0  0  0  0  0  0  0  0  0  0  0
    2.4761   -6.9940   26.4111 N   0  0  0  0  0  0  0  0  0  0  0  0
    9.1353   -5.4053   27.8239 C   0  0  0  0  0  0  0  0  0  0  0  0
    0.9922   -9.3232   16.5995 O   0  0  0  0  0  0  0  0  0  0  0  0
    1.5232   -7.6869   27.1182 C   0  0  0  0  0  0  0  0  0  0  0  0
    8.6878   -6.6715   27.7262 N   0  0  0  0  0  0  0  0  0  0  0  0
    6.9911   -8.2423   27.1808 C   0  0  0  0  0  0  0  0  0  0  0  0
    3.8436   -7.2758   16.0578 C   0  0  0  0  0  0  0  0  0  0  0  0
    3.1882   -9.7190   17.2566 C   0  0  0  0  0  0  0  0  0  0  0  0
    5.3488   -6.1737   26.5092 C   0  0  0  0  0  0  0  0  0  0  0  0
    7.4567   -6.9464   27.2858 C   0  0  0  0  0  0  0  0  0  0  0  0
    0.1921   -5.7592   27.1123 C   0  0  0  0  0  0  0  0  0  0  0  0
    3.5517   -7.7407   25.9711 C   0  0  0  0  0  0  0  0  0  0  0  0
  1  4  4  0
  1 22  4  0
  2 20  4  0
  2 27  4  0
  3 12  4  0
  3 23  4  0
  4 25  4  0
  4 28  1  0
  5  8  4  0
  5 17  4  0
  6  7  4  0
  6 16  4  0
  7 18  4  0
  8 27  4  0
  9 13  4  0
  9 23  4  0
 10 11  1  0
 11 14  2  0
 11 27  1  0
 12 19  1  0
 12 24  4  0
 13 24  4  0
 15 18  1  0
 16 25  4  0
 16 26  4  0
 17 20  4  0
 17 28  1  0
 18 21  4  0
 21 26  4  0
 22 26  4  0
M  END
$$$$

 Created by Python create_sdf_string function

 28 30  0  0  0  0  0  0  0  0999 V2000
    5.7174   -8.4529   26.7190 C   0  0  0  0  0  0  0  0  0  0  0  0
    0.3974   -7.0711   27.5149 C   0  0  0  0  0  0  0  0  0  0  0  0
    2.5338   -7.6891   16.0102 C   0  0  0  0  0  0  0  0  0  0  0  0
    4.8690   -7.4380   26.4151 C   0  0  0  0  0  0  0  0  0  0  0  0
    2.3021   -5.6726   26.0378 C   0  0  0  0  0  0  0  0  0  0  0  0
    7.0880   -4.6163   27.0010 C   0  0  0  0  0  0  0  0  0  0  0  0
    8.3117   -4.3698   27.4436 C   0  0  0  0  0  0  0  0  0  0  0  0
    1.1339   -5.0515   26.3541 C   0  0  0  0  0  0  0  0  0  0  0  0
    4.8080   -8.0362   16.7101 C   0  0  0  0  0  0  0  0  0  0  0  0
   -1.2173   -3.9294   26.9717 O   0  0  0  0  0  0  0  0  0  0  0  0
   -1.0025   -5.0942   27.4586 C   0  0  0  0  0  0  0  0  0  0  0  0
    2.2474   -8.9123   16.6273 C   0  0  0  0  0  0  0  0  0  0  0  0
    4.4957   -9.2636   17.3041 C   0  0  0  0  0  0  0  0  0  0  0  0
   -1.8070   -5.6086   28.1920 O   0  0  0  0  0  0  0  0  0  0  0  0
   10.4296   -5.1799   28.3140 C   0  0  0  0  0  0  0  0  0  0  0  0
    6.6017   -5.9004   26.9187 C   0  0  0  0  0  0  0  0  0  0  0  0
    2.4761   -6.9940   26.4111 N   0  0  0  0  0  0  0  0  0  0  0  0
    9.1353   -5.4053   27.8239 C   0  0  0  0  0  0  0  0  0  0  0  0
    0.9922   -9.3232   16.5995 O   0  0  0  0  0  0  0  0  0  0  0  0
    1.5232   -7.6869   27.1182 C   0  0  0  0  0  0  0  0  0  0  0  0
    8.6878   -6.6715   27.7262 N   0  0  0  0  0  0  0  0  0  0  0  0
    6.9911   -8.2423   27.1808 C   0  0  0  0  0  0  0  0  0  0  0  0
    3.8436   -7.2758   16.0578 C   0  0  0  0  0  0  0  0  0  0  0  0
    3.1882   -9.7190   17.2566 C   0  0  0  0  0  0  0  0  0  0  0  0
    5.3488   -6.1737   26.5092 C   0  0  0  0  0  0  0  0  0  0  0  0
    7.4567   -6.9464   27.2858 C   0  0  0  0  0  0  0  0  0  0  0  0
    0.1921   -5.7592   27.1123 C   0  0  0  0  0  0  0  0  0  0  0  0
    3.5517   -7.7407   25.9711 C   0  0  0  0  0  0  0  0  0  0  0  0
  1  4  4  0
  1 22  4  0
  2 20  4  0
  2 27  4  0
  3 12  4  0
  3 23  4  0
  4 25  4  0
  4 28  1  0
  5  8  4  0
  5 17  4  0
  6  7  4  0
  6 16  4  0
  7 18  4  0
  8 27  4  0
  9 13  4  0
  9 23  4  0
 10 11  1  0
 11 14  2  0
 11 27  1  0
 12 19  1  0
 12 24  4  0
 13 24  4  0
 15 18  1  0
 16 25  4  0
 16 26  4  0
 17 20  4  0
 17 28  1  0
 18 21  4  0
 21 26  4  0
 22 26  4  0
M  END
$$$$

 Created by Python create_sdf_string function

 28 30  0  0  0  0  0  0  0  0999 V2000
    5.7174   -8.4529   26.7190 C   0  0  0  0  0  0  0  0  0  0  0  0
    0.3974   -7.0711   27.5149 C   0  0  0  0  0  0  0  0  0  0  0  0
    2.5338   -7.6891   16.0102 C   0  0  0  0  0  0  0  0  0  0  0  0
    4.8690   -7.4380   26.4151 C   0  0  0  0  0  0  0  0  0  0  0  0
    2.3021   -5.6726   26.0378 C   0  0  0  0  0  0  0  0  0  0  0  0
    7.0880   -4.6163   27.0010 C   0  0  0  0  0  0  0  0  0  0  0  0
    8.3117   -4.3698   27.4436 C   0  0  0  0  0  0  0  0  0  0  0  0
    1.1339   -5.0515   26.3541 C   0  0  0  0  0  0  0  0  0  0  0  0
    4.8080   -8.0362   16.7101 C   0  0  0  0  0  0  0  0  0  0  0  0
   -1.2173   -3.9294   26.9717 O   0  0  0  0  0  0  0  0  0  0  0  0
   -1.0025   -5.0942   27.4586 C   0  0  0  0  0  0  0  0  0  0  0  0
    2.2474   -8.9123   16.6273 C   0  0  0  0  0  0  0  0  0  0  0  0
    4.4957   -9.2636   17.3041 C   0  0  0  0  0  0  0  0  0  0  0  0
   -1.8070   -5.6086   28.1920 O   0  0  0  0  0  0  0  0  0  0  0  0
   10.4296   -5.1799   28.3140 C   0  0  0  0  0  0  0  0  0  0  0  0
    6.6017   -5.9004   26.9187 C   0  0  0  0  0  0  0  0  0  0  0  0
    2.4761   -6.9940   26.4111 N   0  0  0  0  0  0  0  0  0  0  0  0
    9.1353   -5.4053   27.8239 C   0  0  0  0  0  0  0  0  0  0  0  0
    0.9922   -9.3232   16.5995 O   0  0  0  0  0  0  0  0  0  0  0  0
    1.5232   -7.6869   27.1182 C   0  0  0  0  0  0  0  0  0  0  0  0
    8.6878   -6.6715   27.7262 N   0  0  0  0  0  0  0  0  0  0  0  0
    6.9911   -8.2423   27.1808 C   0  0  0  0  0  0  0  0  0  0  0  0
    3.8436   -7.2758   16.0578 C   0  0  0  0  0  0  0  0  0  0  0  0
    3.1882   -9.7190   17.2566 C   0  0  0  0  0  0  0  0  0  0  0  0
    5.3488   -6.1737   26.5092 C   0  0  0  0  0  0  0  0  0  0  0  0
    7.4567   -6.9464   27.2858 C   0  0  0  0  0  0  0  0  0  0  0  0
    0.1921   -5.7592   27.1123 C   0  0  0  0  0  0  0  0  0  0  0  0
    3.5517   -7.7407   25.9711 C   0  0  0  0  0  0  0  0  0  0  0  0
  1  4  4  0
  1 22  4  0
  2 20  4  0
  2 27  4  0
  3 12  4  0
  3 23  4  0
  4 25  4  0
  4 28  1  0
  5  8  4  0
  5 17  4  0
  6  7  4  0
  6 16  4  0
  7 18  4  0
  8 27  4  0
  9 13  4  0
  9 23  4  0
 10 11  1  0
 11 14  2  0
 11 27  1  0
 12 19  1  0
 12 24  4  0
 13 24  4  0
 15 18  1  0
 16 25  4  0
 16 26  4  0
 17 20  4  0
 17 28  1  0
 18 21  4  0
 21 26  4  0
 22 26  4  0
M  END
$$$$

 Created by Python create_sdf_string function

 28 30  0  0  0  0  0  0  0  0999 V2000
    5.7174   -8.4529   26.7190 C   0  0  0  0  0  0  0  0  0  0  0  0
    0.3974   -7.0711   27.5149 C   0  0  0  0  0  0  0  0  0  0  0  0
    2.5338   -7.6891   16.0102 C   0  0  0  0  0  0  0  0  0  0  0  0
    4.8690   -7.4380   26.4151 C   0  0  0  0  0  0  0  0  0  0  0  0
    2.3021   -5.6726   26.0378 C   0  0  0  0  0  0  0  0  0  0  0  0
    7.0880   -4.6163   27.0010 C   0  0  0  0  0  0  0  0  0  0  0  0
    8.3117   -4.3698   27.4436 C   0  0  0  0  0  0  0  0  0  0  0  0
    1.1339   -5.0515   26.3541 C   0  0  0  0  0  0  0  0  0  0  0  0
    4.8080   -8.0362   16.7101 C   0  0  0  0  0  0  0  0  0  0  0  0
   -1.2173   -3.9294   26.9717 O   0  0  0  0  0  0  0  0  0  0  0  0
   -1.0025   -5.0942   27.4586 C   0  0  0  0  0  0  0  0  0  0  0  0
    2.2474   -8.9123   16.6273 C   0  0  0  0  0  0  0  0  0  0  0  0
    4.4957   -9.2636   17.3041 C   0  0  0  0  0  0  0  0  0  0  0  0
   -1.8070   -5.6086   28.1920 O   0  0  0  0  0  0  0  0  0  0  0  0
   10.4296   -5.1799   28.3140 C   0  0  0  0  0  0  0  0  0  0  0  0
    6.6017   -5.9004   26.9187 C   0  0  0  0  0  0  0  0  0  0  0  0
    2.4761   -6.9940   26.4111 N   0  0  0  0  0  0  0  0  0  0  0  0
    9.1353   -5.4053   27.8239 C   0  0  0  0  0  0  0  0  0  0  0  0
    0.9922   -9.3232   16.5995 O   0  0  0  0  0  0  0  0  0  0  0  0
    1.5232   -7.6869   27.1182 C   0  0  0  0  0  0  0  0  0  0  0  0
    8.6878   -6.6715   27.7262 N   0  0  0  0  0  0  0  0  0  0  0  0
    6.9911   -8.2423   27.1808 C   0  0  0  0  0  0  0  0  0  0  0  0
    3.8436   -7.2758   16.0578 C   0  0  0  0  0  0  0  0  0  0  0  0
    3.1882   -9.7190   17.2566 C   0  0  0  0  0  0  0  0  0  0  0  0
    5.3488   -6.1737   26.5092 C   0  0  0  0  0  0  0  0  0  0  0  0
    7.4567   -6.9464   27.2858 C   0  0  0  0  0  0  0  0  0  0  0  0
    0.1921   -5.7592   27.1123 C   0  0  0  0  0  0  0  0  0  0  0  0
    3.5517   -7.7407   25.9711 C   0  0  0  0  0  0  0  0  0  0  0  0
  1  4  4  0
  1 22  4  0
  2 20  4  0
  2 27  4  0
  3 12  4  0
  3 23  4  0
  4 25  4  0
  4 28  1  0
  5  8  4  0
  5 17  4  0
  6  7  4  0
  6 16  4  0
  7 18  4  0
  8 27  4  0
  9 13  4  0
  9 23  4  0
 10 11  1  0
 11 14  2  0
 11 27  1  0
 12 19  1  0
 12 24  4  0
 13 24  4  0
 15 18  1  0
 16 25  4  0
 16 26  4  0
 17 20  4  0
 17 28  1  0
 18 21  4  0
 21 26  4  0
 22 26  4  0
M  END
$$$$

 Created by Python create_sdf_string function

 28 30  0  0  0  0  0  0  0  0999 V2000
    5.7174   -8.4529   26.7190 C   0  0  0  0  0  0  0  0  0  0  0  0
    0.3974   -7.0711   27.5149 C   0  0  0  0  0  0  0  0  0  0  0  0
    2.5338   -7.6891   16.0102 C   0  0  0  0  0  0  0  0  0  0  0  0
    4.8690   -7.4380   26.4151 C   0  0  0  0  0  0  0  0  0  0  0  0
    2.3021   -5.6726   26.0378 C   0  0  0  0  0  0  0  0  0  0  0  0
    7.0880   -4.6163   27.0010 C   0  0  0  0  0  0  0  0  0  0  0  0
    8.3117   -4.3698   27.4436 C   0  0  0  0  0  0  0  0  0  0  0  0
    1.1339   -5.0515   26.3541 C   0  0  0  0  0  0  0  0  0  0  0  0
    4.8080   -8.0362   16.7101 C   0  0  0  0  0  0  0  0  0  0  0  0
   -1.2173   -3.9294   26.9717 O   0  0  0  0  0  0  0  0  0  0  0  0
   -1.0025   -5.0942   27.4586 C   0  0  0  0  0  0  0  0  0  0  0  0
    2.2474   -8.9123   16.6273 C   0  0  0  0  0  0  0  0  0  0  0  0
    4.4957   -9.2636   17.3041 C   0  0  0  0  0  0  0  0  0  0  0  0
   -1.8070   -5.6086   28.1920 O   0  0  0  0  0  0  0  0  0  0  0  0
   10.4296   -5.1799   28.3140 C   0  0  0  0  0  0  0  0  0  0  0  0
    6.6017   -5.9004   26.9187 C   0  0  0  0  0  0  0  0  0  0  0  0
    2.4761   -6.9940   26.4111 N   0  0  0  0  0  0  0  0  0  0  0  0
    9.1353   -5.4053   27.8239 C   0  0  0  0  0  0  0  0  0  0  0  0
    0.9922   -9.3232   16.5995 O   0  0  0  0  0  0  0  0  0  0  0  0
    1.5232   -7.6869   27.1182 C   0  0  0  0  0  0  0  0  0  0  0  0
    8.6878   -6.6715   27.7262 N   0  0  0  0  0  0  0  0  0  0  0  0
    6.9911   -8.2423   27.1808 C   0  0  0  0  0  0  0  0  0  0  0  0
    3.8436   -7.2758   16.0578 C   0  0  0  0  0  0  0  0  0  0  0  0
    3.1882   -9.7190   17.2566 C   0  0  0  0  0  0  0  0  0  0  0  0
    5.3488   -6.1737   26.5092 C   0  0  0  0  0  0  0  0  0  0  0  0
    7.4567   -6.9464   27.2858 C   0  0  0  0  0  0  0  0  0  0  0  0
    0.1921   -5.7592   27.1123 C   0  0  0  0  0  0  0  0  0  0  0  0
    3.5517   -7.7407   25.9711 C   0  0  0  0  0  0  0  0  0  0  0  0
  1  4  4  0
  1 22  4  0
  2 20  4  0
  2 27  4  0
  3 12  4  0
  3 23  4  0
  4 25  4  0
  4 28  1  0
  5  8  4  0
  5 17  4  0
  6  7  4  0
  6 16  4  0
  7 18  4  0
  8 27  4  0
  9 13  4  0
  9 23  4  0
 10 11  1  0
 11 14  2  0
 11 27  1  0
 12 19  1  0
 12 24  4  0
 13 24  4  0
 15 18  1  0
 16 25  4  0
 16 26  4  0
 17 20  4  0
 17 28  1  0
 18 21  4  0
 21 26  4  0
 22 26  4  0
M  END
$$$$

 Created by Python create_sdf_string function

 28 30  0  0  0  0  0  0  0  0999 V2000
    5.7174   -8.4529   26.7190 C   0  0  0  0  0  0  0  0  0  0  0  0
    0.3974   -7.0711   27.5149 C   0  0  0  0  0  0  0  0  0  0  0  0
    2.5338   -7.6891   16.0102 C   0  0  0  0  0  0  0  0  0  0  0  0
    4.8690   -7.4380   26.4151 C   0  0  0  0  0  0  0  0  0  0  0  0
    2.3021   -5.6726   26.0378 C   0  0  0  0  0  0  0  0  0  0  0  0
    7.0880   -4.6163   27.0010 C   0  0  0  0  0  0  0  0  0  0  0  0
    8.3117   -4.3698   27.4436 C   0  0  0  0  0  0  0  0  0  0  0  0
    1.1339   -5.0515   26.3541 C   0  0  0  0  0  0  0  0  0  0  0  0
    4.8080   -8.0362   16.7101 C   0  0  0  0  0  0  0  0  0  0  0  0
   -1.2173   -3.9294   26.9717 O   0  0  0  0  0  0  0  0  0  0  0  0
   -1.0025   -5.0942   27.4586 C   0  0  0  0  0  0  0  0  0  0  0  0
    2.2474   -8.9123   16.6273 C   0  0  0  0  0  0  0  0  0  0  0  0
    4.4957   -9.2636   17.3041 C   0  0  0  0  0  0  0  0  0  0  0  0
   -1.8070   -5.6086   28.1920 O   0  0  0  0  0  0  0  0  0  0  0  0
   10.4296   -5.1799   28.3140 C   0  0  0  0  0  0  0  0  0  0  0  0
    6.6017   -5.9004   26.9187 C   0  0  0  0  0  0  0  0  0  0  0  0
    2.4761   -6.9940   26.4111 N   0  0  0  0  0  0  0  0  0  0  0  0
    9.1353   -5.4053   27.8239 C   0  0  0  0  0  0  0  0  0  0  0  0
    0.9922   -9.3232   16.5995 O   0  0  0  0  0  0  0  0  0  0  0  0
    1.5232   -7.6869   27.1182 C   0  0  0  0  0  0  0  0  0  0  0  0
    8.6878   -6.6715   27.7262 N   0  0  0  0  0  0  0  0  0  0  0  0
    6.9911   -8.2423   27.1808 C   0  0  0  0  0  0  0  0  0  0  0  0
    3.8436   -7.2758   16.0578 C   0  0  0  0  0  0  0  0  0  0  0  0
    3.1882   -9.7190   17.2566 C   0  0  0  0  0  0  0  0  0  0  0  0
    5.3488   -6.1737   26.5092 C   0  0  0  0  0  0  0  0  0  0  0  0
    7.4567   -6.9464   27.2858 C   0  0  0  0  0  0  0  0  0  0  0  0
    0.1921   -5.7592   27.1123 C   0  0  0  0  0  0  0  0  0  0  0  0
    3.5517   -7.7407   25.9711 C   0  0  0  0  0  0  0  0  0  0  0  0
  1  4  4  0
  1 22  4  0
  2 20  4  0
  2 27  4  0
  3 12  4  0
  3 23  4  0
  4 25  4  0
  4 28  1  0
  5  8  4  0
  5 17  4  0
  6  7  4  0
  6 16  4  0
  7 18  4  0
  8 27  4  0
  9 13  4  0
  9 23  4  0
 10 11  1  0
 11 14  2  0
 11 27  1  0
 12 19  1  0
 12 24  4  0
 13 24  4  0
 15 18  1  0
 16 25  4  0
 16 26  4  0
 17 20  4  0
 17 28  1  0
 18 21  4  0
 21 26  4  0
 22 26  4  0
M  END
$$$$

 Created by Python create_sdf_string function

 28 30  0  0  0  0  0  0  0  0999 V2000
    5.7174   -8.4529   26.7190 C   0  0  0  0  0  0  0  0  0  0  0  0
    0.3974   -7.0711   27.5149 C   0  0  0  0  0  0  0  0  0  0  0  0
    2.5338   -7.6891   16.0102 C   0  0  0  0  0  0  0  0  0  0  0  0
    4.8690   -7.4380   26.4151 C   0  0  0  0  0  0  0  0  0  0  0  0
    2.3021   -5.6726   26.0378 C   0  0  0  0  0  0  0  0  0  0  0  0
    7.0880   -4.6163   27.0010 C   0  0  0  0  0  0  0  0  0  0  0  0
    8.3117   -4.3698   27.4436 C   0  0  0  0  0  0  0  0  0  0  0  0
    1.1339   -5.0515   26.3541 C   0  0  0  0  0  0  0  0  0  0  0  0
    4.8080   -8.0362   16.7101 C   0  0  0  0  0  0  0  0  0  0  0  0
   -1.2173   -3.9294   26.9717 O   0  0  0  0  0  0  0  0  0  0  0  0
   -1.0025   -5.0942   27.4586 C   0  0  0  0  0  0  0  0  0  0  0  0
    2.2474   -8.9123   16.6273 C   0  0  0  0  0  0  0  0  0  0  0  0
    4.4957   -9.2636   17.3041 C   0  0  0  0  0  0  0  0  0  0  0  0
   -1.8070   -5.6086   28.1920 O   0  0  0  0  0  0  0  0  0  0  0  0
   10.4296   -5.1799   28.3140 C   0  0  0  0  0  0  0  0  0  0  0  0
    6.6017   -5.9004   26.9187 C   0  0  0  0  0  0  0  0  0  0  0  0
    2.4761   -6.9940   26.4111 N   0  0  0  0  0  0  0  0  0  0  0  0
    9.1353   -5.4053   27.8239 C   0  0  0  0  0  0  0  0  0  0  0  0
    0.9922   -9.3232   16.5995 O   0  0  0  0  0  0  0  0  0  0  0  0
    1.5232   -7.6869   27.1182 C   0  0  0  0  0  0  0  0  0  0  0  0
    8.6878   -6.6715   27.7262 N   0  0  0  0  0  0  0  0  0  0  0  0
    6.9911   -8.2423   27.1808 C   0  0  0  0  0  0  0  0  0  0  0  0
    3.8436   -7.2758   16.0578 C   0  0  0  0  0  0  0  0  0  0  0  0
    3.1882   -9.7190   17.2566 C   0  0  0  0  0  0  0  0  0  0  0  0
    5.3488   -6.1737   26.5092 C   0  0  0  0  0  0  0  0  0  0  0  0
    7.4567   -6.9464   27.2858 C   0  0  0  0  0  0  0  0  0  0  0  0
    0.1921   -5.7592   27.1123 C   0  0  0  0  0  0  0  0  0  0  0  0
    3.5517   -7.7407   25.9711 C   0  0  0  0  0  0  0  0  0  0  0  0
  1  4  4  0
  1 22  4  0
  2 20  4  0
  2 27  4  0
  3 12  4  0
  3 23  4  0
  4 25  4  0
  4 28  1  0
  5  8  4  0
  5 17  4  0
  6  7  4  0
  6 16  4  0
  7 18  4  0
  8 27  4  0
  9 13  4  0
  9 23  4  0
 10 11  1  0
 11 14  2  0
 11 27  1  0
 12 19  1  0
 12 24  4  0
 13 24  4  0
 15 18  1  0
 16 25  4  0
 16 26  4  0
 17 20  4  0
 17 28  1  0
 18 21  4  0
 21 26  4  0
 22 26  4  0
M  END
$$$$

 Created by Python create_sdf_string function

 28 30  0  0  0  0  0  0  0  0999 V2000
    5.7174   -8.4529   26.7190 C   0  0  0  0  0  0  0  0  0  0  0  0
    0.3974   -7.0711   27.5149 C   0  0  0  0  0  0  0  0  0  0  0  0
    2.5338   -7.6891   16.0102 C   0  0  0  0  0  0  0  0  0  0  0  0
    4.8690   -7.4380   26.4151 C   0  0  0  0  0  0  0  0  0  0  0  0
    2.3021   -5.6726   26.0378 C   0  0  0  0  0  0  0  0  0  0  0  0
    7.0880   -4.6163   27.0010 C   0  0  0  0  0  0  0  0  0  0  0  0
    8.3117   -4.3698   27.4436 C   0  0  0  0  0  0  0  0  0  0  0  0
    1.1339   -5.0515   26.3541 C   0  0  0  0  0  0  0  0  0  0  0  0
    4.8080   -8.0362   16.7101 C   0  0  0  0  0  0  0  0  0  0  0  0
   -1.2173   -3.9294   26.9717 O   0  0  0  0  0  0  0  0  0  0  0  0
   -1.0025   -5.0942   27.4586 C   0  0  0  0  0  0  0  0  0  0  0  0
    2.2474   -8.9123   16.6273 C   0  0  0  0  0  0  0  0  0  0  0  0
    4.4957   -9.2636   17.3041 C   0  0  0  0  0  0  0  0  0  0  0  0
   -1.8070   -5.6086   28.1920 O   0  0  0  0  0  0  0  0  0  0  0  0
   10.4296   -5.1799   28.3140 C   0  0  0  0  0  0  0  0  0  0  0  0
    6.6017   -5.9004   26.9187 C   0  0  0  0  0  0  0  0  0  0  0  0
    2.4761   -6.9940   26.4111 N   0  0  0  0  0  0  0  0  0  0  0  0
    9.1353   -5.4053   27.8239 C   0  0  0  0  0  0  0  0  0  0  0  0
    0.9922   -9.3232   16.5995 O   0  0  0  0  0  0  0  0  0  0  0  0
    1.5232   -7.6869   27.1182 C   0  0  0  0  0  0  0  0  0  0  0  0
    8.6878   -6.6715   27.7262 N   0  0  0  0  0  0  0  0  0  0  0  0
    6.9911   -8.2423   27.1808 C   0  0  0  0  0  0  0  0  0  0  0  0
    3.8436   -7.2758   16.0578 C   0  0  0  0  0  0  0  0  0  0  0  0
    3.1882   -9.7190   17.2566 C   0  0  0  0  0  0  0  0  0  0  0  0
    5.3488   -6.1737   26.5092 C   0  0  0  0  0  0  0  0  0  0  0  0
    7.4567   -6.9464   27.2858 C   0  0  0  0  0  0  0  0  0  0  0  0
    0.1921   -5.7592   27.1123 C   0  0  0  0  0  0  0  0  0  0  0  0
    3.5517   -7.7407   25.9711 C   0  0  0  0  0  0  0  0  0  0  0  0
  1  4  4  0
  1 22  4  0
  2 20  4  0
  2 27  4  0
  3 12  4  0
  3 23  4  0
  4 25  4  0
  4 28  1  0
  5  8  4  0
  5 17  4  0
  6  7  4  0
  6 16  4  0
  7 18  4  0
  8 27  4  0
  9 13  4  0
  9 23  4  0
 10 11  1  0
 11 14  2  0
 11 27  1  0
 12 19  1  0
 12 24  4  0
 13 24  4  0
 15 18  1  0
 16 25  4  0
 16 26  4  0
 17 20  4  0
 17 28  1  0
 18 21  4  0
 21 26  4  0
 22 26  4  0
M  END
$$$$

 Created by Python create_sdf_string function

 28 30  0  0  0  0  0  0  0  0999 V2000
    5.7174   -8.4529   26.7190 C   0  0  0  0  0  0  0  0  0  0  0  0
    0.3974   -7.0711   27.5149 C   0  0  0  0  0  0  0  0  0  0  0  0
    2.5338   -7.6891   16.0102 C   0  0  0  0  0  0  0  0  0  0  0  0
    4.8690   -7.4380   26.4151 C   0  0  0  0  0  0  0  0  0  0  0  0
    2.3021   -5.6726   26.0378 C   0  0  0  0  0  0  0  0  0  0  0  0
    7.0880   -4.6163   27.0010 C   0  0  0  0  0  0  0  0  0  0  0  0
    8.3117   -4.3698   27.4436 C   0  0  0  0  0  0  0  0  0  0  0  0
    1.1339   -5.0515   26.3541 C   0  0  0  0  0  0  0  0  0  0  0  0
    4.8080   -8.0362   16.7101 C   0  0  0  0  0  0  0  0  0  0  0  0
   -1.2173   -3.9294   26.9717 O   0  0  0  0  0  0  0  0  0  0  0  0
   -1.0025   -5.0942   27.4586 C   0  0  0  0  0  0  0  0  0  0  0  0
    2.2474   -8.9123   16.6273 C   0  0  0  0  0  0  0  0  0  0  0  0
    4.4957   -9.2636   17.3041 C   0  0  0  0  0  0  0  0  0  0  0  0
   -1.8070   -5.6086   28.1920 O   0  0  0  0  0  0  0  0  0  0  0  0
   10.4296   -5.1799   28.3140 C   0  0  0  0  0  0  0  0  0  0  0  0
    6.6017   -5.9004   26.9187 C   0  0  0  0  0  0  0  0  0  0  0  0
    2.4761   -6.9940   26.4111 N   0  0  0  0  0  0  0  0  0  0  0  0
    9.1353   -5.4053   27.8239 C   0  0  0  0  0  0  0  0  0  0  0  0
    0.9922   -9.3232   16.5995 O   0  0  0  0  0  0  0  0  0  0  0  0
    1.5232   -7.6869   27.1182 C   0  0  0  0  0  0  0  0  0  0  0  0
    8.6878   -6.6715   27.7262 N   0  0  0  0  0  0  0  0  0  0  0  0
    6.9911   -8.2423   27.1808 C   0  0  0  0  0  0  0  0  0  0  0  0
    3.8436   -7.2758   16.0578 C   0  0  0  0  0  0  0  0  0  0  0  0
    3.1882   -9.7190   17.2566 C   0  0  0  0  0  0  0  0  0  0  0  0
    5.3488   -6.1737   26.5092 C   0  0  0  0  0  0  0  0  0  0  0  0
    7.4567   -6.9464   27.2858 C   0  0  0  0  0  0  0  0  0  0  0  0
    0.1921   -5.7592   27.1123 C   0  0  0  0  0  0  0  0  0  0  0  0
    3.5517   -7.7407   25.9711 C   0  0  0  0  0  0  0  0  0  0  0  0
  1  4  4  0
  1 22  4  0
  2 20  4  0
  2 27  4  0
  3 12  4  0
  3 23  4  0
  4 25  4  0
  4 28  1  0
  5  8  4  0
  5 17  4  0
  6  7  4  0
  6 16  4  0
  7 18  4  0
  8 27  4  0
  9 13  4  0
  9 23  4  0
 10 11  1  0
 11 14  2  0
 11 27  1  0
 12 19  1  0
 12 24  4  0
 13 24  4  0
 15 18  1  0
 16 25  4  0
 16 26  4  0
 17 20  4  0
 17 28  1  0
 18 21  4  0
 21 26  4  0
 22 26  4  0
M  END
$$$$

 Created by Python create_sdf_string function

 28 30  0  0  0  0  0  0  0  0999 V2000
    5.7174   -8.4529   26.7190 C   0  0  0  0  0  0  0  0  0  0  0  0
    0.3974   -7.0711   27.5149 C   0  0  0  0  0  0  0  0  0  0  0  0
    2.5338   -7.6891   16.0102 C   0  0  0  0  0  0  0  0  0  0  0  0
    4.8690   -7.4380   26.4151 C   0  0  0  0  0  0  0  0  0  0  0  0
    2.3021   -5.6726   26.0378 C   0  0  0  0  0  0  0  0  0  0  0  0
    7.0880   -4.6163   27.0010 C   0  0  0  0  0  0  0  0  0  0  0  0
    8.3117   -4.3698   27.4436 C   0  0  0  0  0  0  0  0  0  0  0  0
    1.1339   -5.0515   26.3541 C   0  0  0  0  0  0  0  0  0  0  0  0
    4.8080   -8.0362   16.7101 C   0  0  0  0  0  0  0  0  0  0  0  0
   -1.2173   -3.9294   26.9717 O   0  0  0  0  0  0  0  0  0  0  0  0
   -1.0025   -5.0942   27.4586 C   0  0  0  0  0  0  0  0  0  0  0  0
    2.2474   -8.9123   16.6273 C   0  0  0  0  0  0  0  0  0  0  0  0
    4.4957   -9.2636   17.3041 C   0  0  0  0  0  0  0  0  0  0  0  0
   -1.8070   -5.6086   28.1920 O   0  0  0  0  0  0  0  0  0  0  0  0
   10.4296   -5.1799   28.3140 C   0  0  0  0  0  0  0  0  0  0  0  0
    6.6017   -5.9004   26.9187 C   0  0  0  0  0  0  0  0  0  0  0  0
    2.4761   -6.9940   26.4111 N   0  0  0  0  0  0  0  0  0  0  0  0
    9.1353   -5.4053   27.8239 C   0  0  0  0  0  0  0  0  0  0  0  0
    0.9922   -9.3232   16.5995 O   0  0  0  0  0  0  0  0  0  0  0  0
    1.5232   -7.6869   27.1182 C   0  0  0  0  0  0  0  0  0  0  0  0
    8.6878   -6.6715   27.7262 N   0  0  0  0  0  0  0  0  0  0  0  0
    6.9911   -8.2423   27.1808 C   0  0  0  0  0  0  0  0  0  0  0  0
    3.8436   -7.2758   16.0578 C   0  0  0  0  0  0  0  0  0  0  0  0
    3.1882   -9.7190   17.2566 C   0  0  0  0  0  0  0  0  0  0  0  0
    5.3488   -6.1737   26.5092 C   0  0  0  0  0  0  0  0  0  0  0  0
    7.4567   -6.9464   27.2858 C   0  0  0  0  0  0  0  0  0  0  0  0
    0.1921   -5.7592   27.1123 C   0  0  0  0  0  0  0  0  0  0  0  0
    3.5517   -7.7407   25.9711 C   0  0  0  0  0  0  0  0  0  0  0  0
  1  4  4  0
  1 22  4  0
  2 20  4  0
  2 27  4  0
  3 12  4  0
  3 23  4  0
  4 25  4  0
  4 28  1  0
  5  8  4  0
  5 17  4  0
  6  7  4  0
  6 16  4  0
  7 18  4  0
  8 27  4  0
  9 13  4  0
  9 23  4  0
 10 11  1  0
 11 14  2  0
 11 27  1  0
 12 19  1  0
 12 24  4  0
 13 24  4  0
 15 18  1  0
 16 25  4  0
 16 26  4  0
 17 20  4  0
 17 28  1  0
 18 21  4  0
 21 26  4  0
 22 26  4  0
M  END
$$$$

 Created by Python create_sdf_string function

 28 30  0  0  0  0  0  0  0  0999 V2000
    5.7174   -8.4529   26.7190 C   0  0  0  0  0  0  0  0  0  0  0  0
    0.3974   -7.0711   27.5149 C   0  0  0  0  0  0  0  0  0  0  0  0
    2.5338   -7.6891   16.0102 C   0  0  0  0  0  0  0  0  0  0  0  0
    4.8690   -7.4380   26.4151 C   0  0  0  0  0  0  0  0  0  0  0  0
    2.3021   -5.6726   26.0378 C   0  0  0  0  0  0  0  0  0  0  0  0
    7.0880   -4.6163   27.0010 C   0  0  0  0  0  0  0  0  0  0  0  0
    8.3117   -4.3698   27.4436 C   0  0  0  0  0  0  0  0  0  0  0  0
    1.1339   -5.0515   26.3541 C   0  0  0  0  0  0  0  0  0  0  0  0
    4.8080   -8.0362   16.7101 C   0  0  0  0  0  0  0  0  0  0  0  0
   -1.2173   -3.9294   26.9717 O   0  0  0  0  0  0  0  0  0  0  0  0
   -1.0025   -5.0942   27.4586 C   0  0  0  0  0  0  0  0  0  0  0  0
    2.2474   -8.9123   16.6273 C   0  0  0  0  0  0  0  0  0  0  0  0
    4.4957   -9.2636   17.3041 C   0  0  0  0  0  0  0  0  0  0  0  0
   -1.8070   -5.6086   28.1920 O   0  0  0  0  0  0  0  0  0  0  0  0
   10.4296   -5.1799   28.3140 C   0  0  0  0  0  0  0  0  0  0  0  0
    6.6017   -5.9004   26.9187 C   0  0  0  0  0  0  0  0  0  0  0  0
    2.4761   -6.9940   26.4111 N   0  0  0  0  0  0  0  0  0  0  0  0
    9.1353   -5.4053   27.8239 C   0  0  0  0  0  0  0  0  0  0  0  0
    0.9922   -9.3232   16.5995 O   0  0  0  0  0  0  0  0  0  0  0  0
    1.5232   -7.6869   27.1182 C   0  0  0  0  0  0  0  0  0  0  0  0
    8.6878   -6.6715   27.7262 N   0  0  0  0  0  0  0  0  0  0  0  0
    6.9911   -8.2423   27.1808 C   0  0  0  0  0  0  0  0  0  0  0  0
    3.8436   -7.2758   16.0578 C   0  0  0  0  0  0  0  0  0  0  0  0
    3.1882   -9.7190   17.2566 C   0  0  0  0  0  0  0  0  0  0  0  0
    5.3488   -6.1737   26.5092 C   0  0  0  0  0  0  0  0  0  0  0  0
    7.4567   -6.9464   27.2858 C   0  0  0  0  0  0  0  0  0  0  0  0
    0.1921   -5.7592   27.1123 C   0  0  0  0  0  0  0  0  0  0  0  0
    3.5517   -7.7407   25.9711 C   0  0  0  0  0  0  0  0  0  0  0  0
  1  4  4  0
  1 22  4  0
  2 20  4  0
  2 27  4  0
  3 12  4  0
  3 23  4  0
  4 25  4  0
  4 28  1  0
  5  8  4  0
  5 17  4  0
  6  7  4  0
  6 16  4  0
  7 18  4  0
  8 27  4  0
  9 13  4  0
  9 23  4  0
 10 11  1  0
 11 14  2  0
 11 27  1  0
 12 19  1  0
 12 24  4  0
 13 24  4  0
 15 18  1  0
 16 25  4  0
 16 26  4  0
 17 20  4  0
 17 28  1  0
 18 21  4  0
 21 26  4  0
 22 26  4  0
M  END
$$$$

 Created by Python create_sdf_string function

 28 30  0  0  0  0  0  0  0  0999 V2000
    5.7174   -8.4529   26.7190 C   0  0  0  0  0  0  0  0  0  0  0  0
    0.3974   -7.0711   27.5149 C   0  0  0  0  0  0  0  0  0  0  0  0
    2.5338   -7.6891   16.0102 C   0  0  0  0  0  0  0  0  0  0  0  0
    4.8690   -7.4380   26.4151 C   0  0  0  0  0  0  0  0  0  0  0  0
    2.3021   -5.6726   26.0378 C   0  0  0  0  0  0  0  0  0  0  0  0
    7.0880   -4.6163   27.0010 C   0  0  0  0  0  0  0  0  0  0  0  0
    8.3117   -4.3698   27.4436 C   0  0  0  0  0  0  0  0  0  0  0  0
    1.1339   -5.0515   26.3541 C   0  0  0  0  0  0  0  0  0  0  0  0
    4.8080   -8.0362   16.7101 C   0  0  0  0  0  0  0  0  0  0  0  0
   -1.2173   -3.9294   26.9717 O   0  0  0  0  0  0  0  0  0  0  0  0
   -1.0025   -5.0942   27.4586 C   0  0  0  0  0  0  0  0  0  0  0  0
    2.2474   -8.9123   16.6273 C   0  0  0  0  0  0  0  0  0  0  0  0
    4.4957   -9.2636   17.3041 C   0  0  0  0  0  0  0  0  0  0  0  0
   -1.8070   -5.6086   28.1920 O   0  0  0  0  0  0  0  0  0  0  0  0
   10.4296   -5.1799   28.3140 C   0  0  0  0  0  0  0  0  0  0  0  0
    6.6017   -5.9004   26.9187 C   0  0  0  0  0  0  0  0  0  0  0  0
    2.4761   -6.9940   26.4111 N   0  0  0  0  0  0  0  0  0  0  0  0
    9.1353   -5.4053   27.8239 C   0  0  0  0  0  0  0  0  0  0  0  0
    0.9922   -9.3232   16.5995 O   0  0  0  0  0  0  0  0  0  0  0  0
    1.5232   -7.6869   27.1182 C   0  0  0  0  0  0  0  0  0  0  0  0
    8.6878   -6.6715   27.7262 N   0  0  0  0  0  0  0  0  0  0  0  0
    6.9911   -8.2423   27.1808 C   0  0  0  0  0  0  0  0  0  0  0  0
    3.8436   -7.2758   16.0578 C   0  0  0  0  0  0  0  0  0  0  0  0
    3.1882   -9.7190   17.2566 C   0  0  0  0  0  0  0  0  0  0  0  0
    5.3488   -6.1737   26.5092 C   0  0  0  0  0  0  0  0  0  0  0  0
    7.4567   -6.9464   27.2858 C   0  0  0  0  0  0  0  0  0  0  0  0
    0.1921   -5.7592   27.1123 C   0  0  0  0  0  0  0  0  0  0  0  0
    3.5517   -7.7407   25.9711 C   0  0  0  0  0  0  0  0  0  0  0  0
  1  4  4  0
  1 22  4  0
  2 20  4  0
  2 27  4  0
  3 12  4  0
  3 23  4  0
  4 25  4  0
  4 28  1  0
  5  8  4  0
  5 17  4  0
  6  7  4  0
  6 16  4  0
  7 18  4  0
  8 27  4  0
  9 13  4  0
  9 23  4  0
 10 11  1  0
 11 14  2  0
 11 27  1  0
 12 19  1  0
 12 24  4  0
 13 24  4  0
 15 18  1  0
 16 25  4  0
 16 26  4  0
 17 20  4  0
 17 28  1  0
 18 21  4  0
 21 26  4  0
 22 26  4  0
M  END
$$$$

 Created by Python create_sdf_string function

 28 30  0  0  0  0  0  0  0  0999 V2000
    5.7174   -8.4529   26.7190 C   0  0  0  0  0  0  0  0  0  0  0  0
    0.3974   -7.0711   27.5149 C   0  0  0  0  0  0  0  0  0  0  0  0
    2.5338   -7.6891   16.0102 C   0  0  0  0  0  0  0  0  0  0  0  0
    4.8690   -7.4380   26.4151 C   0  0  0  0  0  0  0  0  0  0  0  0
    2.3021   -5.6726   26.0378 C   0  0  0  0  0  0  0  0  0  0  0  0
    7.0880   -4.6163   27.0010 C   0  0  0  0  0  0  0  0  0  0  0  0
    8.3117   -4.3698   27.4436 C   0  0  0  0  0  0  0  0  0  0  0  0
    1.1339   -5.0515   26.3541 C   0  0  0  0  0  0  0  0  0  0  0  0
    4.8080   -8.0362   16.7101 C   0  0  0  0  0  0  0  0  0  0  0  0
   -1.2173   -3.9294   26.9717 O   0  0  0  0  0  0  0  0  0  0  0  0
   -1.0025   -5.0942   27.4586 C   0  0  0  0  0  0  0  0  0  0  0  0
    2.2474   -8.9123   16.6273 C   0  0  0  0  0  0  0  0  0  0  0  0
    4.4957   -9.2636   17.3041 C   0  0  0  0  0  0  0  0  0  0  0  0
   -1.8070   -5.6086   28.1920 O   0  0  0  0  0  0  0  0  0  0  0  0
   10.4296   -5.1799   28.3140 C   0  0  0  0  0  0  0  0  0  0  0  0
    6.6017   -5.9004   26.9187 C   0  0  0  0  0  0  0  0  0  0  0  0
    2.4761   -6.9940   26.4111 N   0  0  0  0  0  0  0  0  0  0  0  0
    9.1353   -5.4053   27.8239 C   0  0  0  0  0  0  0  0  0  0  0  0
    0.9922   -9.3232   16.5995 O   0  0  0  0  0  0  0  0  0  0  0  0
    1.5232   -7.6869   27.1182 C   0  0  0  0  0  0  0  0  0  0  0  0
    8.6878   -6.6715   27.7262 N   0  0  0  0  0  0  0  0  0  0  0  0
    6.9911   -8.2423   27.1808 C   0  0  0  0  0  0  0  0  0  0  0  0
    3.8436   -7.2758   16.0578 C   0  0  0  0  0  0  0  0  0  0  0  0
    3.1882   -9.7190   17.2566 C   0  0  0  0  0  0  0  0  0  0  0  0
    5.3488   -6.1737   26.5092 C   0  0  0  0  0  0  0  0  0  0  0  0
    7.4567   -6.9464   27.2858 C   0  0  0  0  0  0  0  0  0  0  0  0
    0.1921   -5.7592   27.1123 C   0  0  0  0  0  0  0  0  0  0  0  0
    3.5517   -7.7407   25.9711 C   0  0  0  0  0  0  0  0  0  0  0  0
  1  4  4  0
  1 22  4  0
  2 20  4  0
  2 27  4  0
  3 12  4  0
  3 23  4  0
  4 25  4  0
  4 28  1  0
  5  8  4  0
  5 17  4  0
  6  7  4  0
  6 16  4  0
  7 18  4  0
  8 27  4  0
  9 13  4  0
  9 23  4  0
 10 11  1  0
 11 14  2  0
 11 27  1  0
 12 19  1  0
 12 24  4  0
 13 24  4  0
 15 18  1  0
 16 25  4  0
 16 26  4  0
 17 20  4  0
 17 28  1  0
 18 21  4  0
 21 26  4  0
 22 26  4  0
M  END
$$$$

 Created by Python create_sdf_string function

 28 30  0  0  0  0  0  0  0  0999 V2000
    5.7174   -8.4529   26.7190 C   0  0  0  0  0  0  0  0  0  0  0  0
    0.3974   -7.0711   27.5149 C   0  0  0  0  0  0  0  0  0  0  0  0
    2.5338   -7.6891   16.0102 C   0  0  0  0  0  0  0  0  0  0  0  0
    4.8690   -7.4380   26.4151 C   0  0  0  0  0  0  0  0  0  0  0  0
    2.3021   -5.6726   26.0378 C   0  0  0  0  0  0  0  0  0  0  0  0
    7.0880   -4.6163   27.0010 C   0  0  0  0  0  0  0  0  0  0  0  0
    8.3117   -4.3698   27.4436 C   0  0  0  0  0  0  0  0  0  0  0  0
    1.1339   -5.0515   26.3541 C   0  0  0  0  0  0  0  0  0  0  0  0
    4.8080   -8.0362   16.7101 C   0  0  0  0  0  0  0  0  0  0  0  0
   -1.2173   -3.9294   26.9717 O   0  0  0  0  0  0  0  0  0  0  0  0
   -1.0025   -5.0942   27.4586 C   0  0  0  0  0  0  0  0  0  0  0  0
    2.2474   -8.9123   16.6273 C   0  0  0  0  0  0  0  0  0  0  0  0
    4.4957   -9.2636   17.3041 C   0  0  0  0  0  0  0  0  0  0  0  0
   -1.8070   -5.6086   28.1920 O   0  0  0  0  0  0  0  0  0  0  0  0
   10.4296   -5.1799   28.3140 C   0  0  0  0  0  0  0  0  0  0  0  0
    6.6017   -5.9004   26.9187 C   0  0  0  0  0  0  0  0  0  0  0  0
    2.4761   -6.9940   26.4111 N   0  0  0  0  0  0  0  0  0  0  0  0
    9.1353   -5.4053   27.8239 C   0  0  0  0  0  0  0  0  0  0  0  0
    0.9922   -9.3232   16.5995 O   0  0  0  0  0  0  0  0  0  0  0  0
    1.5232   -7.6869   27.1182 C   0  0  0  0  0  0  0  0  0  0  0  0
    8.6878   -6.6715   27.7262 N   0  0  0  0  0  0  0  0  0  0  0  0
    6.9911   -8.2423   27.1808 C   0  0  0  0  0  0  0  0  0  0  0  0
    3.8436   -7.2758   16.0578 C   0  0  0  0  0  0  0  0  0  0  0  0
    3.1882   -9.7190   17.2566 C   0  0  0  0  0  0  0  0  0  0  0  0
    5.3488   -6.1737   26.5092 C   0  0  0  0  0  0  0  0  0  0  0  0
    7.4567   -6.9464   27.2858 C   0  0  0  0  0  0  0  0  0  0  0  0
    0.1921   -5.7592   27.1123 C   0  0  0  0  0  0  0  0  0  0  0  0
    3.5517   -7.7407   25.9711 C   0  0  0  0  0  0  0  0  0  0  0  0
  1  4  4  0
  1 22  4  0
  2 20  4  0
  2 27  4  0
  3 12  4  0
  3 23  4  0
  4 25  4  0
  4 28  1  0
  5  8  4  0
  5 17  4  0
  6  7  4  0
  6 16  4  0
  7 18  4  0
  8 27  4  0
  9 13  4  0
  9 23  4  0
 10 11  1  0
 11 14  2  0
 11 27  1  0
 12 19  1  0
 12 24  4  0
 13 24  4  0
 15 18  1  0
 16 25  4  0
 16 26  4  0
 17 20  4  0
 17 28  1  0
 18 21  4  0
 21 26  4  0
 22 26  4  0
M  END
$$$$

 Created by Python create_sdf_string function

 28 30  0  0  0  0  0  0  0  0999 V2000
    5.7174   -8.4529   26.7190 C   0  0  0  0  0  0  0  0  0  0  0  0
    0.3974   -7.0711   27.5149 C   0  0  0  0  0  0  0  0  0  0  0  0
    2.5338   -7.6891   16.0102 C   0  0  0  0  0  0  0  0  0  0  0  0
    4.8690   -7.4380   26.4151 C   0  0  0  0  0  0  0  0  0  0  0  0
    2.3021   -5.6726   26.0378 C   0  0  0  0  0  0  0  0  0  0  0  0
    7.0880   -4.6163   27.0010 C   0  0  0  0  0  0  0  0  0  0  0  0
    8.3117   -4.3698   27.4436 C   0  0  0  0  0  0  0  0  0  0  0  0
    1.1339   -5.0515   26.3541 C   0  0  0  0  0  0  0  0  0  0  0  0
    4.8080   -8.0362   16.7101 C   0  0  0  0  0  0  0  0  0  0  0  0
   -1.2173   -3.9294   26.9717 O   0  0  0  0  0  0  0  0  0  0  0  0
   -1.0025   -5.0942   27.4586 C   0  0  0  0  0  0  0  0  0  0  0  0
    2.2474   -8.9123   16.6273 C   0  0  0  0  0  0  0  0  0  0  0  0
    4.4957   -9.2636   17.3041 C   0  0  0  0  0  0  0  0  0  0  0  0
   -1.8070   -5.6086   28.1920 O   0  0  0  0  0  0  0  0  0  0  0  0
   10.4296   -5.1799   28.3140 C   0  0  0  0  0  0  0  0  0  0  0  0
    6.6017   -5.9004   26.9187 C   0  0  0  0  0  0  0  0  0  0  0  0
    2.4761   -6.9940   26.4111 N   0  0  0  0  0  0  0  0  0  0  0  0
    9.1353   -5.4053   27.8239 C   0  0  0  0  0  0  0  0  0  0  0  0
    0.9922   -9.3232   16.5995 O   0  0  0  0  0  0  0  0  0  0  0  0
    1.5232   -7.6869   27.1182 C   0  0  0  0  0  0  0  0  0  0  0  0
    8.6878   -6.6715   27.7262 N   0  0  0  0  0  0  0  0  0  0  0  0
    6.9911   -8.2423   27.1808 C   0  0  0  0  0  0  0  0  0  0  0  0
    3.8436   -7.2758   16.0578 C   0  0  0  0  0  0  0  0  0  0  0  0
    3.1882   -9.7190   17.2566 C   0  0  0  0  0  0  0  0  0  0  0  0
    5.3488   -6.1737   26.5092 C   0  0  0  0  0  0  0  0  0  0  0  0
    7.4567   -6.9464   27.2858 C   0  0  0  0  0  0  0  0  0  0  0  0
    0.1921   -5.7592   27.1123 C   0  0  0  0  0  0  0  0  0  0  0  0
    3.5517   -7.7407   25.9711 C   0  0  0  0  0  0  0  0  0  0  0  0
  1  4  4  0
  1 22  4  0
  2 20  4  0
  2 27  4  0
  3 12  4  0
  3 23  4  0
  4 25  4  0
  4 28  1  0
  5  8  4  0
  5 17  4  0
  6  7  4  0
  6 16  4  0
  7 18  4  0
  8 27  4  0
  9 13  4  0
  9 23  4  0
 10 11  1  0
 11 14  2  0
 11 27  1  0
 12 19  1  0
 12 24  4  0
 13 24  4  0
 15 18  1  0
 16 25  4  0
 16 26  4  0
 17 20  4  0
 17 28  1  0
 18 21  4  0
 21 26  4  0
 22 26  4  0
M  END
$$$$

 Created by Python create_sdf_string function

 28 30  0  0  0  0  0  0  0  0999 V2000
    5.7174   -8.4529   26.7190 C   0  0  0  0  0  0  0  0  0  0  0  0
    0.3974   -7.0711   27.5149 C   0  0  0  0  0  0  0  0  0  0  0  0
    2.5338   -7.6891   16.0102 C   0  0  0  0  0  0  0  0  0  0  0  0
    4.8690   -7.4380   26.4151 C   0  0  0  0  0  0  0  0  0  0  0  0
    2.3021   -5.6726   26.0378 C   0  0  0  0  0  0  0  0  0  0  0  0
    7.0880   -4.6163   27.0010 C   0  0  0  0  0  0  0  0  0  0  0  0
    8.3117   -4.3698   27.4436 C   0  0  0  0  0  0  0  0  0  0  0  0
    1.1339   -5.0515   26.3541 C   0  0  0  0  0  0  0  0  0  0  0  0
    4.8080   -8.0362   16.7101 C   0  0  0  0  0  0  0  0  0  0  0  0
   -1.2173   -3.9294   26.9717 O   0  0  0  0  0  0  0  0  0  0  0  0
   -1.0025   -5.0942   27.4586 C   0  0  0  0  0  0  0  0  0  0  0  0
    2.2474   -8.9123   16.6273 C   0  0  0  0  0  0  0  0  0  0  0  0
    4.4957   -9.2636   17.3041 C   0  0  0  0  0  0  0  0  0  0  0  0
   -1.8070   -5.6086   28.1920 O   0  0  0  0  0  0  0  0  0  0  0  0
   10.4296   -5.1799   28.3140 C   0  0  0  0  0  0  0  0  0  0  0  0
    6.6017   -5.9004   26.9187 C   0  0  0  0  0  0  0  0  0  0  0  0
    2.4761   -6.9940   26.4111 N   0  0  0  0  0  0  0  0  0  0  0  0
    9.1353   -5.4053   27.8239 C   0  0  0  0  0  0  0  0  0  0  0  0
    0.9922   -9.3232   16.5995 O   0  0  0  0  0  0  0  0  0  0  0  0
    1.5232   -7.6869   27.1182 C   0  0  0  0  0  0  0  0  0  0  0  0
    8.6878   -6.6715   27.7262 N   0  0  0  0  0  0  0  0  0  0  0  0
    6.9911   -8.2423   27.1808 C   0  0  0  0  0  0  0  0  0  0  0  0
    3.8436   -7.2758   16.0578 C   0  0  0  0  0  0  0  0  0  0  0  0
    3.1882   -9.7190   17.2566 C   0  0  0  0  0  0  0  0  0  0  0  0
    5.3488   -6.1737   26.5092 C   0  0  0  0  0  0  0  0  0  0  0  0
    7.4567   -6.9464   27.2858 C   0  0  0  0  0  0  0  0  0  0  0  0
    0.1921   -5.7592   27.1123 C   0  0  0  0  0  0  0  0  0  0  0  0
    3.5517   -7.7407   25.9711 C   0  0  0  0  0  0  0  0  0  0  0  0
  1  4  4  0
  1 22  4  0
  2 20  4  0
  2 27  4  0
  3 12  4  0
  3 23  4  0
  4 25  4  0
  4 28  1  0
  5  8  4  0
  5 17  4  0
  6  7  4  0
  6 16  4  0
  7 18  4  0
  8 27  4  0
  9 13  4  0
  9 23  4  0
 10 11  1  0
 11 14  2  0
 11 27  1  0
 12 19  1  0
 12 24  4  0
 13 24  4  0
 15 18  1  0
 16 25  4  0
 16 26  4  0
 17 20  4  0
 17 28  1  0
 18 21  4  0
 21 26  4  0
 22 26  4  0
M  END
$$$$

 Created by Python create_sdf_string function

 28 30  0  0  0  0  0  0  0  0999 V2000
    5.7174   -8.4529   26.7190 C   0  0  0  0  0  0  0  0  0  0  0  0
    0.3974   -7.0711   27.5149 C   0  0  0  0  0  0  0  0  0  0  0  0
    2.5338   -7.6891   16.0102 C   0  0  0  0  0  0  0  0  0  0  0  0
    4.8690   -7.4380   26.4151 C   0  0  0  0  0  0  0  0  0  0  0  0
    2.3021   -5.6726   26.0378 C   0  0  0  0  0  0  0  0  0  0  0  0
    7.0880   -4.6163   27.0010 C   0  0  0  0  0  0  0  0  0  0  0  0
    8.3117   -4.3698   27.4436 C   0  0  0  0  0  0  0  0  0  0  0  0
    1.1339   -5.0515   26.3541 C   0  0  0  0  0  0  0  0  0  0  0  0
    4.8080   -8.0362   16.7101 C   0  0  0  0  0  0  0  0  0  0  0  0
   -1.2173   -3.9294   26.9717 O   0  0  0  0  0  0  0  0  0  0  0  0
   -1.0025   -5.0942   27.4586 C   0  0  0  0  0  0  0  0  0  0  0  0
    2.2474   -8.9123   16.6273 C   0  0  0  0  0  0  0  0  0  0  0  0
    4.4957   -9.2636   17.3041 C   0  0  0  0  0  0  0  0  0  0  0  0
   -1.8070   -5.6086   28.1920 O   0  0  0  0  0  0  0  0  0  0  0  0
   10.4296   -5.1799   28.3140 C   0  0  0  0  0  0  0  0  0  0  0  0
    6.6017   -5.9004   26.9187 C   0  0  0  0  0  0  0  0  0  0  0  0
    2.4761   -6.9940   26.4111 N   0  0  0  0  0  0  0  0  0  0  0  0
    9.1353   -5.4053   27.8239 C   0  0  0  0  0  0  0  0  0  0  0  0
    0.9922   -9.3232   16.5995 O   0  0  0  0  0  0  0  0  0  0  0  0
    1.5232   -7.6869   27.1182 C   0  0  0  0  0  0  0  0  0  0  0  0
    8.6878   -6.6715   27.7262 N   0  0  0  0  0  0  0  0  0  0  0  0
    6.9911   -8.2423   27.1808 C   0  0  0  0  0  0  0  0  0  0  0  0
    3.8436   -7.2758   16.0578 C   0  0  0  0  0  0  0  0  0  0  0  0
    3.1882   -9.7190   17.2566 C   0  0  0  0  0  0  0  0  0  0  0  0
    5.3488   -6.1737   26.5092 C   0  0  0  0  0  0  0  0  0  0  0  0
    7.4567   -6.9464   27.2858 C   0  0  0  0  0  0  0  0  0  0  0  0
    0.1921   -5.7592   27.1123 C   0  0  0  0  0  0  0  0  0  0  0  0
    3.5517   -7.7407   25.9711 C   0  0  0  0  0  0  0  0  0  0  0  0
  1  4  4  0
  1 22  4  0
  2 20  4  0
  2 27  4  0
  3 12  4  0
  3 23  4  0
  4 25  4  0
  4 28  1  0
  5  8  4  0
  5 17  4  0
  6  7  4  0
  6 16  4  0
  7 18  4  0
  8 27  4  0
  9 13  4  0
  9 23  4  0
 10 11  1  0
 11 14  2  0
 11 27  1  0
 12 19  1  0
 12 24  4  0
 13 24  4  0
 15 18  1  0
 16 25  4  0
 16 26  4  0
 17 20  4  0
 17 28  1  0
 18 21  4  0
 21 26  4  0
 22 26  4  0
M  END
$$$$

 Created by Python create_sdf_string function

 28 30  0  0  0  0  0  0  0  0999 V2000
    5.7174   -8.4529   26.7190 C   0  0  0  0  0  0  0  0  0  0  0  0
    0.3974   -7.0711   27.5149 C   0  0  0  0  0  0  0  0  0  0  0  0
    2.5338   -7.6891   16.0102 C   0  0  0  0  0  0  0  0  0  0  0  0
    4.8690   -7.4380   26.4151 C   0  0  0  0  0  0  0  0  0  0  0  0
    2.3021   -5.6726   26.0378 C   0  0  0  0  0  0  0  0  0  0  0  0
    7.0880   -4.6163   27.0010 C   0  0  0  0  0  0  0  0  0  0  0  0
    8.3117   -4.3698   27.4436 C   0  0  0  0  0  0  0  0  0  0  0  0
    1.1339   -5.0515   26.3541 C   0  0  0  0  0  0  0  0  0  0  0  0
    4.8080   -8.0362   16.7101 C   0  0  0  0  0  0  0  0  0  0  0  0
   -1.2173   -3.9294   26.9717 O   0  0  0  0  0  0  0  0  0  0  0  0
   -1.0025   -5.0942   27.4586 C   0  0  0  0  0  0  0  0  0  0  0  0
    2.2474   -8.9123   16.6273 C   0  0  0  0  0  0  0  0  0  0  0  0
    4.4957   -9.2636   17.3041 C   0  0  0  0  0  0  0  0  0  0  0  0
   -1.8070   -5.6086   28.1920 O   0  0  0  0  0  0  0  0  0  0  0  0
   10.4296   -5.1799   28.3140 C   0  0  0  0  0  0  0  0  0  0  0  0
    6.6017   -5.9004   26.9187 C   0  0  0  0  0  0  0  0  0  0  0  0
    2.4761   -6.9940   26.4111 N   0  0  0  0  0  0  0  0  0  0  0  0
    9.1353   -5.4053   27.8239 C   0  0  0  0  0  0  0  0  0  0  0  0
    0.9922   -9.3232   16.5995 O   0  0  0  0  0  0  0  0  0  0  0  0
    1.5232   -7.6869   27.1182 C   0  0  0  0  0  0  0  0  0  0  0  0
    8.6878   -6.6715   27.7262 N   0  0  0  0  0  0  0  0  0  0  0  0
    6.9911   -8.2423   27.1808 C   0  0  0  0  0  0  0  0  0  0  0  0
    3.8436   -7.2758   16.0578 C   0  0  0  0  0  0  0  0  0  0  0  0
    3.1882   -9.7190   17.2566 C   0  0  0  0  0  0  0  0  0  0  0  0
    5.3488   -6.1737   26.5092 C   0  0  0  0  0  0  0  0  0  0  0  0
    7.4567   -6.9464   27.2858 C   0  0  0  0  0  0  0  0  0  0  0  0
    0.1921   -5.7592   27.1123 C   0  0  0  0  0  0  0  0  0  0  0  0
    3.5517   -7.7407   25.9711 C   0  0  0  0  0  0  0  0  0  0  0  0
  1  4  4  0
  1 22  4  0
  2 20  4  0
  2 27  4  0
  3 12  4  0
  3 23  4  0
  4 25  4  0
  4 28  1  0
  5  8  4  0
  5 17  4  0
  6  7  4  0
  6 16  4  0
  7 18  4  0
  8 27  4  0
  9 13  4  0
  9 23  4  0
 10 11  1  0
 11 14  2  0
 11 27  1  0
 12 19  1  0
 12 24  4  0
 13 24  4  0
 15 18  1  0
 16 25  4  0
 16 26  4  0
 17 20  4  0
 17 28  1  0
 18 21  4  0
 21 26  4  0
 22 26  4  0
M  END
$$$$

 Created by Python create_sdf_string function

 28 30  0  0  0  0  0  0  0  0999 V2000
    5.7174   -8.4529   26.7190 C   0  0  0  0  0  0  0  0  0  0  0  0
    0.3974   -7.0711   27.5149 C   0  0  0  0  0  0  0  0  0  0  0  0
    2.5338   -7.6891   16.0102 C   0  0  0  0  0  0  0  0  0  0  0  0
    4.8690   -7.4380   26.4151 C   0  0  0  0  0  0  0  0  0  0  0  0
    2.3021   -5.6726   26.0378 C   0  0  0  0  0  0  0  0  0  0  0  0
    7.0880   -4.6163   27.0010 C   0  0  0  0  0  0  0  0  0  0  0  0
    8.3117   -4.3698   27.4436 C   0  0  0  0  0  0  0  0  0  0  0  0
    1.1339   -5.0515   26.3541 C   0  0  0  0  0  0  0  0  0  0  0  0
    4.8080   -8.0362   16.7101 C   0  0  0  0  0  0  0  0  0  0  0  0
   -1.2173   -3.9294   26.9717 O   0  0  0  0  0  0  0  0  0  0  0  0
   -1.0025   -5.0942   27.4586 C   0  0  0  0  0  0  0  0  0  0  0  0
    2.2474   -8.9123   16.6273 C   0  0  0  0  0  0  0  0  0  0  0  0
    4.4957   -9.2636   17.3041 C   0  0  0  0  0  0  0  0  0  0  0  0
   -1.8070   -5.6086   28.1920 O   0  0  0  0  0  0  0  0  0  0  0  0
   10.4296   -5.1799   28.3140 C   0  0  0  0  0  0  0  0  0  0  0  0
    6.6017   -5.9004   26.9187 C   0  0  0  0  0  0  0  0  0  0  0  0
    2.4761   -6.9940   26.4111 N   0  0  0  0  0  0  0  0  0  0  0  0
    9.1353   -5.4053   27.8239 C   0  0  0  0  0  0  0  0  0  0  0  0
    0.9922   -9.3232   16.5995 O   0  0  0  0  0  0  0  0  0  0  0  0
    1.5232   -7.6869   27.1182 C   0  0  0  0  0  0  0  0  0  0  0  0
    8.6878   -6.6715   27.7262 N   0  0  0  0  0  0  0  0  0  0  0  0
    6.9911   -8.2423   27.1808 C   0  0  0  0  0  0  0  0  0  0  0  0
    3.8436   -7.2758   16.0578 C   0  0  0  0  0  0  0  0  0  0  0  0
    3.1882   -9.7190   17.2566 C   0  0  0  0  0  0  0  0  0  0  0  0
    5.3488   -6.1737   26.5092 C   0  0  0  0  0  0  0  0  0  0  0  0
    7.4567   -6.9464   27.2858 C   0  0  0  0  0  0  0  0  0  0  0  0
    0.1921   -5.7592   27.1123 C   0  0  0  0  0  0  0  0  0  0  0  0
    3.5517   -7.7407   25.9711 C   0  0  0  0  0  0  0  0  0  0  0  0
  1  4  4  0
  1 22  4  0
  2 20  4  0
  2 27  4  0
  3 12  4  0
  3 23  4  0
  4 25  4  0
  4 28  1  0
  5  8  4  0
  5 17  4  0
  6  7  4  0
  6 16  4  0
  7 18  4  0
  8 27  4  0
  9 13  4  0
  9 23  4  0
 10 11  1  0
 11 14  2  0
 11 27  1  0
 12 19  1  0
 12 24  4  0
 13 24  4  0
 15 18  1  0
 16 25  4  0
 16 26  4  0
 17 20  4  0
 17 28  1  0
 18 21  4  0
 21 26  4  0
 22 26  4  0
M  END
$$$$

 Created by Python create_sdf_string function

 28 30  0  0  0  0  0  0  0  0999 V2000
    5.7174   -8.4529   26.7190 C   0  0  0  0  0  0  0  0  0  0  0  0
    0.3974   -7.0711   27.5149 C   0  0  0  0  0  0  0  0  0  0  0  0
    2.5338   -7.6891   16.0102 C   0  0  0  0  0  0  0  0  0  0  0  0
    4.8690   -7.4380   26.4151 C   0  0  0  0  0  0  0  0  0  0  0  0
    2.3021   -5.6726   26.0378 C   0  0  0  0  0  0  0  0  0  0  0  0
    7.0880   -4.6163   27.0010 C   0  0  0  0  0  0  0  0  0  0  0  0
    8.3117   -4.3698   27.4436 C   0  0  0  0  0  0  0  0  0  0  0  0
    1.1339   -5.0515   26.3541 C   0  0  0  0  0  0  0  0  0  0  0  0
    4.8080   -8.0362   16.7101 C   0  0  0  0  0  0  0  0  0  0  0  0
   -1.2173   -3.9294   26.9717 O   0  0  0  0  0  0  0  0  0  0  0  0
   -1.0025   -5.0942   27.4586 C   0  0  0  0  0  0  0  0  0  0  0  0
    2.2474   -8.9123   16.6273 C   0  0  0  0  0  0  0  0  0  0  0  0
    4.4957   -9.2636   17.3041 C   0  0  0  0  0  0  0  0  0  0  0  0
   -1.8070   -5.6086   28.1920 O   0  0  0  0  0  0  0  0  0  0  0  0
   10.4296   -5.1799   28.3140 C   0  0  0  0  0  0  0  0  0  0  0  0
    6.6017   -5.9004   26.9187 C   0  0  0  0  0  0  0  0  0  0  0  0
    2.4761   -6.9940   26.4111 N   0  0  0  0  0  0  0  0  0  0  0  0
    9.1353   -5.4053   27.8239 C   0  0  0  0  0  0  0  0  0  0  0  0
    0.9922   -9.3232   16.5995 O   0  0  0  0  0  0  0  0  0  0  0  0
    1.5232   -7.6869   27.1182 C   0  0  0  0  0  0  0  0  0  0  0  0
    8.6878   -6.6715   27.7262 N   0  0  0  0  0  0  0  0  0  0  0  0
    6.9911   -8.2423   27.1808 C   0  0  0  0  0  0  0  0  0  0  0  0
    3.8436   -7.2758   16.0578 C   0  0  0  0  0  0  0  0  0  0  0  0
    3.1882   -9.7190   17.2566 C   0  0  0  0  0  0  0  0  0  0  0  0
    5.3488   -6.1737   26.5092 C   0  0  0  0  0  0  0  0  0  0  0  0
    7.4567   -6.9464   27.2858 C   0  0  0  0  0  0  0  0  0  0  0  0
    0.1921   -5.7592   27.1123 C   0  0  0  0  0  0  0  0  0  0  0  0
    3.5517   -7.7407   25.9711 C   0  0  0  0  0  0  0  0  0  0  0  0
  1  4  4  0
  1 22  4  0
  2 20  4  0
  2 27  4  0
  3 12  4  0
  3 23  4  0
  4 25  4  0
  4 28  1  0
  5  8  4  0
  5 17  4  0
  6  7  4  0
  6 16  4  0
  7 18  4  0
  8 27  4  0
  9 13  4  0
  9 23  4  0
 10 11  1  0
 11 14  2  0
 11 27  1  0
 12 19  1  0
 12 24  4  0
 13 24  4  0
 15 18  1  0
 16 25  4  0
 16 26  4  0
 17 20  4  0
 17 28  1  0
 18 21  4  0
 21 26  4  0
 22 26  4  0
M  END
$$$$

 Created by Python create_sdf_string function

 28 30  0  0  0  0  0  0  0  0999 V2000
    5.7174   -8.4529   26.7190 C   0  0  0  0  0  0  0  0  0  0  0  0
    0.3974   -7.0711   27.5149 C   0  0  0  0  0  0  0  0  0  0  0  0
    2.5338   -7.6891   16.0102 C   0  0  0  0  0  0  0  0  0  0  0  0
    4.8690   -7.4380   26.4151 C   0  0  0  0  0  0  0  0  0  0  0  0
    2.3021   -5.6726   26.0378 C   0  0  0  0  0  0  0  0  0  0  0  0
    7.0880   -4.6163   27.0010 C   0  0  0  0  0  0  0  0  0  0  0  0
    8.3117   -4.3698   27.4436 C   0  0  0  0  0  0  0  0  0  0  0  0
    1.1339   -5.0515   26.3541 C   0  0  0  0  0  0  0  0  0  0  0  0
    4.8080   -8.0362   16.7101 C   0  0  0  0  0  0  0  0  0  0  0  0
   -1.2173   -3.9294   26.9717 O   0  0  0  0  0  0  0  0  0  0  0  0
   -1.0025   -5.0942   27.4586 C   0  0  0  0  0  0  0  0  0  0  0  0
    2.2474   -8.9123   16.6273 C   0  0  0  0  0  0  0  0  0  0  0  0
    4.4957   -9.2636   17.3041 C   0  0  0  0  0  0  0  0  0  0  0  0
   -1.8070   -5.6086   28.1920 O   0  0  0  0  0  0  0  0  0  0  0  0
   10.4296   -5.1799   28.3140 C   0  0  0  0  0  0  0  0  0  0  0  0
    6.6017   -5.9004   26.9187 C   0  0  0  0  0  0  0  0  0  0  0  0
    2.4761   -6.9940   26.4111 N   0  0  0  0  0  0  0  0  0  0  0  0
    9.1353   -5.4053   27.8239 C   0  0  0  0  0  0  0  0  0  0  0  0
    0.9922   -9.3232   16.5995 O   0  0  0  0  0  0  0  0  0  0  0  0
    1.5232   -7.6869   27.1182 C   0  0  0  0  0  0  0  0  0  0  0  0
    8.6878   -6.6715   27.7262 N   0  0  0  0  0  0  0  0  0  0  0  0
    6.9911   -8.2423   27.1808 C   0  0  0  0  0  0  0  0  0  0  0  0
    3.8436   -7.2758   16.0578 C   0  0  0  0  0  0  0  0  0  0  0  0
    3.1882   -9.7190   17.2566 C   0  0  0  0  0  0  0  0  0  0  0  0
    5.3488   -6.1737   26.5092 C   0  0  0  0  0  0  0  0  0  0  0  0
    7.4567   -6.9464   27.2858 C   0  0  0  0  0  0  0  0  0  0  0  0
    0.1921   -5.7592   27.1123 C   0  0  0  0  0  0  0  0  0  0  0  0
    3.5517   -7.7407   25.9711 C   0  0  0  0  0  0  0  0  0  0  0  0
  1  4  4  0
  1 22  4  0
  2 20  4  0
  2 27  4  0
  3 12  4  0
  3 23  4  0
  4 25  4  0
  4 28  1  0
  5  8  4  0
  5 17  4  0
  6  7  4  0
  6 16  4  0
  7 18  4  0
  8 27  4  0
  9 13  4  0
  9 23  4  0
 10 11  1  0
 11 14  2  0
 11 27  1  0
 12 19  1  0
 12 24  4  0
 13 24  4  0
 15 18  1  0
 16 25  4  0
 16 26  4  0
 17 20  4  0
 17 28  1  0
 18 21  4  0
 21 26  4  0
 22 26  4  0
M  END
$$$$

 Created by Python create_sdf_string function

 28 30  0  0  0  0  0  0  0  0999 V2000
    5.7174   -8.4529   26.7190 C   0  0  0  0  0  0  0  0  0  0  0  0
    0.3974   -7.0711   27.5149 C   0  0  0  0  0  0  0  0  0  0  0  0
    2.5338   -7.6891   16.0102 C   0  0  0  0  0  0  0  0  0  0  0  0
    4.8690   -7.4380   26.4151 C   0  0  0  0  0  0  0  0  0  0  0  0
    2.3021   -5.6726   26.0378 C   0  0  0  0  0  0  0  0  0  0  0  0
    7.0880   -4.6163   27.0010 C   0  0  0  0  0  0  0  0  0  0  0  0
    8.3117   -4.3698   27.4436 C   0  0  0  0  0  0  0  0  0  0  0  0
    1.1339   -5.0515   26.3541 C   0  0  0  0  0  0  0  0  0  0  0  0
    4.8080   -8.0362   16.7101 C   0  0  0  0  0  0  0  0  0  0  0  0
   -1.2173   -3.9294   26.9717 O   0  0  0  0  0  0  0  0  0  0  0  0
   -1.0025   -5.0942   27.4586 C   0  0  0  0  0  0  0  0  0  0  0  0
    2.2474   -8.9123   16.6273 C   0  0  0  0  0  0  0  0  0  0  0  0
    4.4957   -9.2636   17.3041 C   0  0  0  0  0  0  0  0  0  0  0  0
   -1.8070   -5.6086   28.1920 O   0  0  0  0  0  0  0  0  0  0  0  0
   10.4296   -5.1799   28.3140 C   0  0  0  0  0  0  0  0  0  0  0  0
    6.6017   -5.9004   26.9187 C   0  0  0  0  0  0  0  0  0  0  0  0
    2.4761   -6.9940   26.4111 N   0  0  0  0  0  0  0  0  0  0  0  0
    9.1353   -5.4053   27.8239 C   0  0  0  0  0  0  0  0  0  0  0  0
    0.9922   -9.3232   16.5995 O   0  0  0  0  0  0  0  0  0  0  0  0
    1.5232   -7.6869   27.1182 C   0  0  0  0  0  0  0  0  0  0  0  0
    8.6878   -6.6715   27.7262 N   0  0  0  0  0  0  0  0  0  0  0  0
    6.9911   -8.2423   27.1808 C   0  0  0  0  0  0  0  0  0  0  0  0
    3.8436   -7.2758   16.0578 C   0  0  0  0  0  0  0  0  0  0  0  0
    3.1882   -9.7190   17.2566 C   0  0  0  0  0  0  0  0  0  0  0  0
    5.3488   -6.1737   26.5092 C   0  0  0  0  0  0  0  0  0  0  0  0
    7.4567   -6.9464   27.2858 C   0  0  0  0  0  0  0  0  0  0  0  0
    0.1921   -5.7592   27.1123 C   0  0  0  0  0  0  0  0  0  0  0  0
    3.5517   -7.7407   25.9711 C   0  0  0  0  0  0  0  0  0  0  0  0
  1  4  4  0
  1 22  4  0
  2 20  4  0
  2 27  4  0
  3 12  4  0
  3 23  4  0
  4 25  4  0
  4 28  1  0
  5  8  4  0
  5 17  4  0
  6  7  4  0
  6 16  4  0
  7 18  4  0
  8 27  4  0
  9 13  4  0
  9 23  4  0
 10 11  1  0
 11 14  2  0
 11 27  1  0
 12 19  1  0
 12 24  4  0
 13 24  4  0
 15 18  1  0
 16 25  4  0
 16 26  4  0
 17 20  4  0
 17 28  1  0
 18 21  4  0
 21 26  4  0
 22 26  4  0
M  END
$$$$

 Created by Python create_sdf_string function

 28 30  0  0  0  0  0  0  0  0999 V2000
    5.7174   -8.4529   26.7190 C   0  0  0  0  0  0  0  0  0  0  0  0
    0.3974   -7.0711   27.5149 C   0  0  0  0  0  0  0  0  0  0  0  0
    2.5338   -7.6891   16.0102 C   0  0  0  0  0  0  0  0  0  0  0  0
    4.8690   -7.4380   26.4151 C   0  0  0  0  0  0  0  0  0  0  0  0
    2.3021   -5.6726   26.0378 C   0  0  0  0  0  0  0  0  0  0  0  0
    7.0880   -4.6163   27.0010 C   0  0  0  0  0  0  0  0  0  0  0  0
    8.3117   -4.3698   27.4436 C   0  0  0  0  0  0  0  0  0  0  0  0
    1.1339   -5.0515   26.3541 C   0  0  0  0  0  0  0  0  0  0  0  0
    4.8080   -8.0362   16.7101 C   0  0  0  0  0  0  0  0  0  0  0  0
   -1.2173   -3.9294   26.9717 O   0  0  0  0  0  0  0  0  0  0  0  0
   -1.0025   -5.0942   27.4586 C   0  0  0  0  0  0  0  0  0  0  0  0
    2.2474   -8.9123   16.6273 C   0  0  0  0  0  0  0  0  0  0  0  0
    4.4957   -9.2636   17.3041 C   0  0  0  0  0  0  0  0  0  0  0  0
   -1.8070   -5.6086   28.1920 O   0  0  0  0  0  0  0  0  0  0  0  0
   10.4296   -5.1799   28.3140 C   0  0  0  0  0  0  0  0  0  0  0  0
    6.6017   -5.9004   26.9187 C   0  0  0  0  0  0  0  0  0  0  0  0
    2.4761   -6.9940   26.4111 N   0  0  0  0  0  0  0  0  0  0  0  0
    9.1353   -5.4053   27.8239 C   0  0  0  0  0  0  0  0  0  0  0  0
    0.9922   -9.3232   16.5995 O   0  0  0  0  0  0  0  0  0  0  0  0
    1.5232   -7.6869   27.1182 C   0  0  0  0  0  0  0  0  0  0  0  0
    8.6878   -6.6715   27.7262 N   0  0  0  0  0  0  0  0  0  0  0  0
    6.9911   -8.2423   27.1808 C   0  0  0  0  0  0  0  0  0  0  0  0
    3.8436   -7.2758   16.0578 C   0  0  0  0  0  0  0  0  0  0  0  0
    3.1882   -9.7190   17.2566 C   0  0  0  0  0  0  0  0  0  0  0  0
    5.3488   -6.1737   26.5092 C   0  0  0  0  0  0  0  0  0  0  0  0
    7.4567   -6.9464   27.2858 C   0  0  0  0  0  0  0  0  0  0  0  0
    0.1921   -5.7592   27.1123 C   0  0  0  0  0  0  0  0  0  0  0  0
    3.5517   -7.7407   25.9711 C   0  0  0  0  0  0  0  0  0  0  0  0
  1  4  4  0
  1 22  4  0
  2 20  4  0
  2 27  4  0
  3 12  4  0
  3 23  4  0
  4 25  4  0
  4 28  1  0
  5  8  4  0
  5 17  4  0
  6  7  4  0
  6 16  4  0
  7 18  4  0
  8 27  4  0
  9 13  4  0
  9 23  4  0
 10 11  1  0
 11 14  2  0
 11 27  1  0
 12 19  1  0
 12 24  4  0
 13 24  4  0
 15 18  1  0
 16 25  4  0
 16 26  4  0
 17 20  4  0
 17 28  1  0
 18 21  4  0
 21 26  4  0
 22 26  4  0
M  END
$$$$

 Created by Python create_sdf_string function

 28 30  0  0  0  0  0  0  0  0999 V2000
    5.7174   -8.4529   26.7190 C   0  0  0  0  0  0  0  0  0  0  0  0
    0.3974   -7.0711   27.5149 C   0  0  0  0  0  0  0  0  0  0  0  0
    2.5338   -7.6891   16.0102 C   0  0  0  0  0  0  0  0  0  0  0  0
    4.8690   -7.4380   26.4151 C   0  0  0  0  0  0  0  0  0  0  0  0
    2.3021   -5.6726   26.0378 C   0  0  0  0  0  0  0  0  0  0  0  0
    7.0880   -4.6163   27.0010 C   0  0  0  0  0  0  0  0  0  0  0  0
    8.3117   -4.3698   27.4436 C   0  0  0  0  0  0  0  0  0  0  0  0
    1.1339   -5.0515   26.3541 C   0  0  0  0  0  0  0  0  0  0  0  0
    4.8080   -8.0362   16.7101 C   0  0  0  0  0  0  0  0  0  0  0  0
   -1.2173   -3.9294   26.9717 O   0  0  0  0  0  0  0  0  0  0  0  0
   -1.0025   -5.0942   27.4586 C   0  0  0  0  0  0  0  0  0  0  0  0
    2.2474   -8.9123   16.6273 C   0  0  0  0  0  0  0  0  0  0  0  0
    4.4957   -9.2636   17.3041 C   0  0  0  0  0  0  0  0  0  0  0  0
   -1.8070   -5.6086   28.1920 O   0  0  0  0  0  0  0  0  0  0  0  0
   10.4296   -5.1799   28.3140 C   0  0  0  0  0  0  0  0  0  0  0  0
    6.6017   -5.9004   26.9187 C   0  0  0  0  0  0  0  0  0  0  0  0
    2.4761   -6.9940   26.4111 N   0  0  0  0  0  0  0  0  0  0  0  0
    9.1353   -5.4053   27.8239 C   0  0  0  0  0  0  0  0  0  0  0  0
    0.9922   -9.3232   16.5995 O   0  0  0  0  0  0  0  0  0  0  0  0
    1.5232   -7.6869   27.1182 C   0  0  0  0  0  0  0  0  0  0  0  0
    8.6878   -6.6715   27.7262 N   0  0  0  0  0  0  0  0  0  0  0  0
    6.9911   -8.2423   27.1808 C   0  0  0  0  0  0  0  0  0  0  0  0
    3.8436   -7.2758   16.0578 C   0  0  0  0  0  0  0  0  0  0  0  0
    3.1882   -9.7190   17.2566 C   0  0  0  0  0  0  0  0  0  0  0  0
    5.3488   -6.1737   26.5092 C   0  0  0  0  0  0  0  0  0  0  0  0
    7.4567   -6.9464   27.2858 C   0  0  0  0  0  0  0  0  0  0  0  0
    0.1921   -5.7592   27.1123 C   0  0  0  0  0  0  0  0  0  0  0  0
    3.5517   -7.7407   25.9711 C   0  0  0  0  0  0  0  0  0  0  0  0
  1  4  4  0
  1 22  4  0
  2 20  4  0
  2 27  4  0
  3 12  4  0
  3 23  4  0
  4 25  4  0
  4 28  1  0
  5  8  4  0
  5 17  4  0
  6  7  4  0
  6 16  4  0
  7 18  4  0
  8 27  4  0
  9 13  4  0
  9 23  4  0
 10 11  1  0
 11 14  2  0
 11 27  1  0
 12 19  1  0
 12 24  4  0
 13 24  4  0
 15 18  1  0
 16 25  4  0
 16 26  4  0
 17 20  4  0
 17 28  1  0
 18 21  4  0
 21 26  4  0
 22 26  4  0
M  END
$$$$

 Created by Python create_sdf_string function

 28 30  0  0  0  0  0  0  0  0999 V2000
    5.7174   -8.4529   26.7190 C   0  0  0  0  0  0  0  0  0  0  0  0
    0.3974   -7.0711   27.5149 C   0  0  0  0  0  0  0  0  0  0  0  0
    2.5338   -7.6891   16.0102 C   0  0  0  0  0  0  0  0  0  0  0  0
    4.8690   -7.4380   26.4151 C   0  0  0  0  0  0  0  0  0  0  0  0
    2.3021   -5.6726   26.0378 C   0  0  0  0  0  0  0  0  0  0  0  0
    7.0880   -4.6163   27.0010 C   0  0  0  0  0  0  0  0  0  0  0  0
    8.3117   -4.3698   27.4436 C   0  0  0  0  0  0  0  0  0  0  0  0
    1.1339   -5.0515   26.3541 C   0  0  0  0  0  0  0  0  0  0  0  0
    4.8080   -8.0362   16.7101 C   0  0  0  0  0  0  0  0  0  0  0  0
   -1.2173   -3.9294   26.9717 O   0  0  0  0  0  0  0  0  0  0  0  0
   -1.0025   -5.0942   27.4586 C   0  0  0  0  0  0  0  0  0  0  0  0
    2.2474   -8.9123   16.6273 C   0  0  0  0  0  0  0  0  0  0  0  0
    4.4957   -9.2636   17.3041 C   0  0  0  0  0  0  0  0  0  0  0  0
   -1.8070   -5.6086   28.1920 O   0  0  0  0  0  0  0  0  0  0  0  0
   10.4296   -5.1799   28.3140 C   0  0  0  0  0  0  0  0  0  0  0  0
    6.6017   -5.9004   26.9187 C   0  0  0  0  0  0  0  0  0  0  0  0
    2.4761   -6.9940   26.4111 N   0  0  0  0  0  0  0  0  0  0  0  0
    9.1353   -5.4053   27.8239 C   0  0  0  0  0  0  0  0  0  0  0  0
    0.9922   -9.3232   16.5995 O   0  0  0  0  0  0  0  0  0  0  0  0
    1.5232   -7.6869   27.1182 C   0  0  0  0  0  0  0  0  0  0  0  0
    8.6878   -6.6715   27.7262 N   0  0  0  0  0  0  0  0  0  0  0  0
    6.9911   -8.2423   27.1808 C   0  0  0  0  0  0  0  0  0  0  0  0
    3.8436   -7.2758   16.0578 C   0  0  0  0  0  0  0  0  0  0  0  0
    3.1882   -9.7190   17.2566 C   0  0  0  0  0  0  0  0  0  0  0  0
    5.3488   -6.1737   26.5092 C   0  0  0  0  0  0  0  0  0  0  0  0
    7.4567   -6.9464   27.2858 C   0  0  0  0  0  0  0  0  0  0  0  0
    0.1921   -5.7592   27.1123 C   0  0  0  0  0  0  0  0  0  0  0  0
    3.5517   -7.7407   25.9711 C   0  0  0  0  0  0  0  0  0  0  0  0
  1  4  4  0
  1 22  4  0
  2 20  4  0
  2 27  4  0
  3 12  4  0
  3 23  4  0
  4 25  4  0
  4 28  1  0
  5  8  4  0
  5 17  4  0
  6  7  4  0
  6 16  4  0
  7 18  4  0
  8 27  4  0
  9 13  4  0
  9 23  4  0
 10 11  1  0
 11 14  2  0
 11 27  1  0
 12 19  1  0
 12 24  4  0
 13 24  4  0
 15 18  1  0
 16 25  4  0
 16 26  4  0
 17 20  4  0
 17 28  1  0
 18 21  4  0
 21 26  4  0
 22 26  4  0
M  END
$$$$

 Created by Python create_sdf_string function

 28 30  0  0  0  0  0  0  0  0999 V2000
    5.7174   -8.4529   26.7190 C   0  0  0  0  0  0  0  0  0  0  0  0
    0.3974   -7.0711   27.5149 C   0  0  0  0  0  0  0  0  0  0  0  0
    2.5338   -7.6891   16.0102 C   0  0  0  0  0  0  0  0  0  0  0  0
    4.8690   -7.4380   26.4151 C   0  0  0  0  0  0  0  0  0  0  0  0
    2.3021   -5.6726   26.0378 C   0  0  0  0  0  0  0  0  0  0  0  0
    7.0880   -4.6163   27.0010 C   0  0  0  0  0  0  0  0  0  0  0  0
    8.3117   -4.3698   27.4436 C   0  0  0  0  0  0  0  0  0  0  0  0
    1.1339   -5.0515   26.3541 C   0  0  0  0  0  0  0  0  0  0  0  0
    4.8080   -8.0362   16.7101 C   0  0  0  0  0  0  0  0  0  0  0  0
   -1.2173   -3.9294   26.9717 O   0  0  0  0  0  0  0  0  0  0  0  0
   -1.0025   -5.0942   27.4586 C   0  0  0  0  0  0  0  0  0  0  0  0
    2.2474   -8.9123   16.6273 C   0  0  0  0  0  0  0  0  0  0  0  0
    4.4957   -9.2636   17.3041 C   0  0  0  0  0  0  0  0  0  0  0  0
   -1.8070   -5.6086   28.1920 O   0  0  0  0  0  0  0  0  0  0  0  0
   10.4296   -5.1799   28.3140 C   0  0  0  0  0  0  0  0  0  0  0  0
    6.6017   -5.9004   26.9187 C   0  0  0  0  0  0  0  0  0  0  0  0
    2.4761   -6.9940   26.4111 N   0  0  0  0  0  0  0  0  0  0  0  0
    9.1353   -5.4053   27.8239 C   0  0  0  0  0  0  0  0  0  0  0  0
    0.9922   -9.3232   16.5995 O   0  0  0  0  0  0  0  0  0  0  0  0
    1.5232   -7.6869   27.1182 C   0  0  0  0  0  0  0  0  0  0  0  0
    8.6878   -6.6715   27.7262 N   0  0  0  0  0  0  0  0  0  0  0  0
    6.9911   -8.2423   27.1808 C   0  0  0  0  0  0  0  0  0  0  0  0
    3.8436   -7.2758   16.0578 C   0  0  0  0  0  0  0  0  0  0  0  0
    3.1882   -9.7190   17.2566 C   0  0  0  0  0  0  0  0  0  0  0  0
    5.3488   -6.1737   26.5092 C   0  0  0  0  0  0  0  0  0  0  0  0
    7.4567   -6.9464   27.2858 C   0  0  0  0  0  0  0  0  0  0  0  0
    0.1921   -5.7592   27.1123 C   0  0  0  0  0  0  0  0  0  0  0  0
    3.5517   -7.7407   25.9711 C   0  0  0  0  0  0  0  0  0  0  0  0
  1  4  4  0
  1 22  4  0
  2 20  4  0
  2 27  4  0
  3 12  4  0
  3 23  4  0
  4 25  4  0
  4 28  1  0
  5  8  4  0
  5 17  4  0
  6  7  4  0
  6 16  4  0
  7 18  4  0
  8 27  4  0
  9 13  4  0
  9 23  4  0
 10 11  1  0
 11 14  2  0
 11 27  1  0
 12 19  1  0
 12 24  4  0
 13 24  4  0
 15 18  1  0
 16 25  4  0
 16 26  4  0
 17 20  4  0
 17 28  1  0
 18 21  4  0
 21 26  4  0
 22 26  4  0
M  END
$$$$

 Created by Python create_sdf_string function

 28 30  0  0  0  0  0  0  0  0999 V2000
    5.7174   -8.4529   26.7190 C   0  0  0  0  0  0  0  0  0  0  0  0
    0.3974   -7.0711   27.5149 C   0  0  0  0  0  0  0  0  0  0  0  0
    2.5338   -7.6891   16.0102 C   0  0  0  0  0  0  0  0  0  0  0  0
    4.8690   -7.4380   26.4151 C   0  0  0  0  0  0  0  0  0  0  0  0
    2.3021   -5.6726   26.0378 C   0  0  0  0  0  0  0  0  0  0  0  0
    7.0880   -4.6163   27.0010 C   0  0  0  0  0  0  0  0  0  0  0  0
    8.3117   -4.3698   27.4436 C   0  0  0  0  0  0  0  0  0  0  0  0
    1.1339   -5.0515   26.3541 C   0  0  0  0  0  0  0  0  0  0  0  0
    4.8080   -8.0362   16.7101 C   0  0  0  0  0  0  0  0  0  0  0  0
   -1.2173   -3.9294   26.9717 O   0  0  0  0  0  0  0  0  0  0  0  0
   -1.0025   -5.0942   27.4586 C   0  0  0  0  0  0  0  0  0  0  0  0
    2.2474   -8.9123   16.6273 C   0  0  0  0  0  0  0  0  0  0  0  0
    4.4957   -9.2636   17.3041 C   0  0  0  0  0  0  0  0  0  0  0  0
   -1.8070   -5.6086   28.1920 O   0  0  0  0  0  0  0  0  0  0  0  0
   10.4296   -5.1799   28.3140 C   0  0  0  0  0  0  0  0  0  0  0  0
    6.6017   -5.9004   26.9187 C   0  0  0  0  0  0  0  0  0  0  0  0
    2.4761   -6.9940   26.4111 N   0  0  0  0  0  0  0  0  0  0  0  0
    9.1353   -5.4053   27.8239 C   0  0  0  0  0  0  0  0  0  0  0  0
    0.9922   -9.3232   16.5995 O   0  0  0  0  0  0  0  0  0  0  0  0
    1.5232   -7.6869   27.1182 C   0  0  0  0  0  0  0  0  0  0  0  0
    8.6878   -6.6715   27.7262 N   0  0  0  0  0  0  0  0  0  0  0  0
    6.9911   -8.2423   27.1808 C   0  0  0  0  0  0  0  0  0  0  0  0
    3.8436   -7.2758   16.0578 C   0  0  0  0  0  0  0  0  0  0  0  0
    3.1882   -9.7190   17.2566 C   0  0  0  0  0  0  0  0  0  0  0  0
    5.3488   -6.1737   26.5092 C   0  0  0  0  0  0  0  0  0  0  0  0
    7.4567   -6.9464   27.2858 C   0  0  0  0  0  0  0  0  0  0  0  0
    0.1921   -5.7592   27.1123 C   0  0  0  0  0  0  0  0  0  0  0  0
    3.5517   -7.7407   25.9711 C   0  0  0  0  0  0  0  0  0  0  0  0
  1  4  4  0
  1 22  4  0
  2 20  4  0
  2 27  4  0
  3 12  4  0
  3 23  4  0
  4 25  4  0
  4 28  1  0
  5  8  4  0
  5 17  4  0
  6  7  4  0
  6 16  4  0
  7 18  4  0
  8 27  4  0
  9 13  4  0
  9 23  4  0
 10 11  1  0
 11 14  2  0
 11 27  1  0
 12 19  1  0
 12 24  4  0
 13 24  4  0
 15 18  1  0
 16 25  4  0
 16 26  4  0
 17 20  4  0
 17 28  1  0
 18 21  4  0
 21 26  4  0
 22 26  4  0
M  END
$$$$

 Created by Python create_sdf_string function

 28 30  0  0  0  0  0  0  0  0999 V2000
    5.7174   -8.4529   26.7190 C   0  0  0  0  0  0  0  0  0  0  0  0
    0.3974   -7.0711   27.5149 C   0  0  0  0  0  0  0  0  0  0  0  0
    2.5338   -7.6891   16.0102 C   0  0  0  0  0  0  0  0  0  0  0  0
    4.8690   -7.4380   26.4151 C   0  0  0  0  0  0  0  0  0  0  0  0
    2.3021   -5.6726   26.0378 C   0  0  0  0  0  0  0  0  0  0  0  0
    7.0880   -4.6163   27.0010 C   0  0  0  0  0  0  0  0  0  0  0  0
    8.3117   -4.3698   27.4436 C   0  0  0  0  0  0  0  0  0  0  0  0
    1.1339   -5.0515   26.3541 C   0  0  0  0  0  0  0  0  0  0  0  0
    4.8080   -8.0362   16.7101 C   0  0  0  0  0  0  0  0  0  0  0  0
   -1.2173   -3.9294   26.9717 O   0  0  0  0  0  0  0  0  0  0  0  0
   -1.0025   -5.0942   27.4586 C   0  0  0  0  0  0  0  0  0  0  0  0
    2.2474   -8.9123   16.6273 C   0  0  0  0  0  0  0  0  0  0  0  0
    4.4957   -9.2636   17.3041 C   0  0  0  0  0  0  0  0  0  0  0  0
   -1.8070   -5.6086   28.1920 O   0  0  0  0  0  0  0  0  0  0  0  0
   10.4296   -5.1799   28.3140 C   0  0  0  0  0  0  0  0  0  0  0  0
    6.6017   -5.9004   26.9187 C   0  0  0  0  0  0  0  0  0  0  0  0
    2.4761   -6.9940   26.4111 N   0  0  0  0  0  0  0  0  0  0  0  0
    9.1353   -5.4053   27.8239 C   0  0  0  0  0  0  0  0  0  0  0  0
    0.9922   -9.3232   16.5995 O   0  0  0  0  0  0  0  0  0  0  0  0
    1.5232   -7.6869   27.1182 C   0  0  0  0  0  0  0  0  0  0  0  0
    8.6878   -6.6715   27.7262 N   0  0  0  0  0  0  0  0  0  0  0  0
    6.9911   -8.2423   27.1808 C   0  0  0  0  0  0  0  0  0  0  0  0
    3.8436   -7.2758   16.0578 C   0  0  0  0  0  0  0  0  0  0  0  0
    3.1882   -9.7190   17.2566 C   0  0  0  0  0  0  0  0  0  0  0  0
    5.3488   -6.1737   26.5092 C   0  0  0  0  0  0  0  0  0  0  0  0
    7.4567   -6.9464   27.2858 C   0  0  0  0  0  0  0  0  0  0  0  0
    0.1921   -5.7592   27.1123 C   0  0  0  0  0  0  0  0  0  0  0  0
    3.5517   -7.7407   25.9711 C   0  0  0  0  0  0  0  0  0  0  0  0
  1  4  4  0
  1 22  4  0
  2 20  4  0
  2 27  4  0
  3 12  4  0
  3 23  4  0
  4 25  4  0
  4 28  1  0
  5  8  4  0
  5 17  4  0
  6  7  4  0
  6 16  4  0
  7 18  4  0
  8 27  4  0
  9 13  4  0
  9 23  4  0
 10 11  1  0
 11 14  2  0
 11 27  1  0
 12 19  1  0
 12 24  4  0
 13 24  4  0
 15 18  1  0
 16 25  4  0
 16 26  4  0
 17 20  4  0
 17 28  1  0
 18 21  4  0
 21 26  4  0
 22 26  4  0
M  END
$$$$

 Created by Python create_sdf_string function

 28 30  0  0  0  0  0  0  0  0999 V2000
    5.7174   -8.4529   26.7190 C   0  0  0  0  0  0  0  0  0  0  0  0
    0.3974   -7.0711   27.5149 C   0  0  0  0  0  0  0  0  0  0  0  0
    2.5338   -7.6891   16.0102 C   0  0  0  0  0  0  0  0  0  0  0  0
    4.8690   -7.4380   26.4151 C   0  0  0  0  0  0  0  0  0  0  0  0
    2.3021   -5.6726   26.0378 C   0  0  0  0  0  0  0  0  0  0  0  0
    7.0880   -4.6163   27.0010 C   0  0  0  0  0  0  0  0  0  0  0  0
    8.3117   -4.3698   27.4436 C   0  0  0  0  0  0  0  0  0  0  0  0
    1.1339   -5.0515   26.3541 C   0  0  0  0  0  0  0  0  0  0  0  0
    4.8080   -8.0362   16.7101 C   0  0  0  0  0  0  0  0  0  0  0  0
   -1.2173   -3.9294   26.9717 O   0  0  0  0  0  0  0  0  0  0  0  0
   -1.0025   -5.0942   27.4586 C   0  0  0  0  0  0  0  0  0  0  0  0
    2.2474   -8.9123   16.6273 C   0  0  0  0  0  0  0  0  0  0  0  0
    4.4957   -9.2636   17.3041 C   0  0  0  0  0  0  0  0  0  0  0  0
   -1.8070   -5.6086   28.1920 O   0  0  0  0  0  0  0  0  0  0  0  0
   10.4296   -5.1799   28.3140 C   0  0  0  0  0  0  0  0  0  0  0  0
    6.6017   -5.9004   26.9187 C   0  0  0  0  0  0  0  0  0  0  0  0
    2.4761   -6.9940   26.4111 N   0  0  0  0  0  0  0  0  0  0  0  0
    9.1353   -5.4053   27.8239 C   0  0  0  0  0  0  0  0  0  0  0  0
    0.9922   -9.3232   16.5995 O   0  0  0  0  0  0  0  0  0  0  0  0
    1.5232   -7.6869   27.1182 C   0  0  0  0  0  0  0  0  0  0  0  0
    8.6878   -6.6715   27.7262 N   0  0  0  0  0  0  0  0  0  0  0  0
    6.9911   -8.2423   27.1808 C   0  0  0  0  0  0  0  0  0  0  0  0
    3.8436   -7.2758   16.0578 C   0  0  0  0  0  0  0  0  0  0  0  0
    3.1882   -9.7190   17.2566 C   0  0  0  0  0  0  0  0  0  0  0  0
    5.3488   -6.1737   26.5092 C   0  0  0  0  0  0  0  0  0  0  0  0
    7.4567   -6.9464   27.2858 C   0  0  0  0  0  0  0  0  0  0  0  0
    0.1921   -5.7592   27.1123 C   0  0  0  0  0  0  0  0  0  0  0  0
    3.5517   -7.7407   25.9711 C   0  0  0  0  0  0  0  0  0  0  0  0
  1  4  4  0
  1 22  4  0
  2 20  4  0
  2 27  4  0
  3 12  4  0
  3 23  4  0
  4 25  4  0
  4 28  1  0
  5  8  4  0
  5 17  4  0
  6  7  4  0
  6 16  4  0
  7 18  4  0
  8 27  4  0
  9 13  4  0
  9 23  4  0
 10 11  1  0
 11 14  2  0
 11 27  1  0
 12 19  1  0
 12 24  4  0
 13 24  4  0
 15 18  1  0
 16 25  4  0
 16 26  4  0
 17 20  4  0
 17 28  1  0
 18 21  4  0
 21 26  4  0
 22 26  4  0
M  END
$$$$

 Created by Python create_sdf_string function

 28 30  0  0  0  0  0  0  0  0999 V2000
    5.7174   -8.4529   26.7190 C   0  0  0  0  0  0  0  0  0  0  0  0
    0.3974   -7.0711   27.5149 C   0  0  0  0  0  0  0  0  0  0  0  0
    2.5338   -7.6891   16.0102 C   0  0  0  0  0  0  0  0  0  0  0  0
    4.8690   -7.4380   26.4151 C   0  0  0  0  0  0  0  0  0  0  0  0
    2.3021   -5.6726   26.0378 C   0  0  0  0  0  0  0  0  0  0  0  0
    7.0880   -4.6163   27.0010 C   0  0  0  0  0  0  0  0  0  0  0  0
    8.3117   -4.3698   27.4436 C   0  0  0  0  0  0  0  0  0  0  0  0
    1.1339   -5.0515   26.3541 C   0  0  0  0  0  0  0  0  0  0  0  0
    4.8080   -8.0362   16.7101 C   0  0  0  0  0  0  0  0  0  0  0  0
   -1.2173   -3.9294   26.9717 O   0  0  0  0  0  0  0  0  0  0  0  0
   -1.0025   -5.0942   27.4586 C   0  0  0  0  0  0  0  0  0  0  0  0
    2.2474   -8.9123   16.6273 C   0  0  0  0  0  0  0  0  0  0  0  0
    4.4957   -9.2636   17.3041 C   0  0  0  0  0  0  0  0  0  0  0  0
   -1.8070   -5.6086   28.1920 O   0  0  0  0  0  0  0  0  0  0  0  0
   10.4296   -5.1799   28.3140 C   0  0  0  0  0  0  0  0  0  0  0  0
    6.6017   -5.9004   26.9187 C   0  0  0  0  0  0  0  0  0  0  0  0
    2.4761   -6.9940   26.4111 N   0  0  0  0  0  0  0  0  0  0  0  0
    9.1353   -5.4053   27.8239 C   0  0  0  0  0  0  0  0  0  0  0  0
    0.9922   -9.3232   16.5995 O   0  0  0  0  0  0  0  0  0  0  0  0
    1.5232   -7.6869   27.1182 C   0  0  0  0  0  0  0  0  0  0  0  0
    8.6878   -6.6715   27.7262 N   0  0  0  0  0  0  0  0  0  0  0  0
    6.9911   -8.2423   27.1808 C   0  0  0  0  0  0  0  0  0  0  0  0
    3.8436   -7.2758   16.0578 C   0  0  0  0  0  0  0  0  0  0  0  0
    3.1882   -9.7190   17.2566 C   0  0  0  0  0  0  0  0  0  0  0  0
    5.3488   -6.1737   26.5092 C   0  0  0  0  0  0  0  0  0  0  0  0
    7.4567   -6.9464   27.2858 C   0  0  0  0  0  0  0  0  0  0  0  0
    0.1921   -5.7592   27.1123 C   0  0  0  0  0  0  0  0  0  0  0  0
    3.5517   -7.7407   25.9711 C   0  0  0  0  0  0  0  0  0  0  0  0
  1  4  4  0
  1 22  4  0
  2 20  4  0
  2 27  4  0
  3 12  4  0
  3 23  4  0
  4 25  4  0
  4 28  1  0
  5  8  4  0
  5 17  4  0
  6  7  4  0
  6 16  4  0
  7 18  4  0
  8 27  4  0
  9 13  4  0
  9 23  4  0
 10 11  1  0
 11 14  2  0
 11 27  1  0
 12 19  1  0
 12 24  4  0
 13 24  4  0
 15 18  1  0
 16 25  4  0
 16 26  4  0
 17 20  4  0
 17 28  1  0
 18 21  4  0
 21 26  4  0
 22 26  4  0
M  END
$$$$

 Created by Python create_sdf_string function

 28 30  0  0  0  0  0  0  0  0999 V2000
    5.7174   -8.4529   26.7190 C   0  0  0  0  0  0  0  0  0  0  0  0
    0.3974   -7.0711   27.5149 C   0  0  0  0  0  0  0  0  0  0  0  0
    2.5338   -7.6891   16.0102 C   0  0  0  0  0  0  0  0  0  0  0  0
    4.8690   -7.4380   26.4151 C   0  0  0  0  0  0  0  0  0  0  0  0
    2.3021   -5.6726   26.0378 C   0  0  0  0  0  0  0  0  0  0  0  0
    7.0880   -4.6163   27.0010 C   0  0  0  0  0  0  0  0  0  0  0  0
    8.3117   -4.3698   27.4436 C   0  0  0  0  0  0  0  0  0  0  0  0
    1.1339   -5.0515   26.3541 C   0  0  0  0  0  0  0  0  0  0  0  0
    4.8080   -8.0362   16.7101 C   0  0  0  0  0  0  0  0  0  0  0  0
   -1.2173   -3.9294   26.9717 O   0  0  0  0  0  0  0  0  0  0  0  0
   -1.0025   -5.0942   27.4586 C   0  0  0  0  0  0  0  0  0  0  0  0
    2.2474   -8.9123   16.6273 C   0  0  0  0  0  0  0  0  0  0  0  0
    4.4957   -9.2636   17.3041 C   0  0  0  0  0  0  0  0  0  0  0  0
   -1.8070   -5.6086   28.1920 O   0  0  0  0  0  0  0  0  0  0  0  0
   10.4296   -5.1799   28.3140 C   0  0  0  0  0  0  0  0  0  0  0  0
    6.6017   -5.9004   26.9187 C   0  0  0  0  0  0  0  0  0  0  0  0
    2.4761   -6.9940   26.4111 N   0  0  0  0  0  0  0  0  0  0  0  0
    9.1353   -5.4053   27.8239 C   0  0  0  0  0  0  0  0  0  0  0  0
    0.9922   -9.3232   16.5995 O   0  0  0  0  0  0  0  0  0  0  0  0
    1.5232   -7.6869   27.1182 C   0  0  0  0  0  0  0  0  0  0  0  0
    8.6878   -6.6715   27.7262 N   0  0  0  0  0  0  0  0  0  0  0  0
    6.9911   -8.2423   27.1808 C   0  0  0  0  0  0  0  0  0  0  0  0
    3.8436   -7.2758   16.0578 C   0  0  0  0  0  0  0  0  0  0  0  0
    3.1882   -9.7190   17.2566 C   0  0  0  0  0  0  0  0  0  0  0  0
    5.3488   -6.1737   26.5092 C   0  0  0  0  0  0  0  0  0  0  0  0
    7.4567   -6.9464   27.2858 C   0  0  0  0  0  0  0  0  0  0  0  0
    0.1921   -5.7592   27.1123 C   0  0  0  0  0  0  0  0  0  0  0  0
    3.5517   -7.7407   25.9711 C   0  0  0  0  0  0  0  0  0  0  0  0
  1  4  4  0
  1 22  4  0
  2 20  4  0
  2 27  4  0
  3 12  4  0
  3 23  4  0
  4 25  4  0
  4 28  1  0
  5  8  4  0
  5 17  4  0
  6  7  4  0
  6 16  4  0
  7 18  4  0
  8 27  4  0
  9 13  4  0
  9 23  4  0
 10 11  1  0
 11 14  2  0
 11 27  1  0
 12 19  1  0
 12 24  4  0
 13 24  4  0
 15 18  1  0
 16 25  4  0
 16 26  4  0
 17 20  4  0
 17 28  1  0
 18 21  4  0
 21 26  4  0
 22 26  4  0
M  END
$$$$

 Created by Python create_sdf_string function

 28 30  0  0  0  0  0  0  0  0999 V2000
    5.7174   -8.4529   26.7190 C   0  0  0  0  0  0  0  0  0  0  0  0
    0.3974   -7.0711   27.5149 C   0  0  0  0  0  0  0  0  0  0  0  0
    2.5338   -7.6891   16.0102 C   0  0  0  0  0  0  0  0  0  0  0  0
    4.8690   -7.4380   26.4151 C   0  0  0  0  0  0  0  0  0  0  0  0
    2.3021   -5.6726   26.0378 C   0  0  0  0  0  0  0  0  0  0  0  0
    7.0880   -4.6163   27.0010 C   0  0  0  0  0  0  0  0  0  0  0  0
    8.3117   -4.3698   27.4436 C   0  0  0  0  0  0  0  0  0  0  0  0
    1.1339   -5.0515   26.3541 C   0  0  0  0  0  0  0  0  0  0  0  0
    4.8080   -8.0362   16.7101 C   0  0  0  0  0  0  0  0  0  0  0  0
   -1.2173   -3.9294   26.9717 O   0  0  0  0  0  0  0  0  0  0  0  0
   -1.0025   -5.0942   27.4586 C   0  0  0  0  0  0  0  0  0  0  0  0
    2.2474   -8.9123   16.6273 C   0  0  0  0  0  0  0  0  0  0  0  0
    4.4957   -9.2636   17.3041 C   0  0  0  0  0  0  0  0  0  0  0  0
   -1.8070   -5.6086   28.1920 O   0  0  0  0  0  0  0  0  0  0  0  0
   10.4296   -5.1799   28.3140 C   0  0  0  0  0  0  0  0  0  0  0  0
    6.6017   -5.9004   26.9187 C   0  0  0  0  0  0  0  0  0  0  0  0
    2.4761   -6.9940   26.4111 N   0  0  0  0  0  0  0  0  0  0  0  0
    9.1353   -5.4053   27.8239 C   0  0  0  0  0  0  0  0  0  0  0  0
    0.9922   -9.3232   16.5995 O   0  0  0  0  0  0  0  0  0  0  0  0
    1.5232   -7.6869   27.1182 C   0  0  0  0  0  0  0  0  0  0  0  0
    8.6878   -6.6715   27.7262 N   0  0  0  0  0  0  0  0  0  0  0  0
    6.9911   -8.2423   27.1808 C   0  0  0  0  0  0  0  0  0  0  0  0
    3.8436   -7.2758   16.0578 C   0  0  0  0  0  0  0  0  0  0  0  0
    3.1882   -9.7190   17.2566 C   0  0  0  0  0  0  0  0  0  0  0  0
    5.3488   -6.1737   26.5092 C   0  0  0  0  0  0  0  0  0  0  0  0
    7.4567   -6.9464   27.2858 C   0  0  0  0  0  0  0  0  0  0  0  0
    0.1921   -5.7592   27.1123 C   0  0  0  0  0  0  0  0  0  0  0  0
    3.5517   -7.7407   25.9711 C   0  0  0  0  0  0  0  0  0  0  0  0
  1  4  4  0
  1 22  4  0
  2 20  4  0
  2 27  4  0
  3 12  4  0
  3 23  4  0
  4 25  4  0
  4 28  1  0
  5  8  4  0
  5 17  4  0
  6  7  4  0
  6 16  4  0
  7 18  4  0
  8 27  4  0
  9 13  4  0
  9 23  4  0
 10 11  1  0
 11 14  2  0
 11 27  1  0
 12 19  1  0
 12 24  4  0
 13 24  4  0
 15 18  1  0
 16 25  4  0
 16 26  4  0
 17 20  4  0
 17 28  1  0
 18 21  4  0
 21 26  4  0
 22 26  4  0
M  END
$$$$

 Created by Python create_sdf_string function

 28 30  0  0  0  0  0  0  0  0999 V2000
    5.7174   -8.4529   26.7190 C   0  0  0  0  0  0  0  0  0  0  0  0
    0.3974   -7.0711   27.5149 C   0  0  0  0  0  0  0  0  0  0  0  0
    2.5338   -7.6891   16.0102 C   0  0  0  0  0  0  0  0  0  0  0  0
    4.8690   -7.4380   26.4151 C   0  0  0  0  0  0  0  0  0  0  0  0
    2.3021   -5.6726   26.0378 C   0  0  0  0  0  0  0  0  0  0  0  0
    7.0880   -4.6163   27.0010 C   0  0  0  0  0  0  0  0  0  0  0  0
    8.3117   -4.3698   27.4436 C   0  0  0  0  0  0  0  0  0  0  0  0
    1.1339   -5.0515   26.3541 C   0  0  0  0  0  0  0  0  0  0  0  0
    4.8080   -8.0362   16.7101 C   0  0  0  0  0  0  0  0  0  0  0  0
   -1.2173   -3.9294   26.9717 O   0  0  0  0  0  0  0  0  0  0  0  0
   -1.0025   -5.0942   27.4586 C   0  0  0  0  0  0  0  0  0  0  0  0
    2.2474   -8.9123   16.6273 C   0  0  0  0  0  0  0  0  0  0  0  0
    4.4957   -9.2636   17.3041 C   0  0  0  0  0  0  0  0  0  0  0  0
   -1.8070   -5.6086   28.1920 O   0  0  0  0  0  0  0  0  0  0  0  0
   10.4296   -5.1799   28.3140 C   0  0  0  0  0  0  0  0  0  0  0  0
    6.6017   -5.9004   26.9187 C   0  0  0  0  0  0  0  0  0  0  0  0
    2.4761   -6.9940   26.4111 N   0  0  0  0  0  0  0  0  0  0  0  0
    9.1353   -5.4053   27.8239 C   0  0  0  0  0  0  0  0  0  0  0  0
    0.9922   -9.3232   16.5995 O   0  0  0  0  0  0  0  0  0  0  0  0
    1.5232   -7.6869   27.1182 C   0  0  0  0  0  0  0  0  0  0  0  0
    8.6878   -6.6715   27.7262 N   0  0  0  0  0  0  0  0  0  0  0  0
    6.9911   -8.2423   27.1808 C   0  0  0  0  0  0  0  0  0  0  0  0
    3.8436   -7.2758   16.0578 C   0  0  0  0  0  0  0  0  0  0  0  0
    3.1882   -9.7190   17.2566 C   0  0  0  0  0  0  0  0  0  0  0  0
    5.3488   -6.1737   26.5092 C   0  0  0  0  0  0  0  0  0  0  0  0
    7.4567   -6.9464   27.2858 C   0  0  0  0  0  0  0  0  0  0  0  0
    0.1921   -5.7592   27.1123 C   0  0  0  0  0  0  0  0  0  0  0  0
    3.5517   -7.7407   25.9711 C   0  0  0  0  0  0  0  0  0  0  0  0
  1  4  4  0
  1 22  4  0
  2 20  4  0
  2 27  4  0
  3 12  4  0
  3 23  4  0
  4 25  4  0
  4 28  1  0
  5  8  4  0
  5 17  4  0
  6  7  4  0
  6 16  4  0
  7 18  4  0
  8 27  4  0
  9 13  4  0
  9 23  4  0
 10 11  1  0
 11 14  2  0
 11 27  1  0
 12 19  1  0
 12 24  4  0
 13 24  4  0
 15 18  1  0
 16 25  4  0
 16 26  4  0
 17 20  4  0
 17 28  1  0
 18 21  4  0
 21 26  4  0
 22 26  4  0
M  END
$$$$

 Created by Python create_sdf_string function

 28 30  0  0  0  0  0  0  0  0999 V2000
    5.7174   -8.4529   26.7190 C   0  0  0  0  0  0  0  0  0  0  0  0
    0.3974   -7.0711   27.5149 C   0  0  0  0  0  0  0  0  0  0  0  0
    2.5338   -7.6891   16.0102 C   0  0  0  0  0  0  0  0  0  0  0  0
    4.8690   -7.4380   26.4151 C   0  0  0  0  0  0  0  0  0  0  0  0
    2.3021   -5.6726   26.0378 C   0  0  0  0  0  0  0  0  0  0  0  0
    7.0880   -4.6163   27.0010 C   0  0  0  0  0  0  0  0  0  0  0  0
    8.3117   -4.3698   27.4436 C   0  0  0  0  0  0  0  0  0  0  0  0
    1.1339   -5.0515   26.3541 C   0  0  0  0  0  0  0  0  0  0  0  0
    4.8080   -8.0362   16.7101 C   0  0  0  0  0  0  0  0  0  0  0  0
   -1.2173   -3.9294   26.9717 O   0  0  0  0  0  0  0  0  0  0  0  0
   -1.0025   -5.0942   27.4586 C   0  0  0  0  0  0  0  0  0  0  0  0
    2.2474   -8.9123   16.6273 C   0  0  0  0  0  0  0  0  0  0  0  0
    4.4957   -9.2636   17.3041 C   0  0  0  0  0  0  0  0  0  0  0  0
   -1.8070   -5.6086   28.1920 O   0  0  0  0  0  0  0  0  0  0  0  0
   10.4296   -5.1799   28.3140 C   0  0  0  0  0  0  0  0  0  0  0  0
    6.6017   -5.9004   26.9187 C   0  0  0  0  0  0  0  0  0  0  0  0
    2.4761   -6.9940   26.4111 N   0  0  0  0  0  0  0  0  0  0  0  0
    9.1353   -5.4053   27.8239 C   0  0  0  0  0  0  0  0  0  0  0  0
    0.9922   -9.3232   16.5995 O   0  0  0  0  0  0  0  0  0  0  0  0
    1.5232   -7.6869   27.1182 C   0  0  0  0  0  0  0  0  0  0  0  0
    8.6878   -6.6715   27.7262 N   0  0  0  0  0  0  0  0  0  0  0  0
    6.9911   -8.2423   27.1808 C   0  0  0  0  0  0  0  0  0  0  0  0
    3.8436   -7.2758   16.0578 C   0  0  0  0  0  0  0  0  0  0  0  0
    3.1882   -9.7190   17.2566 C   0  0  0  0  0  0  0  0  0  0  0  0
    5.3488   -6.1737   26.5092 C   0  0  0  0  0  0  0  0  0  0  0  0
    7.4567   -6.9464   27.2858 C   0  0  0  0  0  0  0  0  0  0  0  0
    0.1921   -5.7592   27.1123 C   0  0  0  0  0  0  0  0  0  0  0  0
    3.5517   -7.7407   25.9711 C   0  0  0  0  0  0  0  0  0  0  0  0
  1  4  4  0
  1 22  4  0
  2 20  4  0
  2 27  4  0
  3 12  4  0
  3 23  4  0
  4 25  4  0
  4 28  1  0
  5  8  4  0
  5 17  4  0
  6  7  4  0
  6 16  4  0
  7 18  4  0
  8 27  4  0
  9 13  4  0
  9 23  4  0
 10 11  1  0
 11 14  2  0
 11 27  1  0
 12 19  1  0
 12 24  4  0
 13 24  4  0
 15 18  1  0
 16 25  4  0
 16 26  4  0
 17 20  4  0
 17 28  1  0
 18 21  4  0
 21 26  4  0
 22 26  4  0
M  END
$$$$

 Created by Python create_sdf_string function

 28 30  0  0  0  0  0  0  0  0999 V2000
    5.7174   -8.4529   26.7190 C   0  0  0  0  0  0  0  0  0  0  0  0
    0.3974   -7.0711   27.5149 C   0  0  0  0  0  0  0  0  0  0  0  0
    2.5338   -7.6891   16.0102 C   0  0  0  0  0  0  0  0  0  0  0  0
    4.8690   -7.4380   26.4151 C   0  0  0  0  0  0  0  0  0  0  0  0
    2.3021   -5.6726   26.0378 C   0  0  0  0  0  0  0  0  0  0  0  0
    7.0880   -4.6163   27.0010 C   0  0  0  0  0  0  0  0  0  0  0  0
    8.3117   -4.3698   27.4436 C   0  0  0  0  0  0  0  0  0  0  0  0
    1.1339   -5.0515   26.3541 C   0  0  0  0  0  0  0  0  0  0  0  0
    4.8080   -8.0362   16.7101 C   0  0  0  0  0  0  0  0  0  0  0  0
   -1.2173   -3.9294   26.9717 O   0  0  0  0  0  0  0  0  0  0  0  0
   -1.0025   -5.0942   27.4586 C   0  0  0  0  0  0  0  0  0  0  0  0
    2.2474   -8.9123   16.6273 C   0  0  0  0  0  0  0  0  0  0  0  0
    4.4957   -9.2636   17.3041 C   0  0  0  0  0  0  0  0  0  0  0  0
   -1.8070   -5.6086   28.1920 O   0  0  0  0  0  0  0  0  0  0  0  0
   10.4296   -5.1799   28.3140 C   0  0  0  0  0  0  0  0  0  0  0  0
    6.6017   -5.9004   26.9187 C   0  0  0  0  0  0  0  0  0  0  0  0
    2.4761   -6.9940   26.4111 N   0  0  0  0  0  0  0  0  0  0  0  0
    9.1353   -5.4053   27.8239 C   0  0  0  0  0  0  0  0  0  0  0  0
    0.9922   -9.3232   16.5995 O   0  0  0  0  0  0  0  0  0  0  0  0
    1.5232   -7.6869   27.1182 C   0  0  0  0  0  0  0  0  0  0  0  0
    8.6878   -6.6715   27.7262 N   0  0  0  0  0  0  0  0  0  0  0  0
    6.9911   -8.2423   27.1808 C   0  0  0  0  0  0  0  0  0  0  0  0
    3.8436   -7.2758   16.0578 C   0  0  0  0  0  0  0  0  0  0  0  0
    3.1882   -9.7190   17.2566 C   0  0  0  0  0  0  0  0  0  0  0  0
    5.3488   -6.1737   26.5092 C   0  0  0  0  0  0  0  0  0  0  0  0
    7.4567   -6.9464   27.2858 C   0  0  0  0  0  0  0  0  0  0  0  0
    0.1921   -5.7592   27.1123 C   0  0  0  0  0  0  0  0  0  0  0  0
    3.5517   -7.7407   25.9711 C   0  0  0  0  0  0  0  0  0  0  0  0
  1  4  4  0
  1 22  4  0
  2 20  4  0
  2 27  4  0
  3 12  4  0
  3 23  4  0
  4 25  4  0
  4 28  1  0
  5  8  4  0
  5 17  4  0
  6  7  4  0
  6 16  4  0
  7 18  4  0
  8 27  4  0
  9 13  4  0
  9 23  4  0
 10 11  1  0
 11 14  2  0
 11 27  1  0
 12 19  1  0
 12 24  4  0
 13 24  4  0
 15 18  1  0
 16 25  4  0
 16 26  4  0
 17 20  4  0
 17 28  1  0
 18 21  4  0
 21 26  4  0
 22 26  4  0
M  END
$$$$

 Created by Python create_sdf_string function

 28 30  0  0  0  0  0  0  0  0999 V2000
    5.7174   -8.4529   26.7190 C   0  0  0  0  0  0  0  0  0  0  0  0
    0.3974   -7.0711   27.5149 C   0  0  0  0  0  0  0  0  0  0  0  0
    2.5338   -7.6891   16.0102 C   0  0  0  0  0  0  0  0  0  0  0  0
    4.8690   -7.4380   26.4151 C   0  0  0  0  0  0  0  0  0  0  0  0
    2.3021   -5.6726   26.0378 C   0  0  0  0  0  0  0  0  0  0  0  0
    7.0880   -4.6163   27.0010 C   0  0  0  0  0  0  0  0  0  0  0  0
    8.3117   -4.3698   27.4436 C   0  0  0  0  0  0  0  0  0  0  0  0
    1.1339   -5.0515   26.3541 C   0  0  0  0  0  0  0  0  0  0  0  0
    4.8080   -8.0362   16.7101 C   0  0  0  0  0  0  0  0  0  0  0  0
   -1.2173   -3.9294   26.9717 O   0  0  0  0  0  0  0  0  0  0  0  0
   -1.0025   -5.0942   27.4586 C   0  0  0  0  0  0  0  0  0  0  0  0
    2.2474   -8.9123   16.6273 C   0  0  0  0  0  0  0  0  0  0  0  0
    4.4957   -9.2636   17.3041 C   0  0  0  0  0  0  0  0  0  0  0  0
   -1.8070   -5.6086   28.1920 O   0  0  0  0  0  0  0  0  0  0  0  0
   10.4296   -5.1799   28.3140 C   0  0  0  0  0  0  0  0  0  0  0  0
    6.6017   -5.9004   26.9187 C   0  0  0  0  0  0  0  0  0  0  0  0
    2.4761   -6.9940   26.4111 N   0  0  0  0  0  0  0  0  0  0  0  0
    9.1353   -5.4053   27.8239 C   0  0  0  0  0  0  0  0  0  0  0  0
    0.9922   -9.3232   16.5995 O   0  0  0  0  0  0  0  0  0  0  0  0
    1.5232   -7.6869   27.1182 C   0  0  0  0  0  0  0  0  0  0  0  0
    8.6878   -6.6715   27.7262 N   0  0  0  0  0  0  0  0  0  0  0  0
    6.9911   -8.2423   27.1808 C   0  0  0  0  0  0  0  0  0  0  0  0
    3.8436   -7.2758   16.0578 C   0  0  0  0  0  0  0  0  0  0  0  0
    3.1882   -9.7190   17.2566 C   0  0  0  0  0  0  0  0  0  0  0  0
    5.3488   -6.1737   26.5092 C   0  0  0  0  0  0  0  0  0  0  0  0
    7.4567   -6.9464   27.2858 C   0  0  0  0  0  0  0  0  0  0  0  0
    0.1921   -5.7592   27.1123 C   0  0  0  0  0  0  0  0  0  0  0  0
    3.5517   -7.7407   25.9711 C   0  0  0  0  0  0  0  0  0  0  0  0
  1  4  4  0
  1 22  4  0
  2 20  4  0
  2 27  4  0
  3 12  4  0
  3 23  4  0
  4 25  4  0
  4 28  1  0
  5  8  4  0
  5 17  4  0
  6  7  4  0
  6 16  4  0
  7 18  4  0
  8 27  4  0
  9 13  4  0
  9 23  4  0
 10 11  1  0
 11 14  2  0
 11 27  1  0
 12 19  1  0
 12 24  4  0
 13 24  4  0
 15 18  1  0
 16 25  4  0
 16 26  4  0
 17 20  4  0
 17 28  1  0
 18 21  4  0
 21 26  4  0
 22 26  4  0
M  END
$$$$

 Created by Python create_sdf_string function

 28 30  0  0  0  0  0  0  0  0999 V2000
    5.7174   -8.4529   26.7190 C   0  0  0  0  0  0  0  0  0  0  0  0
    0.3974   -7.0711   27.5149 C   0  0  0  0  0  0  0  0  0  0  0  0
    2.5338   -7.6891   16.0102 C   0  0  0  0  0  0  0  0  0  0  0  0
    4.8690   -7.4380   26.4151 C   0  0  0  0  0  0  0  0  0  0  0  0
    2.3021   -5.6726   26.0378 C   0  0  0  0  0  0  0  0  0  0  0  0
    7.0880   -4.6163   27.0010 C   0  0  0  0  0  0  0  0  0  0  0  0
    8.3117   -4.3698   27.4436 C   0  0  0  0  0  0  0  0  0  0  0  0
    1.1339   -5.0515   26.3541 C   0  0  0  0  0  0  0  0  0  0  0  0
    4.8080   -8.0362   16.7101 C   0  0  0  0  0  0  0  0  0  0  0  0
   -1.2173   -3.9294   26.9717 O   0  0  0  0  0  0  0  0  0  0  0  0
   -1.0025   -5.0942   27.4586 C   0  0  0  0  0  0  0  0  0  0  0  0
    2.2474   -8.9123   16.6273 C   0  0  0  0  0  0  0  0  0  0  0  0
    4.4957   -9.2636   17.3041 C   0  0  0  0  0  0  0  0  0  0  0  0
   -1.8070   -5.6086   28.1920 O   0  0  0  0  0  0  0  0  0  0  0  0
   10.4296   -5.1799   28.3140 C   0  0  0  0  0  0  0  0  0  0  0  0
    6.6017   -5.9004   26.9187 C   0  0  0  0  0  0  0  0  0  0  0  0
    2.4761   -6.9940   26.4111 N   0  0  0  0  0  0  0  0  0  0  0  0
    9.1353   -5.4053   27.8239 C   0  0  0  0  0  0  0  0  0  0  0  0
    0.9922   -9.3232   16.5995 O   0  0  0  0  0  0  0  0  0  0  0  0
    1.5232   -7.6869   27.1182 C   0  0  0  0  0  0  0  0  0  0  0  0
    8.6878   -6.6715   27.7262 N   0  0  0  0  0  0  0  0  0  0  0  0
    6.9911   -8.2423   27.1808 C   0  0  0  0  0  0  0  0  0  0  0  0
    3.8436   -7.2758   16.0578 C   0  0  0  0  0  0  0  0  0  0  0  0
    3.1882   -9.7190   17.2566 C   0  0  0  0  0  0  0  0  0  0  0  0
    5.3488   -6.1737   26.5092 C   0  0  0  0  0  0  0  0  0  0  0  0
    7.4567   -6.9464   27.2858 C   0  0  0  0  0  0  0  0  0  0  0  0
    0.1921   -5.7592   27.1123 C   0  0  0  0  0  0  0  0  0  0  0  0
    3.5517   -7.7407   25.9711 C   0  0  0  0  0  0  0  0  0  0  0  0
  1  4  4  0
  1 22  4  0
  2 20  4  0
  2 27  4  0
  3 12  4  0
  3 23  4  0
  4 25  4  0
  4 28  1  0
  5  8  4  0
  5 17  4  0
  6  7  4  0
  6 16  4  0
  7 18  4  0
  8 27  4  0
  9 13  4  0
  9 23  4  0
 10 11  1  0
 11 14  2  0
 11 27  1  0
 12 19  1  0
 12 24  4  0
 13 24  4  0
 15 18  1  0
 16 25  4  0
 16 26  4  0
 17 20  4  0
 17 28  1  0
 18 21  4  0
 21 26  4  0
 22 26  4  0
M  END
$$$$

 Created by Python create_sdf_string function

 28 30  0  0  0  0  0  0  0  0999 V2000
    5.7174   -8.4529   26.7190 C   0  0  0  0  0  0  0  0  0  0  0  0
    0.3974   -7.0711   27.5149 C   0  0  0  0  0  0  0  0  0  0  0  0
    2.5338   -7.6891   16.0102 C   0  0  0  0  0  0  0  0  0  0  0  0
    4.8690   -7.4380   26.4151 C   0  0  0  0  0  0  0  0  0  0  0  0
    2.3021   -5.6726   26.0378 C   0  0  0  0  0  0  0  0  0  0  0  0
    7.0880   -4.6163   27.0010 C   0  0  0  0  0  0  0  0  0  0  0  0
    8.3117   -4.3698   27.4436 C   0  0  0  0  0  0  0  0  0  0  0  0
    1.1339   -5.0515   26.3541 C   0  0  0  0  0  0  0  0  0  0  0  0
    4.8080   -8.0362   16.7101 C   0  0  0  0  0  0  0  0  0  0  0  0
   -1.2173   -3.9294   26.9717 O   0  0  0  0  0  0  0  0  0  0  0  0
   -1.0025   -5.0942   27.4586 C   0  0  0  0  0  0  0  0  0  0  0  0
    2.2474   -8.9123   16.6273 C   0  0  0  0  0  0  0  0  0  0  0  0
    4.4957   -9.2636   17.3041 C   0  0  0  0  0  0  0  0  0  0  0  0
   -1.8070   -5.6086   28.1920 O   0  0  0  0  0  0  0  0  0  0  0  0
   10.4296   -5.1799   28.3140 C   0  0  0  0  0  0  0  0  0  0  0  0
    6.6017   -5.9004   26.9187 C   0  0  0  0  0  0  0  0  0  0  0  0
    2.4761   -6.9940   26.4111 N   0  0  0  0  0  0  0  0  0  0  0  0
    9.1353   -5.4053   27.8239 C   0  0  0  0  0  0  0  0  0  0  0  0
    0.9922   -9.3232   16.5995 O   0  0  0  0  0  0  0  0  0  0  0  0
    1.5232   -7.6869   27.1182 C   0  0  0  0  0  0  0  0  0  0  0  0
    8.6878   -6.6715   27.7262 N   0  0  0  0  0  0  0  0  0  0  0  0
    6.9911   -8.2423   27.1808 C   0  0  0  0  0  0  0  0  0  0  0  0
    3.8436   -7.2758   16.0578 C   0  0  0  0  0  0  0  0  0  0  0  0
    3.1882   -9.7190   17.2566 C   0  0  0  0  0  0  0  0  0  0  0  0
    5.3488   -6.1737   26.5092 C   0  0  0  0  0  0  0  0  0  0  0  0
    7.4567   -6.9464   27.2858 C   0  0  0  0  0  0  0  0  0  0  0  0
    0.1921   -5.7592   27.1123 C   0  0  0  0  0  0  0  0  0  0  0  0
    3.5517   -7.7407   25.9711 C   0  0  0  0  0  0  0  0  0  0  0  0
  1  4  4  0
  1 22  4  0
  2 20  4  0
  2 27  4  0
  3 12  4  0
  3 23  4  0
  4 25  4  0
  4 28  1  0
  5  8  4  0
  5 17  4  0
  6  7  4  0
  6 16  4  0
  7 18  4  0
  8 27  4  0
  9 13  4  0
  9 23  4  0
 10 11  1  0
 11 14  2  0
 11 27  1  0
 12 19  1  0
 12 24  4  0
 13 24  4  0
 15 18  1  0
 16 25  4  0
 16 26  4  0
 17 20  4  0
 17 28  1  0
 18 21  4  0
 21 26  4  0
 22 26  4  0
M  END
$$$$

 Created by Python create_sdf_string function

 28 30  0  0  0  0  0  0  0  0999 V2000
    5.7174   -8.4529   26.7190 C   0  0  0  0  0  0  0  0  0  0  0  0
    0.3974   -7.0711   27.5149 C   0  0  0  0  0  0  0  0  0  0  0  0
    2.5338   -7.6891   16.0102 C   0  0  0  0  0  0  0  0  0  0  0  0
    4.8690   -7.4380   26.4151 C   0  0  0  0  0  0  0  0  0  0  0  0
    2.3021   -5.6726   26.0378 C   0  0  0  0  0  0  0  0  0  0  0  0
    7.0880   -4.6163   27.0010 C   0  0  0  0  0  0  0  0  0  0  0  0
    8.3117   -4.3698   27.4436 C   0  0  0  0  0  0  0  0  0  0  0  0
    1.1339   -5.0515   26.3541 C   0  0  0  0  0  0  0  0  0  0  0  0
    4.8080   -8.0362   16.7101 C   0  0  0  0  0  0  0  0  0  0  0  0
   -1.2173   -3.9294   26.9717 O   0  0  0  0  0  0  0  0  0  0  0  0
   -1.0025   -5.0942   27.4586 C   0  0  0  0  0  0  0  0  0  0  0  0
    2.2474   -8.9123   16.6273 C   0  0  0  0  0  0  0  0  0  0  0  0
    4.4957   -9.2636   17.3041 C   0  0  0  0  0  0  0  0  0  0  0  0
   -1.8070   -5.6086   28.1920 O   0  0  0  0  0  0  0  0  0  0  0  0
   10.4296   -5.1799   28.3140 C   0  0  0  0  0  0  0  0  0  0  0  0
    6.6017   -5.9004   26.9187 C   0  0  0  0  0  0  0  0  0  0  0  0
    2.4761   -6.9940   26.4111 N   0  0  0  0  0  0  0  0  0  0  0  0
    9.1353   -5.4053   27.8239 C   0  0  0  0  0  0  0  0  0  0  0  0
    0.9922   -9.3232   16.5995 O   0  0  0  0  0  0  0  0  0  0  0  0
    1.5232   -7.6869   27.1182 C   0  0  0  0  0  0  0  0  0  0  0  0
    8.6878   -6.6715   27.7262 N   0  0  0  0  0  0  0  0  0  0  0  0
    6.9911   -8.2423   27.1808 C   0  0  0  0  0  0  0  0  0  0  0  0
    3.8436   -7.2758   16.0578 C   0  0  0  0  0  0  0  0  0  0  0  0
    3.1882   -9.7190   17.2566 C   0  0  0  0  0  0  0  0  0  0  0  0
    5.3488   -6.1737   26.5092 C   0  0  0  0  0  0  0  0  0  0  0  0
    7.4567   -6.9464   27.2858 C   0  0  0  0  0  0  0  0  0  0  0  0
    0.1921   -5.7592   27.1123 C   0  0  0  0  0  0  0  0  0  0  0  0
    3.5517   -7.7407   25.9711 C   0  0  0  0  0  0  0  0  0  0  0  0
  1  4  4  0
  1 22  4  0
  2 20  4  0
  2 27  4  0
  3 12  4  0
  3 23  4  0
  4 25  4  0
  4 28  1  0
  5  8  4  0
  5 17  4  0
  6  7  4  0
  6 16  4  0
  7 18  4  0
  8 27  4  0
  9 13  4  0
  9 23  4  0
 10 11  1  0
 11 14  2  0
 11 27  1  0
 12 19  1  0
 12 24  4  0
 13 24  4  0
 15 18  1  0
 16 25  4  0
 16 26  4  0
 17 20  4  0
 17 28  1  0
 18 21  4  0
 21 26  4  0
 22 26  4  0
M  END
$$$$

 Created by Python create_sdf_string function

 28 30  0  0  0  0  0  0  0  0999 V2000
    5.7174   -8.4529   26.7190 C   0  0  0  0  0  0  0  0  0  0  0  0
    0.3974   -7.0711   27.5149 C   0  0  0  0  0  0  0  0  0  0  0  0
    2.5338   -7.6891   16.0102 C   0  0  0  0  0  0  0  0  0  0  0  0
    4.8690   -7.4380   26.4151 C   0  0  0  0  0  0  0  0  0  0  0  0
    2.3021   -5.6726   26.0378 C   0  0  0  0  0  0  0  0  0  0  0  0
    7.0880   -4.6163   27.0010 C   0  0  0  0  0  0  0  0  0  0  0  0
    8.3117   -4.3698   27.4436 C   0  0  0  0  0  0  0  0  0  0  0  0
    1.1339   -5.0515   26.3541 C   0  0  0  0  0  0  0  0  0  0  0  0
    4.8080   -8.0362   16.7101 C   0  0  0  0  0  0  0  0  0  0  0  0
   -1.2173   -3.9294   26.9717 O   0  0  0  0  0  0  0  0  0  0  0  0
   -1.0025   -5.0942   27.4586 C   0  0  0  0  0  0  0  0  0  0  0  0
    2.2474   -8.9123   16.6273 C   0  0  0  0  0  0  0  0  0  0  0  0
    4.4957   -9.2636   17.3041 C   0  0  0  0  0  0  0  0  0  0  0  0
   -1.8070   -5.6086   28.1920 O   0  0  0  0  0  0  0  0  0  0  0  0
   10.4296   -5.1799   28.3140 C   0  0  0  0  0  0  0  0  0  0  0  0
    6.6017   -5.9004   26.9187 C   0  0  0  0  0  0  0  0  0  0  0  0
    2.4761   -6.9940   26.4111 N   0  0  0  0  0  0  0  0  0  0  0  0
    9.1353   -5.4053   27.8239 C   0  0  0  0  0  0  0  0  0  0  0  0
    0.9922   -9.3232   16.5995 O   0  0  0  0  0  0  0  0  0  0  0  0
    1.5232   -7.6869   27.1182 C   0  0  0  0  0  0  0  0  0  0  0  0
    8.6878   -6.6715   27.7262 N   0  0  0  0  0  0  0  0  0  0  0  0
    6.9911   -8.2423   27.1808 C   0  0  0  0  0  0  0  0  0  0  0  0
    3.8436   -7.2758   16.0578 C   0  0  0  0  0  0  0  0  0  0  0  0
    3.1882   -9.7190   17.2566 C   0  0  0  0  0  0  0  0  0  0  0  0
    5.3488   -6.1737   26.5092 C   0  0  0  0  0  0  0  0  0  0  0  0
    7.4567   -6.9464   27.2858 C   0  0  0  0  0  0  0  0  0  0  0  0
    0.1921   -5.7592   27.1123 C   0  0  0  0  0  0  0  0  0  0  0  0
    3.5517   -7.7407   25.9711 C   0  0  0  0  0  0  0  0  0  0  0  0
  1  4  4  0
  1 22  4  0
  2 20  4  0
  2 27  4  0
  3 12  4  0
  3 23  4  0
  4 25  4  0
  4 28  1  0
  5  8  4  0
  5 17  4  0
  6  7  4  0
  6 16  4  0
  7 18  4  0
  8 27  4  0
  9 13  4  0
  9 23  4  0
 10 11  1  0
 11 14  2  0
 11 27  1  0
 12 19  1  0
 12 24  4  0
 13 24  4  0
 15 18  1  0
 16 25  4  0
 16 26  4  0
 17 20  4  0
 17 28  1  0
 18 21  4  0
 21 26  4  0
 22 26  4  0
M  END
$$$$

 Created by Python create_sdf_string function

 28 30  0  0  0  0  0  0  0  0999 V2000
    5.7174   -8.4529   26.7190 C   0  0  0  0  0  0  0  0  0  0  0  0
    0.3974   -7.0711   27.5149 C   0  0  0  0  0  0  0  0  0  0  0  0
    2.5338   -7.6891   16.0102 C   0  0  0  0  0  0  0  0  0  0  0  0
    4.8690   -7.4380   26.4151 C   0  0  0  0  0  0  0  0  0  0  0  0
    2.3021   -5.6726   26.0378 C   0  0  0  0  0  0  0  0  0  0  0  0
    7.0880   -4.6163   27.0010 C   0  0  0  0  0  0  0  0  0  0  0  0
    8.3117   -4.3698   27.4436 C   0  0  0  0  0  0  0  0  0  0  0  0
    1.1339   -5.0515   26.3541 C   0  0  0  0  0  0  0  0  0  0  0  0
    4.8080   -8.0362   16.7101 C   0  0  0  0  0  0  0  0  0  0  0  0
   -1.2173   -3.9294   26.9717 O   0  0  0  0  0  0  0  0  0  0  0  0
   -1.0025   -5.0942   27.4586 C   0  0  0  0  0  0  0  0  0  0  0  0
    2.2474   -8.9123   16.6273 C   0  0  0  0  0  0  0  0  0  0  0  0
    4.4957   -9.2636   17.3041 C   0  0  0  0  0  0  0  0  0  0  0  0
   -1.8070   -5.6086   28.1920 O   0  0  0  0  0  0  0  0  0  0  0  0
   10.4296   -5.1799   28.3140 C   0  0  0  0  0  0  0  0  0  0  0  0
    6.6017   -5.9004   26.9187 C   0  0  0  0  0  0  0  0  0  0  0  0
    2.4761   -6.9940   26.4111 N   0  0  0  0  0  0  0  0  0  0  0  0
    9.1353   -5.4053   27.8239 C   0  0  0  0  0  0  0  0  0  0  0  0
    0.9922   -9.3232   16.5995 O   0  0  0  0  0  0  0  0  0  0  0  0
    1.5232   -7.6869   27.1182 C   0  0  0  0  0  0  0  0  0  0  0  0
    8.6878   -6.6715   27.7262 N   0  0  0  0  0  0  0  0  0  0  0  0
    6.9911   -8.2423   27.1808 C   0  0  0  0  0  0  0  0  0  0  0  0
    3.8436   -7.2758   16.0578 C   0  0  0  0  0  0  0  0  0  0  0  0
    3.1882   -9.7190   17.2566 C   0  0  0  0  0  0  0  0  0  0  0  0
    5.3488   -6.1737   26.5092 C   0  0  0  0  0  0  0  0  0  0  0  0
    7.4567   -6.9464   27.2858 C   0  0  0  0  0  0  0  0  0  0  0  0
    0.1921   -5.7592   27.1123 C   0  0  0  0  0  0  0  0  0  0  0  0
    3.5517   -7.7407   25.9711 C   0  0  0  0  0  0  0  0  0  0  0  0
  1  4  4  0
  1 22  4  0
  2 20  4  0
  2 27  4  0
  3 12  4  0
  3 23  4  0
  4 25  4  0
  4 28  1  0
  5  8  4  0
  5 17  4  0
  6  7  4  0
  6 16  4  0
  7 18  4  0
  8 27  4  0
  9 13  4  0
  9 23  4  0
 10 11  1  0
 11 14  2  0
 11 27  1  0
 12 19  1  0
 12 24  4  0
 13 24  4  0
 15 18  1  0
 16 25  4  0
 16 26  4  0
 17 20  4  0
 17 28  1  0
 18 21  4  0
 21 26  4  0
 22 26  4  0
M  END
$$$$

 Created by Python create_sdf_string function

 28 30  0  0  0  0  0  0  0  0999 V2000
    5.7174   -8.4529   26.7190 C   0  0  0  0  0  0  0  0  0  0  0  0
    0.3974   -7.0711   27.5149 C   0  0  0  0  0  0  0  0  0  0  0  0
    2.5338   -7.6891   16.0102 C   0  0  0  0  0  0  0  0  0  0  0  0
    4.8690   -7.4380   26.4151 C   0  0  0  0  0  0  0  0  0  0  0  0
    2.3021   -5.6726   26.0378 C   0  0  0  0  0  0  0  0  0  0  0  0
    7.0880   -4.6163   27.0010 C   0  0  0  0  0  0  0  0  0  0  0  0
    8.3117   -4.3698   27.4436 C   0  0  0  0  0  0  0  0  0  0  0  0
    1.1339   -5.0515   26.3541 C   0  0  0  0  0  0  0  0  0  0  0  0
    4.8080   -8.0362   16.7101 C   0  0  0  0  0  0  0  0  0  0  0  0
   -1.2173   -3.9294   26.9717 O   0  0  0  0  0  0  0  0  0  0  0  0
   -1.0025   -5.0942   27.4586 C   0  0  0  0  0  0  0  0  0  0  0  0
    2.2474   -8.9123   16.6273 C   0  0  0  0  0  0  0  0  0  0  0  0
    4.4957   -9.2636   17.3041 C   0  0  0  0  0  0  0  0  0  0  0  0
   -1.8070   -5.6086   28.1920 O   0  0  0  0  0  0  0  0  0  0  0  0
   10.4296   -5.1799   28.3140 C   0  0  0  0  0  0  0  0  0  0  0  0
    6.6017   -5.9004   26.9187 C   0  0  0  0  0  0  0  0  0  0  0  0
    2.4761   -6.9940   26.4111 N   0  0  0  0  0  0  0  0  0  0  0  0
    9.1353   -5.4053   27.8239 C   0  0  0  0  0  0  0  0  0  0  0  0
    0.9922   -9.3232   16.5995 O   0  0  0  0  0  0  0  0  0  0  0  0
    1.5232   -7.6869   27.1182 C   0  0  0  0  0  0  0  0  0  0  0  0
    8.6878   -6.6715   27.7262 N   0  0  0  0  0  0  0  0  0  0  0  0
    6.9911   -8.2423   27.1808 C   0  0  0  0  0  0  0  0  0  0  0  0
    3.8436   -7.2758   16.0578 C   0  0  0  0  0  0  0  0  0  0  0  0
    3.1882   -9.7190   17.2566 C   0  0  0  0  0  0  0  0  0  0  0  0
    5.3488   -6.1737   26.5092 C   0  0  0  0  0  0  0  0  0  0  0  0
    7.4567   -6.9464   27.2858 C   0  0  0  0  0  0  0  0  0  0  0  0
    0.1921   -5.7592   27.1123 C   0  0  0  0  0  0  0  0  0  0  0  0
    3.5517   -7.7407   25.9711 C   0  0  0  0  0  0  0  0  0  0  0  0
  1  4  4  0
  1 22  4  0
  2 20  4  0
  2 27  4  0
  3 12  4  0
  3 23  4  0
  4 25  4  0
  4 28  1  0
  5  8  4  0
  5 17  4  0
  6  7  4  0
  6 16  4  0
  7 18  4  0
  8 27  4  0
  9 13  4  0
  9 23  4  0
 10 11  1  0
 11 14  2  0
 11 27  1  0
 12 19  1  0
 12 24  4  0
 13 24  4  0
 15 18  1  0
 16 25  4  0
 16 26  4  0
 17 20  4  0
 17 28  1  0
 18 21  4  0
 21 26  4  0
 22 26  4  0
M  END
$$$$

 Created by Python create_sdf_string function

 28 30  0  0  0  0  0  0  0  0999 V2000
    5.7174   -8.4529   26.7190 C   0  0  0  0  0  0  0  0  0  0  0  0
    0.3974   -7.0711   27.5149 C   0  0  0  0  0  0  0  0  0  0  0  0
    2.5338   -7.6891   16.0102 C   0  0  0  0  0  0  0  0  0  0  0  0
    4.8690   -7.4380   26.4151 C   0  0  0  0  0  0  0  0  0  0  0  0
    2.3021   -5.6726   26.0378 C   0  0  0  0  0  0  0  0  0  0  0  0
    7.0880   -4.6163   27.0010 C   0  0  0  0  0  0  0  0  0  0  0  0
    8.3117   -4.3698   27.4436 C   0  0  0  0  0  0  0  0  0  0  0  0
    1.1339   -5.0515   26.3541 C   0  0  0  0  0  0  0  0  0  0  0  0
    4.8080   -8.0362   16.7101 C   0  0  0  0  0  0  0  0  0  0  0  0
   -1.2173   -3.9294   26.9717 O   0  0  0  0  0  0  0  0  0  0  0  0
   -1.0025   -5.0942   27.4586 C   0  0  0  0  0  0  0  0  0  0  0  0
    2.2474   -8.9123   16.6273 C   0  0  0  0  0  0  0  0  0  0  0  0
    4.4957   -9.2636   17.3041 C   0  0  0  0  0  0  0  0  0  0  0  0
   -1.8070   -5.6086   28.1920 O   0  0  0  0  0  0  0  0  0  0  0  0
   10.4296   -5.1799   28.3140 C   0  0  0  0  0  0  0  0  0  0  0  0
    6.6017   -5.9004   26.9187 C   0  0  0  0  0  0  0  0  0  0  0  0
    2.4761   -6.9940   26.4111 N   0  0  0  0  0  0  0  0  0  0  0  0
    9.1353   -5.4053   27.8239 C   0  0  0  0  0  0  0  0  0  0  0  0
    0.9922   -9.3232   16.5995 O   0  0  0  0  0  0  0  0  0  0  0  0
    1.5232   -7.6869   27.1182 C   0  0  0  0  0  0  0  0  0  0  0  0
    8.6878   -6.6715   27.7262 N   0  0  0  0  0  0  0  0  0  0  0  0
    6.9911   -8.2423   27.1808 C   0  0  0  0  0  0  0  0  0  0  0  0
    3.8436   -7.2758   16.0578 C   0  0  0  0  0  0  0  0  0  0  0  0
    3.1882   -9.7190   17.2566 C   0  0  0  0  0  0  0  0  0  0  0  0
    5.3488   -6.1737   26.5092 C   0  0  0  0  0  0  0  0  0  0  0  0
    7.4567   -6.9464   27.2858 C   0  0  0  0  0  0  0  0  0  0  0  0
    0.1921   -5.7592   27.1123 C   0  0  0  0  0  0  0  0  0  0  0  0
    3.5517   -7.7407   25.9711 C   0  0  0  0  0  0  0  0  0  0  0  0
  1  4  4  0
  1 22  4  0
  2 20  4  0
  2 27  4  0
  3 12  4  0
  3 23  4  0
  4 25  4  0
  4 28  1  0
  5  8  4  0
  5 17  4  0
  6  7  4  0
  6 16  4  0
  7 18  4  0
  8 27  4  0
  9 13  4  0
  9 23  4  0
 10 11  1  0
 11 14  2  0
 11 27  1  0
 12 19  1  0
 12 24  4  0
 13 24  4  0
 15 18  1  0
 16 25  4  0
 16 26  4  0
 17 20  4  0
 17 28  1  0
 18 21  4  0
 21 26  4  0
 22 26  4  0
M  END
$$$$

 Created by Python create_sdf_string function

 28 30  0  0  0  0  0  0  0  0999 V2000
    5.7174   -8.4529   26.7190 C   0  0  0  0  0  0  0  0  0  0  0  0
    0.3974   -7.0711   27.5149 C   0  0  0  0  0  0  0  0  0  0  0  0
    2.5338   -7.6891   16.0102 C   0  0  0  0  0  0  0  0  0  0  0  0
    4.8690   -7.4380   26.4151 C   0  0  0  0  0  0  0  0  0  0  0  0
    2.3021   -5.6726   26.0378 C   0  0  0  0  0  0  0  0  0  0  0  0
    7.0880   -4.6163   27.0010 C   0  0  0  0  0  0  0  0  0  0  0  0
    8.3117   -4.3698   27.4436 C   0  0  0  0  0  0  0  0  0  0  0  0
    1.1339   -5.0515   26.3541 C   0  0  0  0  0  0  0  0  0  0  0  0
    4.8080   -8.0362   16.7101 C   0  0  0  0  0  0  0  0  0  0  0  0
   -1.2173   -3.9294   26.9717 O   0  0  0  0  0  0  0  0  0  0  0  0
   -1.0025   -5.0942   27.4586 C   0  0  0  0  0  0  0  0  0  0  0  0
    2.2474   -8.9123   16.6273 C   0  0  0  0  0  0  0  0  0  0  0  0
    4.4957   -9.2636   17.3041 C   0  0  0  0  0  0  0  0  0  0  0  0
   -1.8070   -5.6086   28.1920 O   0  0  0  0  0  0  0  0  0  0  0  0
   10.4296   -5.1799   28.3140 C   0  0  0  0  0  0  0  0  0  0  0  0
    6.6017   -5.9004   26.9187 C   0  0  0  0  0  0  0  0  0  0  0  0
    2.4761   -6.9940   26.4111 N   0  0  0  0  0  0  0  0  0  0  0  0
    9.1353   -5.4053   27.8239 C   0  0  0  0  0  0  0  0  0  0  0  0
    0.9922   -9.3232   16.5995 O   0  0  0  0  0  0  0  0  0  0  0  0
    1.5232   -7.6869   27.1182 C   0  0  0  0  0  0  0  0  0  0  0  0
    8.6878   -6.6715   27.7262 N   0  0  0  0  0  0  0  0  0  0  0  0
    6.9911   -8.2423   27.1808 C   0  0  0  0  0  0  0  0  0  0  0  0
    3.8436   -7.2758   16.0578 C   0  0  0  0  0  0  0  0  0  0  0  0
    3.1882   -9.7190   17.2566 C   0  0  0  0  0  0  0  0  0  0  0  0
    5.3488   -6.1737   26.5092 C   0  0  0  0  0  0  0  0  0  0  0  0
    7.4567   -6.9464   27.2858 C   0  0  0  0  0  0  0  0  0  0  0  0
    0.1921   -5.7592   27.1123 C   0  0  0  0  0  0  0  0  0  0  0  0
    3.5517   -7.7407   25.9711 C   0  0  0  0  0  0  0  0  0  0  0  0
  1  4  4  0
  1 22  4  0
  2 20  4  0
  2 27  4  0
  3 12  4  0
  3 23  4  0
  4 25  4  0
  4 28  1  0
  5  8  4  0
  5 17  4  0
  6  7  4  0
  6 16  4  0
  7 18  4  0
  8 27  4  0
  9 13  4  0
  9 23  4  0
 10 11  1  0
 11 14  2  0
 11 27  1  0
 12 19  1  0
 12 24  4  0
 13 24  4  0
 15 18  1  0
 16 25  4  0
 16 26  4  0
 17 20  4  0
 17 28  1  0
 18 21  4  0
 21 26  4  0
 22 26  4  0
M  END
$$$$

 Created by Python create_sdf_string function

 28 30  0  0  0  0  0  0  0  0999 V2000
    5.7174   -8.4529   26.7190 C   0  0  0  0  0  0  0  0  0  0  0  0
    0.3974   -7.0711   27.5149 C   0  0  0  0  0  0  0  0  0  0  0  0
    2.5338   -7.6891   16.0102 C   0  0  0  0  0  0  0  0  0  0  0  0
    4.8690   -7.4380   26.4151 C   0  0  0  0  0  0  0  0  0  0  0  0
    2.3021   -5.6726   26.0378 C   0  0  0  0  0  0  0  0  0  0  0  0
    7.0880   -4.6163   27.0010 C   0  0  0  0  0  0  0  0  0  0  0  0
    8.3117   -4.3698   27.4436 C   0  0  0  0  0  0  0  0  0  0  0  0
    1.1339   -5.0515   26.3541 C   0  0  0  0  0  0  0  0  0  0  0  0
    4.8080   -8.0362   16.7101 C   0  0  0  0  0  0  0  0  0  0  0  0
   -1.2173   -3.9294   26.9717 O   0  0  0  0  0  0  0  0  0  0  0  0
   -1.0025   -5.0942   27.4586 C   0  0  0  0  0  0  0  0  0  0  0  0
    2.2474   -8.9123   16.6273 C   0  0  0  0  0  0  0  0  0  0  0  0
    4.4957   -9.2636   17.3041 C   0  0  0  0  0  0  0  0  0  0  0  0
   -1.8070   -5.6086   28.1920 O   0  0  0  0  0  0  0  0  0  0  0  0
   10.4296   -5.1799   28.3140 C   0  0  0  0  0  0  0  0  0  0  0  0
    6.6017   -5.9004   26.9187 C   0  0  0  0  0  0  0  0  0  0  0  0
    2.4761   -6.9940   26.4111 N   0  0  0  0  0  0  0  0  0  0  0  0
    9.1353   -5.4053   27.8239 C   0  0  0  0  0  0  0  0  0  0  0  0
    0.9922   -9.3232   16.5995 O   0  0  0  0  0  0  0  0  0  0  0  0
    1.5232   -7.6869   27.1182 C   0  0  0  0  0  0  0  0  0  0  0  0
    8.6878   -6.6715   27.7262 N   0  0  0  0  0  0  0  0  0  0  0  0
    6.9911   -8.2423   27.1808 C   0  0  0  0  0  0  0  0  0  0  0  0
    3.8436   -7.2758   16.0578 C   0  0  0  0  0  0  0  0  0  0  0  0
    3.1882   -9.7190   17.2566 C   0  0  0  0  0  0  0  0  0  0  0  0
    5.3488   -6.1737   26.5092 C   0  0  0  0  0  0  0  0  0  0  0  0
    7.4567   -6.9464   27.2858 C   0  0  0  0  0  0  0  0  0  0  0  0
    0.1921   -5.7592   27.1123 C   0  0  0  0  0  0  0  0  0  0  0  0
    3.5517   -7.7407   25.9711 C   0  0  0  0  0  0  0  0  0  0  0  0
  1  4  4  0
  1 22  4  0
  2 20  4  0
  2 27  4  0
  3 12  4  0
  3 23  4  0
  4 25  4  0
  4 28  1  0
  5  8  4  0
  5 17  4  0
  6  7  4  0
  6 16  4  0
  7 18  4  0
  8 27  4  0
  9 13  4  0
  9 23  4  0
 10 11  1  0
 11 14  2  0
 11 27  1  0
 12 19  1  0
 12 24  4  0
 13 24  4  0
 15 18  1  0
 16 25  4  0
 16 26  4  0
 17 20  4  0
 17 28  1  0
 18 21  4  0
 21 26  4  0
 22 26  4  0
M  END
$$$$

 Created by Python create_sdf_string function

 28 30  0  0  0  0  0  0  0  0999 V2000
    5.7174   -8.4529   26.7190 C   0  0  0  0  0  0  0  0  0  0  0  0
    0.3974   -7.0711   27.5149 C   0  0  0  0  0  0  0  0  0  0  0  0
    2.5338   -7.6891   16.0102 C   0  0  0  0  0  0  0  0  0  0  0  0
    4.8690   -7.4380   26.4151 C   0  0  0  0  0  0  0  0  0  0  0  0
    2.3021   -5.6726   26.0378 C   0  0  0  0  0  0  0  0  0  0  0  0
    7.0880   -4.6163   27.0010 C   0  0  0  0  0  0  0  0  0  0  0  0
    8.3117   -4.3698   27.4436 C   0  0  0  0  0  0  0  0  0  0  0  0
    1.1339   -5.0515   26.3541 C   0  0  0  0  0  0  0  0  0  0  0  0
    4.8080   -8.0362   16.7101 C   0  0  0  0  0  0  0  0  0  0  0  0
   -1.2173   -3.9294   26.9717 O   0  0  0  0  0  0  0  0  0  0  0  0
   -1.0025   -5.0942   27.4586 C   0  0  0  0  0  0  0  0  0  0  0  0
    2.2474   -8.9123   16.6273 C   0  0  0  0  0  0  0  0  0  0  0  0
    4.4957   -9.2636   17.3041 C   0  0  0  0  0  0  0  0  0  0  0  0
   -1.8070   -5.6086   28.1920 O   0  0  0  0  0  0  0  0  0  0  0  0
   10.4296   -5.1799   28.3140 C   0  0  0  0  0  0  0  0  0  0  0  0
    6.6017   -5.9004   26.9187 C   0  0  0  0  0  0  0  0  0  0  0  0
    2.4761   -6.9940   26.4111 N   0  0  0  0  0  0  0  0  0  0  0  0
    9.1353   -5.4053   27.8239 C   0  0  0  0  0  0  0  0  0  0  0  0
    0.9922   -9.3232   16.5995 O   0  0  0  0  0  0  0  0  0  0  0  0
    1.5232   -7.6869   27.1182 C   0  0  0  0  0  0  0  0  0  0  0  0
    8.6878   -6.6715   27.7262 N   0  0  0  0  0  0  0  0  0  0  0  0
    6.9911   -8.2423   27.1808 C   0  0  0  0  0  0  0  0  0  0  0  0
    3.8436   -7.2758   16.0578 C   0  0  0  0  0  0  0  0  0  0  0  0
    3.1882   -9.7190   17.2566 C   0  0  0  0  0  0  0  0  0  0  0  0
    5.3488   -6.1737   26.5092 C   0  0  0  0  0  0  0  0  0  0  0  0
    7.4567   -6.9464   27.2858 C   0  0  0  0  0  0  0  0  0  0  0  0
    0.1921   -5.7592   27.1123 C   0  0  0  0  0  0  0  0  0  0  0  0
    3.5517   -7.7407   25.9711 C   0  0  0  0  0  0  0  0  0  0  0  0
  1  4  4  0
  1 22  4  0
  2 20  4  0
  2 27  4  0
  3 12  4  0
  3 23  4  0
  4 25  4  0
  4 28  1  0
  5  8  4  0
  5 17  4  0
  6  7  4  0
  6 16  4  0
  7 18  4  0
  8 27  4  0
  9 13  4  0
  9 23  4  0
 10 11  1  0
 11 14  2  0
 11 27  1  0
 12 19  1  0
 12 24  4  0
 13 24  4  0
 15 18  1  0
 16 25  4  0
 16 26  4  0
 17 20  4  0
 17 28  1  0
 18 21  4  0
 21 26  4  0
 22 26  4  0
M  END
$$$$

 Created by Python create_sdf_string function

 28 30  0  0  0  0  0  0  0  0999 V2000
    5.7174   -8.4529   26.7190 C   0  0  0  0  0  0  0  0  0  0  0  0
    0.3974   -7.0711   27.5149 C   0  0  0  0  0  0  0  0  0  0  0  0
    2.5338   -7.6891   16.0102 C   0  0  0  0  0  0  0  0  0  0  0  0
    4.8690   -7.4380   26.4151 C   0  0  0  0  0  0  0  0  0  0  0  0
    2.3021   -5.6726   26.0378 C   0  0  0  0  0  0  0  0  0  0  0  0
    7.0880   -4.6163   27.0010 C   0  0  0  0  0  0  0  0  0  0  0  0
    8.3117   -4.3698   27.4436 C   0  0  0  0  0  0  0  0  0  0  0  0
    1.1339   -5.0515   26.3541 C   0  0  0  0  0  0  0  0  0  0  0  0
    4.8080   -8.0362   16.7101 C   0  0  0  0  0  0  0  0  0  0  0  0
   -1.2173   -3.9294   26.9717 O   0  0  0  0  0  0  0  0  0  0  0  0
   -1.0025   -5.0942   27.4586 C   0  0  0  0  0  0  0  0  0  0  0  0
    2.2474   -8.9123   16.6273 C   0  0  0  0  0  0  0  0  0  0  0  0
    4.4957   -9.2636   17.3041 C   0  0  0  0  0  0  0  0  0  0  0  0
   -1.8070   -5.6086   28.1920 O   0  0  0  0  0  0  0  0  0  0  0  0
   10.4296   -5.1799   28.3140 C   0  0  0  0  0  0  0  0  0  0  0  0
    6.6017   -5.9004   26.9187 C   0  0  0  0  0  0  0  0  0  0  0  0
    2.4761   -6.9940   26.4111 N   0  0  0  0  0  0  0  0  0  0  0  0
    9.1353   -5.4053   27.8239 C   0  0  0  0  0  0  0  0  0  0  0  0
    0.9922   -9.3232   16.5995 O   0  0  0  0  0  0  0  0  0  0  0  0
    1.5232   -7.6869   27.1182 C   0  0  0  0  0  0  0  0  0  0  0  0
    8.6878   -6.6715   27.7262 N   0  0  0  0  0  0  0  0  0  0  0  0
    6.9911   -8.2423   27.1808 C   0  0  0  0  0  0  0  0  0  0  0  0
    3.8436   -7.2758   16.0578 C   0  0  0  0  0  0  0  0  0  0  0  0
    3.1882   -9.7190   17.2566 C   0  0  0  0  0  0  0  0  0  0  0  0
    5.3488   -6.1737   26.5092 C   0  0  0  0  0  0  0  0  0  0  0  0
    7.4567   -6.9464   27.2858 C   0  0  0  0  0  0  0  0  0  0  0  0
    0.1921   -5.7592   27.1123 C   0  0  0  0  0  0  0  0  0  0  0  0
    3.5517   -7.7407   25.9711 C   0  0  0  0  0  0  0  0  0  0  0  0
  1  4  4  0
  1 22  4  0
  2 20  4  0
  2 27  4  0
  3 12  4  0
  3 23  4  0
  4 25  4  0
  4 28  1  0
  5  8  4  0
  5 17  4  0
  6  7  4  0
  6 16  4  0
  7 18  4  0
  8 27  4  0
  9 13  4  0
  9 23  4  0
 10 11  1  0
 11 14  2  0
 11 27  1  0
 12 19  1  0
 12 24  4  0
 13 24  4  0
 15 18  1  0
 16 25  4  0
 16 26  4  0
 17 20  4  0
 17 28  1  0
 18 21  4  0
 21 26  4  0
 22 26  4  0
M  END
$$$$

 Created by Python create_sdf_string function

 28 30  0  0  0  0  0  0  0  0999 V2000
    5.7174   -8.4529   26.7190 C   0  0  0  0  0  0  0  0  0  0  0  0
    0.3974   -7.0711   27.5149 C   0  0  0  0  0  0  0  0  0  0  0  0
    2.5338   -7.6891   16.0102 C   0  0  0  0  0  0  0  0  0  0  0  0
    4.8690   -7.4380   26.4151 C   0  0  0  0  0  0  0  0  0  0  0  0
    2.3021   -5.6726   26.0378 C   0  0  0  0  0  0  0  0  0  0  0  0
    7.0880   -4.6163   27.0010 C   0  0  0  0  0  0  0  0  0  0  0  0
    8.3117   -4.3698   27.4436 C   0  0  0  0  0  0  0  0  0  0  0  0
    1.1339   -5.0515   26.3541 C   0  0  0  0  0  0  0  0  0  0  0  0
    4.8080   -8.0362   16.7101 C   0  0  0  0  0  0  0  0  0  0  0  0
   -1.2173   -3.9294   26.9717 O   0  0  0  0  0  0  0  0  0  0  0  0
   -1.0025   -5.0942   27.4586 C   0  0  0  0  0  0  0  0  0  0  0  0
    2.2474   -8.9123   16.6273 C   0  0  0  0  0  0  0  0  0  0  0  0
    4.4957   -9.2636   17.3041 C   0  0  0  0  0  0  0  0  0  0  0  0
   -1.8070   -5.6086   28.1920 O   0  0  0  0  0  0  0  0  0  0  0  0
   10.4296   -5.1799   28.3140 C   0  0  0  0  0  0  0  0  0  0  0  0
    6.6017   -5.9004   26.9187 C   0  0  0  0  0  0  0  0  0  0  0  0
    2.4761   -6.9940   26.4111 N   0  0  0  0  0  0  0  0  0  0  0  0
    9.1353   -5.4053   27.8239 C   0  0  0  0  0  0  0  0  0  0  0  0
    0.9922   -9.3232   16.5995 O   0  0  0  0  0  0  0  0  0  0  0  0
    1.5232   -7.6869   27.1182 C   0  0  0  0  0  0  0  0  0  0  0  0
    8.6878   -6.6715   27.7262 N   0  0  0  0  0  0  0  0  0  0  0  0
    6.9911   -8.2423   27.1808 C   0  0  0  0  0  0  0  0  0  0  0  0
    3.8436   -7.2758   16.0578 C   0  0  0  0  0  0  0  0  0  0  0  0
    3.1882   -9.7190   17.2566 C   0  0  0  0  0  0  0  0  0  0  0  0
    5.3488   -6.1737   26.5092 C   0  0  0  0  0  0  0  0  0  0  0  0
    7.4567   -6.9464   27.2858 C   0  0  0  0  0  0  0  0  0  0  0  0
    0.1921   -5.7592   27.1123 C   0  0  0  0  0  0  0  0  0  0  0  0
    3.5517   -7.7407   25.9711 C   0  0  0  0  0  0  0  0  0  0  0  0
  1  4  4  0
  1 22  4  0
  2 20  4  0
  2 27  4  0
  3 12  4  0
  3 23  4  0
  4 25  4  0
  4 28  1  0
  5  8  4  0
  5 17  4  0
  6  7  4  0
  6 16  4  0
  7 18  4  0
  8 27  4  0
  9 13  4  0
  9 23  4  0
 10 11  1  0
 11 14  2  0
 11 27  1  0
 12 19  1  0
 12 24  4  0
 13 24  4  0
 15 18  1  0
 16 25  4  0
 16 26  4  0
 17 20  4  0
 17 28  1  0
 18 21  4  0
 21 26  4  0
 22 26  4  0
M  END
$$$$

 Created by Python create_sdf_string function

 28 30  0  0  0  0  0  0  0  0999 V2000
    5.7174   -8.4529   26.7190 C   0  0  0  0  0  0  0  0  0  0  0  0
    0.3974   -7.0711   27.5149 C   0  0  0  0  0  0  0  0  0  0  0  0
    2.5338   -7.6891   16.0102 C   0  0  0  0  0  0  0  0  0  0  0  0
    4.8690   -7.4380   26.4151 C   0  0  0  0  0  0  0  0  0  0  0  0
    2.3021   -5.6726   26.0378 C   0  0  0  0  0  0  0  0  0  0  0  0
    7.0880   -4.6163   27.0010 C   0  0  0  0  0  0  0  0  0  0  0  0
    8.3117   -4.3698   27.4436 C   0  0  0  0  0  0  0  0  0  0  0  0
    1.1339   -5.0515   26.3541 C   0  0  0  0  0  0  0  0  0  0  0  0
    4.8080   -8.0362   16.7101 C   0  0  0  0  0  0  0  0  0  0  0  0
   -1.2173   -3.9294   26.9717 O   0  0  0  0  0  0  0  0  0  0  0  0
   -1.0025   -5.0942   27.4586 C   0  0  0  0  0  0  0  0  0  0  0  0
    2.2474   -8.9123   16.6273 C   0  0  0  0  0  0  0  0  0  0  0  0
    4.4957   -9.2636   17.3041 C   0  0  0  0  0  0  0  0  0  0  0  0
   -1.8070   -5.6086   28.1920 O   0  0  0  0  0  0  0  0  0  0  0  0
   10.4296   -5.1799   28.3140 C   0  0  0  0  0  0  0  0  0  0  0  0
    6.6017   -5.9004   26.9187 C   0  0  0  0  0  0  0  0  0  0  0  0
    2.4761   -6.9940   26.4111 N   0  0  0  0  0  0  0  0  0  0  0  0
    9.1353   -5.4053   27.8239 C   0  0  0  0  0  0  0  0  0  0  0  0
    0.9922   -9.3232   16.5995 O   0  0  0  0  0  0  0  0  0  0  0  0
    1.5232   -7.6869   27.1182 C   0  0  0  0  0  0  0  0  0  0  0  0
    8.6878   -6.6715   27.7262 N   0  0  0  0  0  0  0  0  0  0  0  0
    6.9911   -8.2423   27.1808 C   0  0  0  0  0  0  0  0  0  0  0  0
    3.8436   -7.2758   16.0578 C   0  0  0  0  0  0  0  0  0  0  0  0
    3.1882   -9.7190   17.2566 C   0  0  0  0  0  0  0  0  0  0  0  0
    5.3488   -6.1737   26.5092 C   0  0  0  0  0  0  0  0  0  0  0  0
    7.4567   -6.9464   27.2858 C   0  0  0  0  0  0  0  0  0  0  0  0
    0.1921   -5.7592   27.1123 C   0  0  0  0  0  0  0  0  0  0  0  0
    3.5517   -7.7407   25.9711 C   0  0  0  0  0  0  0  0  0  0  0  0
  1  4  4  0
  1 22  4  0
  2 20  4  0
  2 27  4  0
  3 12  4  0
  3 23  4  0
  4 25  4  0
  4 28  1  0
  5  8  4  0
  5 17  4  0
  6  7  4  0
  6 16  4  0
  7 18  4  0
  8 27  4  0
  9 13  4  0
  9 23  4  0
 10 11  1  0
 11 14  2  0
 11 27  1  0
 12 19  1  0
 12 24  4  0
 13 24  4  0
 15 18  1  0
 16 25  4  0
 16 26  4  0
 17 20  4  0
 17 28  1  0
 18 21  4  0
 21 26  4  0
 22 26  4  0
M  END
$$$$

 Created by Python create_sdf_string function

 28 30  0  0  0  0  0  0  0  0999 V2000
    5.7174   -8.4529   26.7190 C   0  0  0  0  0  0  0  0  0  0  0  0
    0.3974   -7.0711   27.5149 C   0  0  0  0  0  0  0  0  0  0  0  0
    2.5338   -7.6891   16.0102 C   0  0  0  0  0  0  0  0  0  0  0  0
    4.8690   -7.4380   26.4151 C   0  0  0  0  0  0  0  0  0  0  0  0
    2.3021   -5.6726   26.0378 C   0  0  0  0  0  0  0  0  0  0  0  0
    7.0880   -4.6163   27.0010 C   0  0  0  0  0  0  0  0  0  0  0  0
    8.3117   -4.3698   27.4436 C   0  0  0  0  0  0  0  0  0  0  0  0
    1.1339   -5.0515   26.3541 C   0  0  0  0  0  0  0  0  0  0  0  0
    4.8080   -8.0362   16.7101 C   0  0  0  0  0  0  0  0  0  0  0  0
   -1.2173   -3.9294   26.9717 O   0  0  0  0  0  0  0  0  0  0  0  0
   -1.0025   -5.0942   27.4586 C   0  0  0  0  0  0  0  0  0  0  0  0
    2.2474   -8.9123   16.6273 C   0  0  0  0  0  0  0  0  0  0  0  0
    4.4957   -9.2636   17.3041 C   0  0  0  0  0  0  0  0  0  0  0  0
   -1.8070   -5.6086   28.1920 O   0  0  0  0  0  0  0  0  0  0  0  0
   10.4296   -5.1799   28.3140 C   0  0  0  0  0  0  0  0  0  0  0  0
    6.6017   -5.9004   26.9187 C   0  0  0  0  0  0  0  0  0  0  0  0
    2.4761   -6.9940   26.4111 N   0  0  0  0  0  0  0  0  0  0  0  0
    9.1353   -5.4053   27.8239 C   0  0  0  0  0  0  0  0  0  0  0  0
    0.9922   -9.3232   16.5995 O   0  0  0  0  0  0  0  0  0  0  0  0
    1.5232   -7.6869   27.1182 C   0  0  0  0  0  0  0  0  0  0  0  0
    8.6878   -6.6715   27.7262 N   0  0  0  0  0  0  0  0  0  0  0  0
    6.9911   -8.2423   27.1808 C   0  0  0  0  0  0  0  0  0  0  0  0
    3.8436   -7.2758   16.0578 C   0  0  0  0  0  0  0  0  0  0  0  0
    3.1882   -9.7190   17.2566 C   0  0  0  0  0  0  0  0  0  0  0  0
    5.3488   -6.1737   26.5092 C   0  0  0  0  0  0  0  0  0  0  0  0
    7.4567   -6.9464   27.2858 C   0  0  0  0  0  0  0  0  0  0  0  0
    0.1921   -5.7592   27.1123 C   0  0  0  0  0  0  0  0  0  0  0  0
    3.5517   -7.7407   25.9711 C   0  0  0  0  0  0  0  0  0  0  0  0
  1  4  4  0
  1 22  4  0
  2 20  4  0
  2 27  4  0
  3 12  4  0
  3 23  4  0
  4 25  4  0
  4 28  1  0
  5  8  4  0
  5 17  4  0
  6  7  4  0
  6 16  4  0
  7 18  4  0
  8 27  4  0
  9 13  4  0
  9 23  4  0
 10 11  1  0
 11 14  2  0
 11 27  1  0
 12 19  1  0
 12 24  4  0
 13 24  4  0
 15 18  1  0
 16 25  4  0
 16 26  4  0
 17 20  4  0
 17 28  1  0
 18 21  4  0
 21 26  4  0
 22 26  4  0
M  END
$$$$

 Created by Python create_sdf_string function

 28 30  0  0  0  0  0  0  0  0999 V2000
    5.7174   -8.4529   26.7190 C   0  0  0  0  0  0  0  0  0  0  0  0
    0.3974   -7.0711   27.5149 C   0  0  0  0  0  0  0  0  0  0  0  0
    2.5338   -7.6891   16.0102 C   0  0  0  0  0  0  0  0  0  0  0  0
    4.8690   -7.4380   26.4151 C   0  0  0  0  0  0  0  0  0  0  0  0
    2.3021   -5.6726   26.0378 C   0  0  0  0  0  0  0  0  0  0  0  0
    7.0880   -4.6163   27.0010 C   0  0  0  0  0  0  0  0  0  0  0  0
    8.3117   -4.3698   27.4436 C   0  0  0  0  0  0  0  0  0  0  0  0
    1.1339   -5.0515   26.3541 C   0  0  0  0  0  0  0  0  0  0  0  0
    4.8080   -8.0362   16.7101 C   0  0  0  0  0  0  0  0  0  0  0  0
   -1.2173   -3.9294   26.9717 O   0  0  0  0  0  0  0  0  0  0  0  0
   -1.0025   -5.0942   27.4586 C   0  0  0  0  0  0  0  0  0  0  0  0
    2.2474   -8.9123   16.6273 C   0  0  0  0  0  0  0  0  0  0  0  0
    4.4957   -9.2636   17.3041 C   0  0  0  0  0  0  0  0  0  0  0  0
   -1.8070   -5.6086   28.1920 O   0  0  0  0  0  0  0  0  0  0  0  0
   10.4296   -5.1799   28.3140 C   0  0  0  0  0  0  0  0  0  0  0  0
    6.6017   -5.9004   26.9187 C   0  0  0  0  0  0  0  0  0  0  0  0
    2.4761   -6.9940   26.4111 N   0  0  0  0  0  0  0  0  0  0  0  0
    9.1353   -5.4053   27.8239 C   0  0  0  0  0  0  0  0  0  0  0  0
    0.9922   -9.3232   16.5995 O   0  0  0  0  0  0  0  0  0  0  0  0
    1.5232   -7.6869   27.1182 C   0  0  0  0  0  0  0  0  0  0  0  0
    8.6878   -6.6715   27.7262 N   0  0  0  0  0  0  0  0  0  0  0  0
    6.9911   -8.2423   27.1808 C   0  0  0  0  0  0  0  0  0  0  0  0
    3.8436   -7.2758   16.0578 C   0  0  0  0  0  0  0  0  0  0  0  0
    3.1882   -9.7190   17.2566 C   0  0  0  0  0  0  0  0  0  0  0  0
    5.3488   -6.1737   26.5092 C   0  0  0  0  0  0  0  0  0  0  0  0
    7.4567   -6.9464   27.2858 C   0  0  0  0  0  0  0  0  0  0  0  0
    0.1921   -5.7592   27.1123 C   0  0  0  0  0  0  0  0  0  0  0  0
    3.5517   -7.7407   25.9711 C   0  0  0  0  0  0  0  0  0  0  0  0
  1  4  4  0
  1 22  4  0
  2 20  4  0
  2 27  4  0
  3 12  4  0
  3 23  4  0
  4 25  4  0
  4 28  1  0
  5  8  4  0
  5 17  4  0
  6  7  4  0
  6 16  4  0
  7 18  4  0
  8 27  4  0
  9 13  4  0
  9 23  4  0
 10 11  1  0
 11 14  2  0
 11 27  1  0
 12 19  1  0
 12 24  4  0
 13 24  4  0
 15 18  1  0
 16 25  4  0
 16 26  4  0
 17 20  4  0
 17 28  1  0
 18 21  4  0
 21 26  4  0
 22 26  4  0
M  END
$$$$

 Created by Python create_sdf_string function

 28 30  0  0  0  0  0  0  0  0999 V2000
    5.7174   -8.4529   26.7190 C   0  0  0  0  0  0  0  0  0  0  0  0
    0.3974   -7.0711   27.5149 C   0  0  0  0  0  0  0  0  0  0  0  0
    2.5338   -7.6891   16.0102 C   0  0  0  0  0  0  0  0  0  0  0  0
    4.8690   -7.4380   26.4151 C   0  0  0  0  0  0  0  0  0  0  0  0
    2.3021   -5.6726   26.0378 C   0  0  0  0  0  0  0  0  0  0  0  0
    7.0880   -4.6163   27.0010 C   0  0  0  0  0  0  0  0  0  0  0  0
    8.3117   -4.3698   27.4436 C   0  0  0  0  0  0  0  0  0  0  0  0
    1.1339   -5.0515   26.3541 C   0  0  0  0  0  0  0  0  0  0  0  0
    4.8080   -8.0362   16.7101 C   0  0  0  0  0  0  0  0  0  0  0  0
   -1.2173   -3.9294   26.9717 O   0  0  0  0  0  0  0  0  0  0  0  0
   -1.0025   -5.0942   27.4586 C   0  0  0  0  0  0  0  0  0  0  0  0
    2.2474   -8.9123   16.6273 C   0  0  0  0  0  0  0  0  0  0  0  0
    4.4957   -9.2636   17.3041 C   0  0  0  0  0  0  0  0  0  0  0  0
   -1.8070   -5.6086   28.1920 O   0  0  0  0  0  0  0  0  0  0  0  0
   10.4296   -5.1799   28.3140 C   0  0  0  0  0  0  0  0  0  0  0  0
    6.6017   -5.9004   26.9187 C   0  0  0  0  0  0  0  0  0  0  0  0
    2.4761   -6.9940   26.4111 N   0  0  0  0  0  0  0  0  0  0  0  0
    9.1353   -5.4053   27.8239 C   0  0  0  0  0  0  0  0  0  0  0  0
    0.9922   -9.3232   16.5995 O   0  0  0  0  0  0  0  0  0  0  0  0
    1.5232   -7.6869   27.1182 C   0  0  0  0  0  0  0  0  0  0  0  0
    8.6878   -6.6715   27.7262 N   0  0  0  0  0  0  0  0  0  0  0  0
    6.9911   -8.2423   27.1808 C   0  0  0  0  0  0  0  0  0  0  0  0
    3.8436   -7.2758   16.0578 C   0  0  0  0  0  0  0  0  0  0  0  0
    3.1882   -9.7190   17.2566 C   0  0  0  0  0  0  0  0  0  0  0  0
    5.3488   -6.1737   26.5092 C   0  0  0  0  0  0  0  0  0  0  0  0
    7.4567   -6.9464   27.2858 C   0  0  0  0  0  0  0  0  0  0  0  0
    0.1921   -5.7592   27.1123 C   0  0  0  0  0  0  0  0  0  0  0  0
    3.5517   -7.7407   25.9711 C   0  0  0  0  0  0  0  0  0  0  0  0
  1  4  4  0
  1 22  4  0
  2 20  4  0
  2 27  4  0
  3 12  4  0
  3 23  4  0
  4 25  4  0
  4 28  1  0
  5  8  4  0
  5 17  4  0
  6  7  4  0
  6 16  4  0
  7 18  4  0
  8 27  4  0
  9 13  4  0
  9 23  4  0
 10 11  1  0
 11 14  2  0
 11 27  1  0
 12 19  1  0
 12 24  4  0
 13 24  4  0
 15 18  1  0
 16 25  4  0
 16 26  4  0
 17 20  4  0
 17 28  1  0
 18 21  4  0
 21 26  4  0
 22 26  4  0
M  END
$$$$

 Created by Python create_sdf_string function

 28 30  0  0  0  0  0  0  0  0999 V2000
    5.7174   -8.4529   26.7190 C   0  0  0  0  0  0  0  0  0  0  0  0
    0.3974   -7.0711   27.5149 C   0  0  0  0  0  0  0  0  0  0  0  0
    2.5338   -7.6891   16.0102 C   0  0  0  0  0  0  0  0  0  0  0  0
    4.8690   -7.4380   26.4151 C   0  0  0  0  0  0  0  0  0  0  0  0
    2.3021   -5.6726   26.0378 C   0  0  0  0  0  0  0  0  0  0  0  0
    7.0880   -4.6163   27.0010 C   0  0  0  0  0  0  0  0  0  0  0  0
    8.3117   -4.3698   27.4436 C   0  0  0  0  0  0  0  0  0  0  0  0
    1.1339   -5.0515   26.3541 C   0  0  0  0  0  0  0  0  0  0  0  0
    4.8080   -8.0362   16.7101 C   0  0  0  0  0  0  0  0  0  0  0  0
   -1.2173   -3.9294   26.9717 O   0  0  0  0  0  0  0  0  0  0  0  0
   -1.0025   -5.0942   27.4586 C   0  0  0  0  0  0  0  0  0  0  0  0
    2.2474   -8.9123   16.6273 C   0  0  0  0  0  0  0  0  0  0  0  0
    4.4957   -9.2636   17.3041 C   0  0  0  0  0  0  0  0  0  0  0  0
   -1.8070   -5.6086   28.1920 O   0  0  0  0  0  0  0  0  0  0  0  0
   10.4296   -5.1799   28.3140 C   0  0  0  0  0  0  0  0  0  0  0  0
    6.6017   -5.9004   26.9187 C   0  0  0  0  0  0  0  0  0  0  0  0
    2.4761   -6.9940   26.4111 N   0  0  0  0  0  0  0  0  0  0  0  0
    9.1353   -5.4053   27.8239 C   0  0  0  0  0  0  0  0  0  0  0  0
    0.9922   -9.3232   16.5995 O   0  0  0  0  0  0  0  0  0  0  0  0
    1.5232   -7.6869   27.1182 C   0  0  0  0  0  0  0  0  0  0  0  0
    8.6878   -6.6715   27.7262 N   0  0  0  0  0  0  0  0  0  0  0  0
    6.9911   -8.2423   27.1808 C   0  0  0  0  0  0  0  0  0  0  0  0
    3.8436   -7.2758   16.0578 C   0  0  0  0  0  0  0  0  0  0  0  0
    3.1882   -9.7190   17.2566 C   0  0  0  0  0  0  0  0  0  0  0  0
    5.3488   -6.1737   26.5092 C   0  0  0  0  0  0  0  0  0  0  0  0
    7.4567   -6.9464   27.2858 C   0  0  0  0  0  0  0  0  0  0  0  0
    0.1921   -5.7592   27.1123 C   0  0  0  0  0  0  0  0  0  0  0  0
    3.5517   -7.7407   25.9711 C   0  0  0  0  0  0  0  0  0  0  0  0
  1  4  4  0
  1 22  4  0
  2 20  4  0
  2 27  4  0
  3 12  4  0
  3 23  4  0
  4 25  4  0
  4 28  1  0
  5  8  4  0
  5 17  4  0
  6  7  4  0
  6 16  4  0
  7 18  4  0
  8 27  4  0
  9 13  4  0
  9 23  4  0
 10 11  1  0
 11 14  2  0
 11 27  1  0
 12 19  1  0
 12 24  4  0
 13 24  4  0
 15 18  1  0
 16 25  4  0
 16 26  4  0
 17 20  4  0
 17 28  1  0
 18 21  4  0
 21 26  4  0
 22 26  4  0
M  END
$$$$

 Created by Python create_sdf_string function

 28 30  0  0  0  0  0  0  0  0999 V2000
    5.7174   -8.4529   26.7190 C   0  0  0  0  0  0  0  0  0  0  0  0
    0.3974   -7.0711   27.5149 C   0  0  0  0  0  0  0  0  0  0  0  0
    2.5338   -7.6891   16.0102 C   0  0  0  0  0  0  0  0  0  0  0  0
    4.8690   -7.4380   26.4151 C   0  0  0  0  0  0  0  0  0  0  0  0
    2.3021   -5.6726   26.0378 C   0  0  0  0  0  0  0  0  0  0  0  0
    7.0880   -4.6163   27.0010 C   0  0  0  0  0  0  0  0  0  0  0  0
    8.3117   -4.3698   27.4436 C   0  0  0  0  0  0  0  0  0  0  0  0
    1.1339   -5.0515   26.3541 C   0  0  0  0  0  0  0  0  0  0  0  0
    4.8080   -8.0362   16.7101 C   0  0  0  0  0  0  0  0  0  0  0  0
   -1.2173   -3.9294   26.9717 O   0  0  0  0  0  0  0  0  0  0  0  0
   -1.0025   -5.0942   27.4586 C   0  0  0  0  0  0  0  0  0  0  0  0
    2.2474   -8.9123   16.6273 C   0  0  0  0  0  0  0  0  0  0  0  0
    4.4957   -9.2636   17.3041 C   0  0  0  0  0  0  0  0  0  0  0  0
   -1.8070   -5.6086   28.1920 O   0  0  0  0  0  0  0  0  0  0  0  0
   10.4296   -5.1799   28.3140 C   0  0  0  0  0  0  0  0  0  0  0  0
    6.6017   -5.9004   26.9187 C   0  0  0  0  0  0  0  0  0  0  0  0
    2.4761   -6.9940   26.4111 N   0  0  0  0  0  0  0  0  0  0  0  0
    9.1353   -5.4053   27.8239 C   0  0  0  0  0  0  0  0  0  0  0  0
    0.9922   -9.3232   16.5995 O   0  0  0  0  0  0  0  0  0  0  0  0
    1.5232   -7.6869   27.1182 C   0  0  0  0  0  0  0  0  0  0  0  0
    8.6878   -6.6715   27.7262 N   0  0  0  0  0  0  0  0  0  0  0  0
    6.9911   -8.2423   27.1808 C   0  0  0  0  0  0  0  0  0  0  0  0
    3.8436   -7.2758   16.0578 C   0  0  0  0  0  0  0  0  0  0  0  0
    3.1882   -9.7190   17.2566 C   0  0  0  0  0  0  0  0  0  0  0  0
    5.3488   -6.1737   26.5092 C   0  0  0  0  0  0  0  0  0  0  0  0
    7.4567   -6.9464   27.2858 C   0  0  0  0  0  0  0  0  0  0  0  0
    0.1921   -5.7592   27.1123 C   0  0  0  0  0  0  0  0  0  0  0  0
    3.5517   -7.7407   25.9711 C   0  0  0  0  0  0  0  0  0  0  0  0
  1  4  4  0
  1 22  4  0
  2 20  4  0
  2 27  4  0
  3 12  4  0
  3 23  4  0
  4 25  4  0
  4 28  1  0
  5  8  4  0
  5 17  4  0
  6  7  4  0
  6 16  4  0
  7 18  4  0
  8 27  4  0
  9 13  4  0
  9 23  4  0
 10 11  1  0
 11 14  2  0
 11 27  1  0
 12 19  1  0
 12 24  4  0
 13 24  4  0
 15 18  1  0
 16 25  4  0
 16 26  4  0
 17 20  4  0
 17 28  1  0
 18 21  4  0
 21 26  4  0
 22 26  4  0
M  END
$$$$

 Created by Python create_sdf_string function

 28 30  0  0  0  0  0  0  0  0999 V2000
    5.7174   -8.4529   26.7190 C   0  0  0  0  0  0  0  0  0  0  0  0
    0.3974   -7.0711   27.5149 C   0  0  0  0  0  0  0  0  0  0  0  0
    2.5338   -7.6891   16.0102 C   0  0  0  0  0  0  0  0  0  0  0  0
    4.8690   -7.4380   26.4151 C   0  0  0  0  0  0  0  0  0  0  0  0
    2.3021   -5.6726   26.0378 C   0  0  0  0  0  0  0  0  0  0  0  0
    7.0880   -4.6163   27.0010 C   0  0  0  0  0  0  0  0  0  0  0  0
    8.3117   -4.3698   27.4436 C   0  0  0  0  0  0  0  0  0  0  0  0
    1.1339   -5.0515   26.3541 C   0  0  0  0  0  0  0  0  0  0  0  0
    4.8080   -8.0362   16.7101 C   0  0  0  0  0  0  0  0  0  0  0  0
   -1.2173   -3.9294   26.9717 O   0  0  0  0  0  0  0  0  0  0  0  0
   -1.0025   -5.0942   27.4586 C   0  0  0  0  0  0  0  0  0  0  0  0
    2.2474   -8.9123   16.6273 C   0  0  0  0  0  0  0  0  0  0  0  0
    4.4957   -9.2636   17.3041 C   0  0  0  0  0  0  0  0  0  0  0  0
   -1.8070   -5.6086   28.1920 O   0  0  0  0  0  0  0  0  0  0  0  0
   10.4296   -5.1799   28.3140 C   0  0  0  0  0  0  0  0  0  0  0  0
    6.6017   -5.9004   26.9187 C   0  0  0  0  0  0  0  0  0  0  0  0
    2.4761   -6.9940   26.4111 N   0  0  0  0  0  0  0  0  0  0  0  0
    9.1353   -5.4053   27.8239 C   0  0  0  0  0  0  0  0  0  0  0  0
    0.9922   -9.3232   16.5995 O   0  0  0  0  0  0  0  0  0  0  0  0
    1.5232   -7.6869   27.1182 C   0  0  0  0  0  0  0  0  0  0  0  0
    8.6878   -6.6715   27.7262 N   0  0  0  0  0  0  0  0  0  0  0  0
    6.9911   -8.2423   27.1808 C   0  0  0  0  0  0  0  0  0  0  0  0
    3.8436   -7.2758   16.0578 C   0  0  0  0  0  0  0  0  0  0  0  0
    3.1882   -9.7190   17.2566 C   0  0  0  0  0  0  0  0  0  0  0  0
    5.3488   -6.1737   26.5092 C   0  0  0  0  0  0  0  0  0  0  0  0
    7.4567   -6.9464   27.2858 C   0  0  0  0  0  0  0  0  0  0  0  0
    0.1921   -5.7592   27.1123 C   0  0  0  0  0  0  0  0  0  0  0  0
    3.5517   -7.7407   25.9711 C   0  0  0  0  0  0  0  0  0  0  0  0
  1  4  4  0
  1 22  4  0
  2 20  4  0
  2 27  4  0
  3 12  4  0
  3 23  4  0
  4 25  4  0
  4 28  1  0
  5  8  4  0
  5 17  4  0
  6  7  4  0
  6 16  4  0
  7 18  4  0
  8 27  4  0
  9 13  4  0
  9 23  4  0
 10 11  1  0
 11 14  2  0
 11 27  1  0
 12 19  1  0
 12 24  4  0
 13 24  4  0
 15 18  1  0
 16 25  4  0
 16 26  4  0
 17 20  4  0
 17 28  1  0
 18 21  4  0
 21 26  4  0
 22 26  4  0
M  END
$$$$

 Created by Python create_sdf_string function

 28 30  0  0  0  0  0  0  0  0999 V2000
    5.7174   -8.4529   26.7190 C   0  0  0  0  0  0  0  0  0  0  0  0
    0.3974   -7.0711   27.5149 C   0  0  0  0  0  0  0  0  0  0  0  0
    2.5338   -7.6891   16.0102 C   0  0  0  0  0  0  0  0  0  0  0  0
    4.8690   -7.4380   26.4151 C   0  0  0  0  0  0  0  0  0  0  0  0
    2.3021   -5.6726   26.0378 C   0  0  0  0  0  0  0  0  0  0  0  0
    7.0880   -4.6163   27.0010 C   0  0  0  0  0  0  0  0  0  0  0  0
    8.3117   -4.3698   27.4436 C   0  0  0  0  0  0  0  0  0  0  0  0
    1.1339   -5.0515   26.3541 C   0  0  0  0  0  0  0  0  0  0  0  0
    4.8080   -8.0362   16.7101 C   0  0  0  0  0  0  0  0  0  0  0  0
   -1.2173   -3.9294   26.9717 O   0  0  0  0  0  0  0  0  0  0  0  0
   -1.0025   -5.0942   27.4586 C   0  0  0  0  0  0  0  0  0  0  0  0
    2.2474   -8.9123   16.6273 C   0  0  0  0  0  0  0  0  0  0  0  0
    4.4957   -9.2636   17.3041 C   0  0  0  0  0  0  0  0  0  0  0  0
   -1.8070   -5.6086   28.1920 O   0  0  0  0  0  0  0  0  0  0  0  0
   10.4296   -5.1799   28.3140 C   0  0  0  0  0  0  0  0  0  0  0  0
    6.6017   -5.9004   26.9187 C   0  0  0  0  0  0  0  0  0  0  0  0
    2.4761   -6.9940   26.4111 N   0  0  0  0  0  0  0  0  0  0  0  0
    9.1353   -5.4053   27.8239 C   0  0  0  0  0  0  0  0  0  0  0  0
    0.9922   -9.3232   16.5995 O   0  0  0  0  0  0  0  0  0  0  0  0
    1.5232   -7.6869   27.1182 C   0  0  0  0  0  0  0  0  0  0  0  0
    8.6878   -6.6715   27.7262 N   0  0  0  0  0  0  0  0  0  0  0  0
    6.9911   -8.2423   27.1808 C   0  0  0  0  0  0  0  0  0  0  0  0
    3.8436   -7.2758   16.0578 C   0  0  0  0  0  0  0  0  0  0  0  0
    3.1882   -9.7190   17.2566 C   0  0  0  0  0  0  0  0  0  0  0  0
    5.3488   -6.1737   26.5092 C   0  0  0  0  0  0  0  0  0  0  0  0
    7.4567   -6.9464   27.2858 C   0  0  0  0  0  0  0  0  0  0  0  0
    0.1921   -5.7592   27.1123 C   0  0  0  0  0  0  0  0  0  0  0  0
    3.5517   -7.7407   25.9711 C   0  0  0  0  0  0  0  0  0  0  0  0
  1  4  4  0
  1 22  4  0
  2 20  4  0
  2 27  4  0
  3 12  4  0
  3 23  4  0
  4 25  4  0
  4 28  1  0
  5  8  4  0
  5 17  4  0
  6  7  4  0
  6 16  4  0
  7 18  4  0
  8 27  4  0
  9 13  4  0
  9 23  4  0
 10 11  1  0
 11 14  2  0
 11 27  1  0
 12 19  1  0
 12 24  4  0
 13 24  4  0
 15 18  1  0
 16 25  4  0
 16 26  4  0
 17 20  4  0
 17 28  1  0
 18 21  4  0
 21 26  4  0
 22 26  4  0
M  END
$$$$

 Created by Python create_sdf_string function

 28 30  0  0  0  0  0  0  0  0999 V2000
    5.7174   -8.4529   26.7190 C   0  0  0  0  0  0  0  0  0  0  0  0
    0.3974   -7.0711   27.5149 C   0  0  0  0  0  0  0  0  0  0  0  0
    2.5338   -7.6891   16.0102 C   0  0  0  0  0  0  0  0  0  0  0  0
    4.8690   -7.4380   26.4151 C   0  0  0  0  0  0  0  0  0  0  0  0
    2.3021   -5.6726   26.0378 C   0  0  0  0  0  0  0  0  0  0  0  0
    7.0880   -4.6163   27.0010 C   0  0  0  0  0  0  0  0  0  0  0  0
    8.3117   -4.3698   27.4436 C   0  0  0  0  0  0  0  0  0  0  0  0
    1.1339   -5.0515   26.3541 C   0  0  0  0  0  0  0  0  0  0  0  0
    4.8080   -8.0362   16.7101 C   0  0  0  0  0  0  0  0  0  0  0  0
   -1.2173   -3.9294   26.9717 O   0  0  0  0  0  0  0  0  0  0  0  0
   -1.0025   -5.0942   27.4586 C   0  0  0  0  0  0  0  0  0  0  0  0
    2.2474   -8.9123   16.6273 C   0  0  0  0  0  0  0  0  0  0  0  0
    4.4957   -9.2636   17.3041 C   0  0  0  0  0  0  0  0  0  0  0  0
   -1.8070   -5.6086   28.1920 O   0  0  0  0  0  0  0  0  0  0  0  0
   10.4296   -5.1799   28.3140 C   0  0  0  0  0  0  0  0  0  0  0  0
    6.6017   -5.9004   26.9187 C   0  0  0  0  0  0  0  0  0  0  0  0
    2.4761   -6.9940   26.4111 N   0  0  0  0  0  0  0  0  0  0  0  0
    9.1353   -5.4053   27.8239 C   0  0  0  0  0  0  0  0  0  0  0  0
    0.9922   -9.3232   16.5995 O   0  0  0  0  0  0  0  0  0  0  0  0
    1.5232   -7.6869   27.1182 C   0  0  0  0  0  0  0  0  0  0  0  0
    8.6878   -6.6715   27.7262 N   0  0  0  0  0  0  0  0  0  0  0  0
    6.9911   -8.2423   27.1808 C   0  0  0  0  0  0  0  0  0  0  0  0
    3.8436   -7.2758   16.0578 C   0  0  0  0  0  0  0  0  0  0  0  0
    3.1882   -9.7190   17.2566 C   0  0  0  0  0  0  0  0  0  0  0  0
    5.3488   -6.1737   26.5092 C   0  0  0  0  0  0  0  0  0  0  0  0
    7.4567   -6.9464   27.2858 C   0  0  0  0  0  0  0  0  0  0  0  0
    0.1921   -5.7592   27.1123 C   0  0  0  0  0  0  0  0  0  0  0  0
    3.5517   -7.7407   25.9711 C   0  0  0  0  0  0  0  0  0  0  0  0
  1  4  4  0
  1 22  4  0
  2 20  4  0
  2 27  4  0
  3 12  4  0
  3 23  4  0
  4 25  4  0
  4 28  1  0
  5  8  4  0
  5 17  4  0
  6  7  4  0
  6 16  4  0
  7 18  4  0
  8 27  4  0
  9 13  4  0
  9 23  4  0
 10 11  1  0
 11 14  2  0
 11 27  1  0
 12 19  1  0
 12 24  4  0
 13 24  4  0
 15 18  1  0
 16 25  4  0
 16 26  4  0
 17 20  4  0
 17 28  1  0
 18 21  4  0
 21 26  4  0
 22 26  4  0
M  END
$$$$

 Created by Python create_sdf_string function

 28 30  0  0  0  0  0  0  0  0999 V2000
    5.7174   -8.4529   26.7190 C   0  0  0  0  0  0  0  0  0  0  0  0
    0.3974   -7.0711   27.5149 C   0  0  0  0  0  0  0  0  0  0  0  0
    2.5338   -7.6891   16.0102 C   0  0  0  0  0  0  0  0  0  0  0  0
    4.8690   -7.4380   26.4151 C   0  0  0  0  0  0  0  0  0  0  0  0
    2.3021   -5.6726   26.0378 C   0  0  0  0  0  0  0  0  0  0  0  0
    7.0880   -4.6163   27.0010 C   0  0  0  0  0  0  0  0  0  0  0  0
    8.3117   -4.3698   27.4436 C   0  0  0  0  0  0  0  0  0  0  0  0
    1.1339   -5.0515   26.3541 C   0  0  0  0  0  0  0  0  0  0  0  0
    4.8080   -8.0362   16.7101 C   0  0  0  0  0  0  0  0  0  0  0  0
   -1.2173   -3.9294   26.9717 O   0  0  0  0  0  0  0  0  0  0  0  0
   -1.0025   -5.0942   27.4586 C   0  0  0  0  0  0  0  0  0  0  0  0
    2.2474   -8.9123   16.6273 C   0  0  0  0  0  0  0  0  0  0  0  0
    4.4957   -9.2636   17.3041 C   0  0  0  0  0  0  0  0  0  0  0  0
   -1.8070   -5.6086   28.1920 O   0  0  0  0  0  0  0  0  0  0  0  0
   10.4296   -5.1799   28.3140 C   0  0  0  0  0  0  0  0  0  0  0  0
    6.6017   -5.9004   26.9187 C   0  0  0  0  0  0  0  0  0  0  0  0
    2.4761   -6.9940   26.4111 N   0  0  0  0  0  0  0  0  0  0  0  0
    9.1353   -5.4053   27.8239 C   0  0  0  0  0  0  0  0  0  0  0  0
    0.9922   -9.3232   16.5995 O   0  0  0  0  0  0  0  0  0  0  0  0
    1.5232   -7.6869   27.1182 C   0  0  0  0  0  0  0  0  0  0  0  0
    8.6878   -6.6715   27.7262 N   0  0  0  0  0  0  0  0  0  0  0  0
    6.9911   -8.2423   27.1808 C   0  0  0  0  0  0  0  0  0  0  0  0
    3.8436   -7.2758   16.0578 C   0  0  0  0  0  0  0  0  0  0  0  0
    3.1882   -9.7190   17.2566 C   0  0  0  0  0  0  0  0  0  0  0  0
    5.3488   -6.1737   26.5092 C   0  0  0  0  0  0  0  0  0  0  0  0
    7.4567   -6.9464   27.2858 C   0  0  0  0  0  0  0  0  0  0  0  0
    0.1921   -5.7592   27.1123 C   0  0  0  0  0  0  0  0  0  0  0  0
    3.5517   -7.7407   25.9711 C   0  0  0  0  0  0  0  0  0  0  0  0
  1  4  4  0
  1 22  4  0
  2 20  4  0
  2 27  4  0
  3 12  4  0
  3 23  4  0
  4 25  4  0
  4 28  1  0
  5  8  4  0
  5 17  4  0
  6  7  4  0
  6 16  4  0
  7 18  4  0
  8 27  4  0
  9 13  4  0
  9 23  4  0
 10 11  1  0
 11 14  2  0
 11 27  1  0
 12 19  1  0
 12 24  4  0
 13 24  4  0
 15 18  1  0
 16 25  4  0
 16 26  4  0
 17 20  4  0
 17 28  1  0
 18 21  4  0
 21 26  4  0
 22 26  4  0
M  END
$$$$

 Created by Python create_sdf_string function

 28 30  0  0  0  0  0  0  0  0999 V2000
    5.7174   -8.4529   26.7190 C   0  0  0  0  0  0  0  0  0  0  0  0
    0.3974   -7.0711   27.5149 C   0  0  0  0  0  0  0  0  0  0  0  0
    2.5338   -7.6891   16.0102 C   0  0  0  0  0  0  0  0  0  0  0  0
    4.8690   -7.4380   26.4151 C   0  0  0  0  0  0  0  0  0  0  0  0
    2.3021   -5.6726   26.0378 C   0  0  0  0  0  0  0  0  0  0  0  0
    7.0880   -4.6163   27.0010 C   0  0  0  0  0  0  0  0  0  0  0  0
    8.3117   -4.3698   27.4436 C   0  0  0  0  0  0  0  0  0  0  0  0
    1.1339   -5.0515   26.3541 C   0  0  0  0  0  0  0  0  0  0  0  0
    4.8080   -8.0362   16.7101 C   0  0  0  0  0  0  0  0  0  0  0  0
   -1.2173   -3.9294   26.9717 O   0  0  0  0  0  0  0  0  0  0  0  0
   -1.0025   -5.0942   27.4586 C   0  0  0  0  0  0  0  0  0  0  0  0
    2.2474   -8.9123   16.6273 C   0  0  0  0  0  0  0  0  0  0  0  0
    4.4957   -9.2636   17.3041 C   0  0  0  0  0  0  0  0  0  0  0  0
   -1.8070   -5.6086   28.1920 O   0  0  0  0  0  0  0  0  0  0  0  0
   10.4296   -5.1799   28.3140 C   0  0  0  0  0  0  0  0  0  0  0  0
    6.6017   -5.9004   26.9187 C   0  0  0  0  0  0  0  0  0  0  0  0
    2.4761   -6.9940   26.4111 N   0  0  0  0  0  0  0  0  0  0  0  0
    9.1353   -5.4053   27.8239 C   0  0  0  0  0  0  0  0  0  0  0  0
    0.9922   -9.3232   16.5995 O   0  0  0  0  0  0  0  0  0  0  0  0
    1.5232   -7.6869   27.1182 C   0  0  0  0  0  0  0  0  0  0  0  0
    8.6878   -6.6715   27.7262 N   0  0  0  0  0  0  0  0  0  0  0  0
    6.9911   -8.2423   27.1808 C   0  0  0  0  0  0  0  0  0  0  0  0
    3.8436   -7.2758   16.0578 C   0  0  0  0  0  0  0  0  0  0  0  0
    3.1882   -9.7190   17.2566 C   0  0  0  0  0  0  0  0  0  0  0  0
    5.3488   -6.1737   26.5092 C   0  0  0  0  0  0  0  0  0  0  0  0
    7.4567   -6.9464   27.2858 C   0  0  0  0  0  0  0  0  0  0  0  0
    0.1921   -5.7592   27.1123 C   0  0  0  0  0  0  0  0  0  0  0  0
    3.5517   -7.7407   25.9711 C   0  0  0  0  0  0  0  0  0  0  0  0
  1  4  4  0
  1 22  4  0
  2 20  4  0
  2 27  4  0
  3 12  4  0
  3 23  4  0
  4 25  4  0
  4 28  1  0
  5  8  4  0
  5 17  4  0
  6  7  4  0
  6 16  4  0
  7 18  4  0
  8 27  4  0
  9 13  4  0
  9 23  4  0
 10 11  1  0
 11 14  2  0
 11 27  1  0
 12 19  1  0
 12 24  4  0
 13 24  4  0
 15 18  1  0
 16 25  4  0
 16 26  4  0
 17 20  4  0
 17 28  1  0
 18 21  4  0
 21 26  4  0
 22 26  4  0
M  END
$$$$

 Created by Python create_sdf_string function

 28 30  0  0  0  0  0  0  0  0999 V2000
    5.7174   -8.4529   26.7190 C   0  0  0  0  0  0  0  0  0  0  0  0
    0.3974   -7.0711   27.5149 C   0  0  0  0  0  0  0  0  0  0  0  0
    2.5338   -7.6891   16.0102 C   0  0  0  0  0  0  0  0  0  0  0  0
    4.8690   -7.4380   26.4151 C   0  0  0  0  0  0  0  0  0  0  0  0
    2.3021   -5.6726   26.0378 C   0  0  0  0  0  0  0  0  0  0  0  0
    7.0880   -4.6163   27.0010 C   0  0  0  0  0  0  0  0  0  0  0  0
    8.3117   -4.3698   27.4436 C   0  0  0  0  0  0  0  0  0  0  0  0
    1.1339   -5.0515   26.3541 C   0  0  0  0  0  0  0  0  0  0  0  0
    4.8080   -8.0362   16.7101 C   0  0  0  0  0  0  0  0  0  0  0  0
   -1.2173   -3.9294   26.9717 O   0  0  0  0  0  0  0  0  0  0  0  0
   -1.0025   -5.0942   27.4586 C   0  0  0  0  0  0  0  0  0  0  0  0
    2.2474   -8.9123   16.6273 C   0  0  0  0  0  0  0  0  0  0  0  0
    4.4957   -9.2636   17.3041 C   0  0  0  0  0  0  0  0  0  0  0  0
   -1.8070   -5.6086   28.1920 O   0  0  0  0  0  0  0  0  0  0  0  0
   10.4296   -5.1799   28.3140 C   0  0  0  0  0  0  0  0  0  0  0  0
    6.6017   -5.9004   26.9187 C   0  0  0  0  0  0  0  0  0  0  0  0
    2.4761   -6.9940   26.4111 N   0  0  0  0  0  0  0  0  0  0  0  0
    9.1353   -5.4053   27.8239 C   0  0  0  0  0  0  0  0  0  0  0  0
    0.9922   -9.3232   16.5995 O   0  0  0  0  0  0  0  0  0  0  0  0
    1.5232   -7.6869   27.1182 C   0  0  0  0  0  0  0  0  0  0  0  0
    8.6878   -6.6715   27.7262 N   0  0  0  0  0  0  0  0  0  0  0  0
    6.9911   -8.2423   27.1808 C   0  0  0  0  0  0  0  0  0  0  0  0
    3.8436   -7.2758   16.0578 C   0  0  0  0  0  0  0  0  0  0  0  0
    3.1882   -9.7190   17.2566 C   0  0  0  0  0  0  0  0  0  0  0  0
    5.3488   -6.1737   26.5092 C   0  0  0  0  0  0  0  0  0  0  0  0
    7.4567   -6.9464   27.2858 C   0  0  0  0  0  0  0  0  0  0  0  0
    0.1921   -5.7592   27.1123 C   0  0  0  0  0  0  0  0  0  0  0  0
    3.5517   -7.7407   25.9711 C   0  0  0  0  0  0  0  0  0  0  0  0
  1  4  4  0
  1 22  4  0
  2 20  4  0
  2 27  4  0
  3 12  4  0
  3 23  4  0
  4 25  4  0
  4 28  1  0
  5  8  4  0
  5 17  4  0
  6  7  4  0
  6 16  4  0
  7 18  4  0
  8 27  4  0
  9 13  4  0
  9 23  4  0
 10 11  1  0
 11 14  2  0
 11 27  1  0
 12 19  1  0
 12 24  4  0
 13 24  4  0
 15 18  1  0
 16 25  4  0
 16 26  4  0
 17 20  4  0
 17 28  1  0
 18 21  4  0
 21 26  4  0
 22 26  4  0
M  END
$$$$

 Created by Python create_sdf_string function

 28 30  0  0  0  0  0  0  0  0999 V2000
    5.7174   -8.4529   26.7190 C   0  0  0  0  0  0  0  0  0  0  0  0
    0.3974   -7.0711   27.5149 C   0  0  0  0  0  0  0  0  0  0  0  0
    2.5338   -7.6891   16.0102 C   0  0  0  0  0  0  0  0  0  0  0  0
    4.8690   -7.4380   26.4151 C   0  0  0  0  0  0  0  0  0  0  0  0
    2.3021   -5.6726   26.0378 C   0  0  0  0  0  0  0  0  0  0  0  0
    7.0880   -4.6163   27.0010 C   0  0  0  0  0  0  0  0  0  0  0  0
    8.3117   -4.3698   27.4436 C   0  0  0  0  0  0  0  0  0  0  0  0
    1.1339   -5.0515   26.3541 C   0  0  0  0  0  0  0  0  0  0  0  0
    4.8080   -8.0362   16.7101 C   0  0  0  0  0  0  0  0  0  0  0  0
   -1.2173   -3.9294   26.9717 O   0  0  0  0  0  0  0  0  0  0  0  0
   -1.0025   -5.0942   27.4586 C   0  0  0  0  0  0  0  0  0  0  0  0
    2.2474   -8.9123   16.6273 C   0  0  0  0  0  0  0  0  0  0  0  0
    4.4957   -9.2636   17.3041 C   0  0  0  0  0  0  0  0  0  0  0  0
   -1.8070   -5.6086   28.1920 O   0  0  0  0  0  0  0  0  0  0  0  0
   10.4296   -5.1799   28.3140 C   0  0  0  0  0  0  0  0  0  0  0  0
    6.6017   -5.9004   26.9187 C   0  0  0  0  0  0  0  0  0  0  0  0
    2.4761   -6.9940   26.4111 N   0  0  0  0  0  0  0  0  0  0  0  0
    9.1353   -5.4053   27.8239 C   0  0  0  0  0  0  0  0  0  0  0  0
    0.9922   -9.3232   16.5995 O   0  0  0  0  0  0  0  0  0  0  0  0
    1.5232   -7.6869   27.1182 C   0  0  0  0  0  0  0  0  0  0  0  0
    8.6878   -6.6715   27.7262 N   0  0  0  0  0  0  0  0  0  0  0  0
    6.9911   -8.2423   27.1808 C   0  0  0  0  0  0  0  0  0  0  0  0
    3.8436   -7.2758   16.0578 C   0  0  0  0  0  0  0  0  0  0  0  0
    3.1882   -9.7190   17.2566 C   0  0  0  0  0  0  0  0  0  0  0  0
    5.3488   -6.1737   26.5092 C   0  0  0  0  0  0  0  0  0  0  0  0
    7.4567   -6.9464   27.2858 C   0  0  0  0  0  0  0  0  0  0  0  0
    0.1921   -5.7592   27.1123 C   0  0  0  0  0  0  0  0  0  0  0  0
    3.5517   -7.7407   25.9711 C   0  0  0  0  0  0  0  0  0  0  0  0
  1  4  4  0
  1 22  4  0
  2 20  4  0
  2 27  4  0
  3 12  4  0
  3 23  4  0
  4 25  4  0
  4 28  1  0
  5  8  4  0
  5 17  4  0
  6  7  4  0
  6 16  4  0
  7 18  4  0
  8 27  4  0
  9 13  4  0
  9 23  4  0
 10 11  1  0
 11 14  2  0
 11 27  1  0
 12 19  1  0
 12 24  4  0
 13 24  4  0
 15 18  1  0
 16 25  4  0
 16 26  4  0
 17 20  4  0
 17 28  1  0
 18 21  4  0
 21 26  4  0
 22 26  4  0
M  END
$$$$

 Created by Python create_sdf_string function

 28 30  0  0  0  0  0  0  0  0999 V2000
    5.7174   -8.4529   26.7190 C   0  0  0  0  0  0  0  0  0  0  0  0
    0.3974   -7.0711   27.5149 C   0  0  0  0  0  0  0  0  0  0  0  0
    2.5338   -7.6891   16.0102 C   0  0  0  0  0  0  0  0  0  0  0  0
    4.8690   -7.4380   26.4151 C   0  0  0  0  0  0  0  0  0  0  0  0
    2.3021   -5.6726   26.0378 C   0  0  0  0  0  0  0  0  0  0  0  0
    7.0880   -4.6163   27.0010 C   0  0  0  0  0  0  0  0  0  0  0  0
    8.3117   -4.3698   27.4436 C   0  0  0  0  0  0  0  0  0  0  0  0
    1.1339   -5.0515   26.3541 C   0  0  0  0  0  0  0  0  0  0  0  0
    4.8080   -8.0362   16.7101 C   0  0  0  0  0  0  0  0  0  0  0  0
   -1.2173   -3.9294   26.9717 O   0  0  0  0  0  0  0  0  0  0  0  0
   -1.0025   -5.0942   27.4586 C   0  0  0  0  0  0  0  0  0  0  0  0
    2.2474   -8.9123   16.6273 C   0  0  0  0  0  0  0  0  0  0  0  0
    4.4957   -9.2636   17.3041 C   0  0  0  0  0  0  0  0  0  0  0  0
   -1.8070   -5.6086   28.1920 O   0  0  0  0  0  0  0  0  0  0  0  0
   10.4296   -5.1799   28.3140 C   0  0  0  0  0  0  0  0  0  0  0  0
    6.6017   -5.9004   26.9187 C   0  0  0  0  0  0  0  0  0  0  0  0
    2.4761   -6.9940   26.4111 N   0  0  0  0  0  0  0  0  0  0  0  0
    9.1353   -5.4053   27.8239 C   0  0  0  0  0  0  0  0  0  0  0  0
    0.9922   -9.3232   16.5995 O   0  0  0  0  0  0  0  0  0  0  0  0
    1.5232   -7.6869   27.1182 C   0  0  0  0  0  0  0  0  0  0  0  0
    8.6878   -6.6715   27.7262 N   0  0  0  0  0  0  0  0  0  0  0  0
    6.9911   -8.2423   27.1808 C   0  0  0  0  0  0  0  0  0  0  0  0
    3.8436   -7.2758   16.0578 C   0  0  0  0  0  0  0  0  0  0  0  0
    3.1882   -9.7190   17.2566 C   0  0  0  0  0  0  0  0  0  0  0  0
    5.3488   -6.1737   26.5092 C   0  0  0  0  0  0  0  0  0  0  0  0
    7.4567   -6.9464   27.2858 C   0  0  0  0  0  0  0  0  0  0  0  0
    0.1921   -5.7592   27.1123 C   0  0  0  0  0  0  0  0  0  0  0  0
    3.5517   -7.7407   25.9711 C   0  0  0  0  0  0  0  0  0  0  0  0
  1  4  4  0
  1 22  4  0
  2 20  4  0
  2 27  4  0
  3 12  4  0
  3 23  4  0
  4 25  4  0
  4 28  1  0
  5  8  4  0
  5 17  4  0
  6  7  4  0
  6 16  4  0
  7 18  4  0
  8 27  4  0
  9 13  4  0
  9 23  4  0
 10 11  1  0
 11 14  2  0
 11 27  1  0
 12 19  1  0
 12 24  4  0
 13 24  4  0
 15 18  1  0
 16 25  4  0
 16 26  4  0
 17 20  4  0
 17 28  1  0
 18 21  4  0
 21 26  4  0
 22 26  4  0
M  END
$$$$

 Created by Python create_sdf_string function

 28 30  0  0  0  0  0  0  0  0999 V2000
    5.7174   -8.4529   26.7190 C   0  0  0  0  0  0  0  0  0  0  0  0
    0.3974   -7.0711   27.5149 C   0  0  0  0  0  0  0  0  0  0  0  0
    2.5338   -7.6891   16.0102 C   0  0  0  0  0  0  0  0  0  0  0  0
    4.8690   -7.4380   26.4151 C   0  0  0  0  0  0  0  0  0  0  0  0
    2.3021   -5.6726   26.0378 C   0  0  0  0  0  0  0  0  0  0  0  0
    7.0880   -4.6163   27.0010 C   0  0  0  0  0  0  0  0  0  0  0  0
    8.3117   -4.3698   27.4436 C   0  0  0  0  0  0  0  0  0  0  0  0
    1.1339   -5.0515   26.3541 C   0  0  0  0  0  0  0  0  0  0  0  0
    4.8080   -8.0362   16.7101 C   0  0  0  0  0  0  0  0  0  0  0  0
   -1.2173   -3.9294   26.9717 O   0  0  0  0  0  0  0  0  0  0  0  0
   -1.0025   -5.0942   27.4586 C   0  0  0  0  0  0  0  0  0  0  0  0
    2.2474   -8.9123   16.6273 C   0  0  0  0  0  0  0  0  0  0  0  0
    4.4957   -9.2636   17.3041 C   0  0  0  0  0  0  0  0  0  0  0  0
   -1.8070   -5.6086   28.1920 O   0  0  0  0  0  0  0  0  0  0  0  0
   10.4296   -5.1799   28.3140 C   0  0  0  0  0  0  0  0  0  0  0  0
    6.6017   -5.9004   26.9187 C   0  0  0  0  0  0  0  0  0  0  0  0
    2.4761   -6.9940   26.4111 N   0  0  0  0  0  0  0  0  0  0  0  0
    9.1353   -5.4053   27.8239 C   0  0  0  0  0  0  0  0  0  0  0  0
    0.9922   -9.3232   16.5995 O   0  0  0  0  0  0  0  0  0  0  0  0
    1.5232   -7.6869   27.1182 C   0  0  0  0  0  0  0  0  0  0  0  0
    8.6878   -6.6715   27.7262 N   0  0  0  0  0  0  0  0  0  0  0  0
    6.9911   -8.2423   27.1808 C   0  0  0  0  0  0  0  0  0  0  0  0
    3.8436   -7.2758   16.0578 C   0  0  0  0  0  0  0  0  0  0  0  0
    3.1882   -9.7190   17.2566 C   0  0  0  0  0  0  0  0  0  0  0  0
    5.3488   -6.1737   26.5092 C   0  0  0  0  0  0  0  0  0  0  0  0
    7.4567   -6.9464   27.2858 C   0  0  0  0  0  0  0  0  0  0  0  0
    0.1921   -5.7592   27.1123 C   0  0  0  0  0  0  0  0  0  0  0  0
    3.5517   -7.7407   25.9711 C   0  0  0  0  0  0  0  0  0  0  0  0
  1  4  4  0
  1 22  4  0
  2 20  4  0
  2 27  4  0
  3 12  4  0
  3 23  4  0
  4 25  4  0
  4 28  1  0
  5  8  4  0
  5 17  4  0
  6  7  4  0
  6 16  4  0
  7 18  4  0
  8 27  4  0
  9 13  4  0
  9 23  4  0
 10 11  1  0
 11 14  2  0
 11 27  1  0
 12 19  1  0
 12 24  4  0
 13 24  4  0
 15 18  1  0
 16 25  4  0
 16 26  4  0
 17 20  4  0
 17 28  1  0
 18 21  4  0
 21 26  4  0
 22 26  4  0
M  END
$$$$

 Created by Python create_sdf_string function

 28 30  0  0  0  0  0  0  0  0999 V2000
    5.7174   -8.4529   26.7190 C   0  0  0  0  0  0  0  0  0  0  0  0
    0.3974   -7.0711   27.5149 C   0  0  0  0  0  0  0  0  0  0  0  0
    2.5338   -7.6891   16.0102 C   0  0  0  0  0  0  0  0  0  0  0  0
    4.8690   -7.4380   26.4151 C   0  0  0  0  0  0  0  0  0  0  0  0
    2.3021   -5.6726   26.0378 C   0  0  0  0  0  0  0  0  0  0  0  0
    7.0880   -4.6163   27.0010 C   0  0  0  0  0  0  0  0  0  0  0  0
    8.3117   -4.3698   27.4436 C   0  0  0  0  0  0  0  0  0  0  0  0
    1.1339   -5.0515   26.3541 C   0  0  0  0  0  0  0  0  0  0  0  0
    4.8080   -8.0362   16.7101 C   0  0  0  0  0  0  0  0  0  0  0  0
   -1.2173   -3.9294   26.9717 O   0  0  0  0  0  0  0  0  0  0  0  0
   -1.0025   -5.0942   27.4586 C   0  0  0  0  0  0  0  0  0  0  0  0
    2.2474   -8.9123   16.6273 C   0  0  0  0  0  0  0  0  0  0  0  0
    4.4957   -9.2636   17.3041 C   0  0  0  0  0  0  0  0  0  0  0  0
   -1.8070   -5.6086   28.1920 O   0  0  0  0  0  0  0  0  0  0  0  0
   10.4296   -5.1799   28.3140 C   0  0  0  0  0  0  0  0  0  0  0  0
    6.6017   -5.9004   26.9187 C   0  0  0  0  0  0  0  0  0  0  0  0
    2.4761   -6.9940   26.4111 N   0  0  0  0  0  0  0  0  0  0  0  0
    9.1353   -5.4053   27.8239 C   0  0  0  0  0  0  0  0  0  0  0  0
    0.9922   -9.3232   16.5995 O   0  0  0  0  0  0  0  0  0  0  0  0
    1.5232   -7.6869   27.1182 C   0  0  0  0  0  0  0  0  0  0  0  0
    8.6878   -6.6715   27.7262 N   0  0  0  0  0  0  0  0  0  0  0  0
    6.9911   -8.2423   27.1808 C   0  0  0  0  0  0  0  0  0  0  0  0
    3.8436   -7.2758   16.0578 C   0  0  0  0  0  0  0  0  0  0  0  0
    3.1882   -9.7190   17.2566 C   0  0  0  0  0  0  0  0  0  0  0  0
    5.3488   -6.1737   26.5092 C   0  0  0  0  0  0  0  0  0  0  0  0
    7.4567   -6.9464   27.2858 C   0  0  0  0  0  0  0  0  0  0  0  0
    0.1921   -5.7592   27.1123 C   0  0  0  0  0  0  0  0  0  0  0  0
    3.5517   -7.7407   25.9711 C   0  0  0  0  0  0  0  0  0  0  0  0
  1  4  4  0
  1 22  4  0
  2 20  4  0
  2 27  4  0
  3 12  4  0
  3 23  4  0
  4 25  4  0
  4 28  1  0
  5  8  4  0
  5 17  4  0
  6  7  4  0
  6 16  4  0
  7 18  4  0
  8 27  4  0
  9 13  4  0
  9 23  4  0
 10 11  1  0
 11 14  2  0
 11 27  1  0
 12 19  1  0
 12 24  4  0
 13 24  4  0
 15 18  1  0
 16 25  4  0
 16 26  4  0
 17 20  4  0
 17 28  1  0
 18 21  4  0
 21 26  4  0
 22 26  4  0
M  END
$$$$

 Created by Python create_sdf_string function

 28 30  0  0  0  0  0  0  0  0999 V2000
    5.7174   -8.4529   26.7190 C   0  0  0  0  0  0  0  0  0  0  0  0
    0.3974   -7.0711   27.5149 C   0  0  0  0  0  0  0  0  0  0  0  0
    2.5338   -7.6891   16.0102 C   0  0  0  0  0  0  0  0  0  0  0  0
    4.8690   -7.4380   26.4151 C   0  0  0  0  0  0  0  0  0  0  0  0
    2.3021   -5.6726   26.0378 C   0  0  0  0  0  0  0  0  0  0  0  0
    7.0880   -4.6163   27.0010 C   0  0  0  0  0  0  0  0  0  0  0  0
    8.3117   -4.3698   27.4436 C   0  0  0  0  0  0  0  0  0  0  0  0
    1.1339   -5.0515   26.3541 C   0  0  0  0  0  0  0  0  0  0  0  0
    4.8080   -8.0362   16.7101 C   0  0  0  0  0  0  0  0  0  0  0  0
   -1.2173   -3.9294   26.9717 O   0  0  0  0  0  0  0  0  0  0  0  0
   -1.0025   -5.0942   27.4586 C   0  0  0  0  0  0  0  0  0  0  0  0
    2.2474   -8.9123   16.6273 C   0  0  0  0  0  0  0  0  0  0  0  0
    4.4957   -9.2636   17.3041 C   0  0  0  0  0  0  0  0  0  0  0  0
   -1.8070   -5.6086   28.1920 O   0  0  0  0  0  0  0  0  0  0  0  0
   10.4296   -5.1799   28.3140 C   0  0  0  0  0  0  0  0  0  0  0  0
    6.6017   -5.9004   26.9187 C   0  0  0  0  0  0  0  0  0  0  0  0
    2.4761   -6.9940   26.4111 N   0  0  0  0  0  0  0  0  0  0  0  0
    9.1353   -5.4053   27.8239 C   0  0  0  0  0  0  0  0  0  0  0  0
    0.9922   -9.3232   16.5995 O   0  0  0  0  0  0  0  0  0  0  0  0
    1.5232   -7.6869   27.1182 C   0  0  0  0  0  0  0  0  0  0  0  0
    8.6878   -6.6715   27.7262 N   0  0  0  0  0  0  0  0  0  0  0  0
    6.9911   -8.2423   27.1808 C   0  0  0  0  0  0  0  0  0  0  0  0
    3.8436   -7.2758   16.0578 C   0  0  0  0  0  0  0  0  0  0  0  0
    3.1882   -9.7190   17.2566 C   0  0  0  0  0  0  0  0  0  0  0  0
    5.3488   -6.1737   26.5092 C   0  0  0  0  0  0  0  0  0  0  0  0
    7.4567   -6.9464   27.2858 C   0  0  0  0  0  0  0  0  0  0  0  0
    0.1921   -5.7592   27.1123 C   0  0  0  0  0  0  0  0  0  0  0  0
    3.5517   -7.7407   25.9711 C   0  0  0  0  0  0  0  0  0  0  0  0
  1  4  4  0
  1 22  4  0
  2 20  4  0
  2 27  4  0
  3 12  4  0
  3 23  4  0
  4 25  4  0
  4 28  1  0
  5  8  4  0
  5 17  4  0
  6  7  4  0
  6 16  4  0
  7 18  4  0
  8 27  4  0
  9 13  4  0
  9 23  4  0
 10 11  1  0
 11 14  2  0
 11 27  1  0
 12 19  1  0
 12 24  4  0
 13 24  4  0
 15 18  1  0
 16 25  4  0
 16 26  4  0
 17 20  4  0
 17 28  1  0
 18 21  4  0
 21 26  4  0
 22 26  4  0
M  END
$$$$

 Created by Python create_sdf_string function

 28 30  0  0  0  0  0  0  0  0999 V2000
    5.7174   -8.4529   26.7190 C   0  0  0  0  0  0  0  0  0  0  0  0
    0.3974   -7.0711   27.5149 C   0  0  0  0  0  0  0  0  0  0  0  0
    2.5338   -7.6891   16.0102 C   0  0  0  0  0  0  0  0  0  0  0  0
    4.8690   -7.4380   26.4151 C   0  0  0  0  0  0  0  0  0  0  0  0
    2.3021   -5.6726   26.0378 C   0  0  0  0  0  0  0  0  0  0  0  0
    7.0880   -4.6163   27.0010 C   0  0  0  0  0  0  0  0  0  0  0  0
    8.3117   -4.3698   27.4436 C   0  0  0  0  0  0  0  0  0  0  0  0
    1.1339   -5.0515   26.3541 C   0  0  0  0  0  0  0  0  0  0  0  0
    4.8080   -8.0362   16.7101 C   0  0  0  0  0  0  0  0  0  0  0  0
   -1.2173   -3.9294   26.9717 O   0  0  0  0  0  0  0  0  0  0  0  0
   -1.0025   -5.0942   27.4586 C   0  0  0  0  0  0  0  0  0  0  0  0
    2.2474   -8.9123   16.6273 C   0  0  0  0  0  0  0  0  0  0  0  0
    4.4957   -9.2636   17.3041 C   0  0  0  0  0  0  0  0  0  0  0  0
   -1.8070   -5.6086   28.1920 O   0  0  0  0  0  0  0  0  0  0  0  0
   10.4296   -5.1799   28.3140 C   0  0  0  0  0  0  0  0  0  0  0  0
    6.6017   -5.9004   26.9187 C   0  0  0  0  0  0  0  0  0  0  0  0
    2.4761   -6.9940   26.4111 N   0  0  0  0  0  0  0  0  0  0  0  0
    9.1353   -5.4053   27.8239 C   0  0  0  0  0  0  0  0  0  0  0  0
    0.9922   -9.3232   16.5995 O   0  0  0  0  0  0  0  0  0  0  0  0
    1.5232   -7.6869   27.1182 C   0  0  0  0  0  0  0  0  0  0  0  0
    8.6878   -6.6715   27.7262 N   0  0  0  0  0  0  0  0  0  0  0  0
    6.9911   -8.2423   27.1808 C   0  0  0  0  0  0  0  0  0  0  0  0
    3.8436   -7.2758   16.0578 C   0  0  0  0  0  0  0  0  0  0  0  0
    3.1882   -9.7190   17.2566 C   0  0  0  0  0  0  0  0  0  0  0  0
    5.3488   -6.1737   26.5092 C   0  0  0  0  0  0  0  0  0  0  0  0
    7.4567   -6.9464   27.2858 C   0  0  0  0  0  0  0  0  0  0  0  0
    0.1921   -5.7592   27.1123 C   0  0  0  0  0  0  0  0  0  0  0  0
    3.5517   -7.7407   25.9711 C   0  0  0  0  0  0  0  0  0  0  0  0
  1  4  4  0
  1 22  4  0
  2 20  4  0
  2 27  4  0
  3 12  4  0
  3 23  4  0
  4 25  4  0
  4 28  1  0
  5  8  4  0
  5 17  4  0
  6  7  4  0
  6 16  4  0
  7 18  4  0
  8 27  4  0
  9 13  4  0
  9 23  4  0
 10 11  1  0
 11 14  2  0
 11 27  1  0
 12 19  1  0
 12 24  4  0
 13 24  4  0
 15 18  1  0
 16 25  4  0
 16 26  4  0
 17 20  4  0
 17 28  1  0
 18 21  4  0
 21 26  4  0
 22 26  4  0
M  END
$$$$

 Created by Python create_sdf_string function

 28 30  0  0  0  0  0  0  0  0999 V2000
    5.7174   -8.4529   26.7190 C   0  0  0  0  0  0  0  0  0  0  0  0
    0.3974   -7.0711   27.5149 C   0  0  0  0  0  0  0  0  0  0  0  0
    2.5338   -7.6891   16.0102 C   0  0  0  0  0  0  0  0  0  0  0  0
    4.8690   -7.4380   26.4151 C   0  0  0  0  0  0  0  0  0  0  0  0
    2.3021   -5.6726   26.0378 C   0  0  0  0  0  0  0  0  0  0  0  0
    7.0880   -4.6163   27.0010 C   0  0  0  0  0  0  0  0  0  0  0  0
    8.3117   -4.3698   27.4436 C   0  0  0  0  0  0  0  0  0  0  0  0
    1.1339   -5.0515   26.3541 C   0  0  0  0  0  0  0  0  0  0  0  0
    4.8080   -8.0362   16.7101 C   0  0  0  0  0  0  0  0  0  0  0  0
   -1.2173   -3.9294   26.9717 O   0  0  0  0  0  0  0  0  0  0  0  0
   -1.0025   -5.0942   27.4586 C   0  0  0  0  0  0  0  0  0  0  0  0
    2.2474   -8.9123   16.6273 C   0  0  0  0  0  0  0  0  0  0  0  0
    4.4957   -9.2636   17.3041 C   0  0  0  0  0  0  0  0  0  0  0  0
   -1.8070   -5.6086   28.1920 O   0  0  0  0  0  0  0  0  0  0  0  0
   10.4296   -5.1799   28.3140 C   0  0  0  0  0  0  0  0  0  0  0  0
    6.6017   -5.9004   26.9187 C   0  0  0  0  0  0  0  0  0  0  0  0
    2.4761   -6.9940   26.4111 N   0  0  0  0  0  0  0  0  0  0  0  0
    9.1353   -5.4053   27.8239 C   0  0  0  0  0  0  0  0  0  0  0  0
    0.9922   -9.3232   16.5995 O   0  0  0  0  0  0  0  0  0  0  0  0
    1.5232   -7.6869   27.1182 C   0  0  0  0  0  0  0  0  0  0  0  0
    8.6878   -6.6715   27.7262 N   0  0  0  0  0  0  0  0  0  0  0  0
    6.9911   -8.2423   27.1808 C   0  0  0  0  0  0  0  0  0  0  0  0
    3.8436   -7.2758   16.0578 C   0  0  0  0  0  0  0  0  0  0  0  0
    3.1882   -9.7190   17.2566 C   0  0  0  0  0  0  0  0  0  0  0  0
    5.3488   -6.1737   26.5092 C   0  0  0  0  0  0  0  0  0  0  0  0
    7.4567   -6.9464   27.2858 C   0  0  0  0  0  0  0  0  0  0  0  0
    0.1921   -5.7592   27.1123 C   0  0  0  0  0  0  0  0  0  0  0  0
    3.5517   -7.7407   25.9711 C   0  0  0  0  0  0  0  0  0  0  0  0
  1  4  4  0
  1 22  4  0
  2 20  4  0
  2 27  4  0
  3 12  4  0
  3 23  4  0
  4 25  4  0
  4 28  1  0
  5  8  4  0
  5 17  4  0
  6  7  4  0
  6 16  4  0
  7 18  4  0
  8 27  4  0
  9 13  4  0
  9 23  4  0
 10 11  1  0
 11 14  2  0
 11 27  1  0
 12 19  1  0
 12 24  4  0
 13 24  4  0
 15 18  1  0
 16 25  4  0
 16 26  4  0
 17 20  4  0
 17 28  1  0
 18 21  4  0
 21 26  4  0
 22 26  4  0
M  END
$$$$

 Created by Python create_sdf_string function

 28 30  0  0  0  0  0  0  0  0999 V2000
    5.7174   -8.4529   26.7190 C   0  0  0  0  0  0  0  0  0  0  0  0
    0.3974   -7.0711   27.5149 C   0  0  0  0  0  0  0  0  0  0  0  0
    2.5338   -7.6891   16.0102 C   0  0  0  0  0  0  0  0  0  0  0  0
    4.8690   -7.4380   26.4151 C   0  0  0  0  0  0  0  0  0  0  0  0
    2.3021   -5.6726   26.0378 C   0  0  0  0  0  0  0  0  0  0  0  0
    7.0880   -4.6163   27.0010 C   0  0  0  0  0  0  0  0  0  0  0  0
    8.3117   -4.3698   27.4436 C   0  0  0  0  0  0  0  0  0  0  0  0
    1.1339   -5.0515   26.3541 C   0  0  0  0  0  0  0  0  0  0  0  0
    4.8080   -8.0362   16.7101 C   0  0  0  0  0  0  0  0  0  0  0  0
   -1.2173   -3.9294   26.9717 O   0  0  0  0  0  0  0  0  0  0  0  0
   -1.0025   -5.0942   27.4586 C   0  0  0  0  0  0  0  0  0  0  0  0
    2.2474   -8.9123   16.6273 C   0  0  0  0  0  0  0  0  0  0  0  0
    4.4957   -9.2636   17.3041 C   0  0  0  0  0  0  0  0  0  0  0  0
   -1.8070   -5.6086   28.1920 O   0  0  0  0  0  0  0  0  0  0  0  0
   10.4296   -5.1799   28.3140 C   0  0  0  0  0  0  0  0  0  0  0  0
    6.6017   -5.9004   26.9187 C   0  0  0  0  0  0  0  0  0  0  0  0
    2.4761   -6.9940   26.4111 N   0  0  0  0  0  0  0  0  0  0  0  0
    9.1353   -5.4053   27.8239 C   0  0  0  0  0  0  0  0  0  0  0  0
    0.9922   -9.3232   16.5995 O   0  0  0  0  0  0  0  0  0  0  0  0
    1.5232   -7.6869   27.1182 C   0  0  0  0  0  0  0  0  0  0  0  0
    8.6878   -6.6715   27.7262 N   0  0  0  0  0  0  0  0  0  0  0  0
    6.9911   -8.2423   27.1808 C   0  0  0  0  0  0  0  0  0  0  0  0
    3.8436   -7.2758   16.0578 C   0  0  0  0  0  0  0  0  0  0  0  0
    3.1882   -9.7190   17.2566 C   0  0  0  0  0  0  0  0  0  0  0  0
    5.3488   -6.1737   26.5092 C   0  0  0  0  0  0  0  0  0  0  0  0
    7.4567   -6.9464   27.2858 C   0  0  0  0  0  0  0  0  0  0  0  0
    0.1921   -5.7592   27.1123 C   0  0  0  0  0  0  0  0  0  0  0  0
    3.5517   -7.7407   25.9711 C   0  0  0  0  0  0  0  0  0  0  0  0
  1  4  4  0
  1 22  4  0
  2 20  4  0
  2 27  4  0
  3 12  4  0
  3 23  4  0
  4 25  4  0
  4 28  1  0
  5  8  4  0
  5 17  4  0
  6  7  4  0
  6 16  4  0
  7 18  4  0
  8 27  4  0
  9 13  4  0
  9 23  4  0
 10 11  1  0
 11 14  2  0
 11 27  1  0
 12 19  1  0
 12 24  4  0
 13 24  4  0
 15 18  1  0
 16 25  4  0
 16 26  4  0
 17 20  4  0
 17 28  1  0
 18 21  4  0
 21 26  4  0
 22 26  4  0
M  END
$$$$

 Created by Python create_sdf_string function

 28 30  0  0  0  0  0  0  0  0999 V2000
    5.7174   -8.4529   26.7190 C   0  0  0  0  0  0  0  0  0  0  0  0
    0.3974   -7.0711   27.5149 C   0  0  0  0  0  0  0  0  0  0  0  0
    2.5338   -7.6891   16.0102 C   0  0  0  0  0  0  0  0  0  0  0  0
    4.8690   -7.4380   26.4151 C   0  0  0  0  0  0  0  0  0  0  0  0
    2.3021   -5.6726   26.0378 C   0  0  0  0  0  0  0  0  0  0  0  0
    7.0880   -4.6163   27.0010 C   0  0  0  0  0  0  0  0  0  0  0  0
    8.3117   -4.3698   27.4436 C   0  0  0  0  0  0  0  0  0  0  0  0
    1.1339   -5.0515   26.3541 C   0  0  0  0  0  0  0  0  0  0  0  0
    4.8080   -8.0362   16.7101 C   0  0  0  0  0  0  0  0  0  0  0  0
   -1.2173   -3.9294   26.9717 O   0  0  0  0  0  0  0  0  0  0  0  0
   -1.0025   -5.0942   27.4586 C   0  0  0  0  0  0  0  0  0  0  0  0
    2.2474   -8.9123   16.6273 C   0  0  0  0  0  0  0  0  0  0  0  0
    4.4957   -9.2636   17.3041 C   0  0  0  0  0  0  0  0  0  0  0  0
   -1.8070   -5.6086   28.1920 O   0  0  0  0  0  0  0  0  0  0  0  0
   10.4296   -5.1799   28.3140 C   0  0  0  0  0  0  0  0  0  0  0  0
    6.6017   -5.9004   26.9187 C   0  0  0  0  0  0  0  0  0  0  0  0
    2.4761   -6.9940   26.4111 N   0  0  0  0  0  0  0  0  0  0  0  0
    9.1353   -5.4053   27.8239 C   0  0  0  0  0  0  0  0  0  0  0  0
    0.9922   -9.3232   16.5995 O   0  0  0  0  0  0  0  0  0  0  0  0
    1.5232   -7.6869   27.1182 C   0  0  0  0  0  0  0  0  0  0  0  0
    8.6878   -6.6715   27.7262 N   0  0  0  0  0  0  0  0  0  0  0  0
    6.9911   -8.2423   27.1808 C   0  0  0  0  0  0  0  0  0  0  0  0
    3.8436   -7.2758   16.0578 C   0  0  0  0  0  0  0  0  0  0  0  0
    3.1882   -9.7190   17.2566 C   0  0  0  0  0  0  0  0  0  0  0  0
    5.3488   -6.1737   26.5092 C   0  0  0  0  0  0  0  0  0  0  0  0
    7.4567   -6.9464   27.2858 C   0  0  0  0  0  0  0  0  0  0  0  0
    0.1921   -5.7592   27.1123 C   0  0  0  0  0  0  0  0  0  0  0  0
    3.5517   -7.7407   25.9711 C   0  0  0  0  0  0  0  0  0  0  0  0
  1  4  4  0
  1 22  4  0
  2 20  4  0
  2 27  4  0
  3 12  4  0
  3 23  4  0
  4 25  4  0
  4 28  1  0
  5  8  4  0
  5 17  4  0
  6  7  4  0
  6 16  4  0
  7 18  4  0
  8 27  4  0
  9 13  4  0
  9 23  4  0
 10 11  1  0
 11 14  2  0
 11 27  1  0
 12 19  1  0
 12 24  4  0
 13 24  4  0
 15 18  1  0
 16 25  4  0
 16 26  4  0
 17 20  4  0
 17 28  1  0
 18 21  4  0
 21 26  4  0
 22 26  4  0
M  END
$$$$

 Created by Python create_sdf_string function

 28 30  0  0  0  0  0  0  0  0999 V2000
    5.7174   -8.4529   26.7190 C   0  0  0  0  0  0  0  0  0  0  0  0
    0.3974   -7.0711   27.5149 C   0  0  0  0  0  0  0  0  0  0  0  0
    2.5338   -7.6891   16.0102 C   0  0  0  0  0  0  0  0  0  0  0  0
    4.8690   -7.4380   26.4151 C   0  0  0  0  0  0  0  0  0  0  0  0
    2.3021   -5.6726   26.0378 C   0  0  0  0  0  0  0  0  0  0  0  0
    7.0880   -4.6163   27.0010 C   0  0  0  0  0  0  0  0  0  0  0  0
    8.3117   -4.3698   27.4436 C   0  0  0  0  0  0  0  0  0  0  0  0
    1.1339   -5.0515   26.3541 C   0  0  0  0  0  0  0  0  0  0  0  0
    4.8080   -8.0362   16.7101 C   0  0  0  0  0  0  0  0  0  0  0  0
   -1.2173   -3.9294   26.9717 O   0  0  0  0  0  0  0  0  0  0  0  0
   -1.0025   -5.0942   27.4586 C   0  0  0  0  0  0  0  0  0  0  0  0
    2.2474   -8.9123   16.6273 C   0  0  0  0  0  0  0  0  0  0  0  0
    4.4957   -9.2636   17.3041 C   0  0  0  0  0  0  0  0  0  0  0  0
   -1.8070   -5.6086   28.1920 O   0  0  0  0  0  0  0  0  0  0  0  0
   10.4296   -5.1799   28.3140 C   0  0  0  0  0  0  0  0  0  0  0  0
    6.6017   -5.9004   26.9187 C   0  0  0  0  0  0  0  0  0  0  0  0
    2.4761   -6.9940   26.4111 N   0  0  0  0  0  0  0  0  0  0  0  0
    9.1353   -5.4053   27.8239 C   0  0  0  0  0  0  0  0  0  0  0  0
    0.9922   -9.3232   16.5995 O   0  0  0  0  0  0  0  0  0  0  0  0
    1.5232   -7.6869   27.1182 C   0  0  0  0  0  0  0  0  0  0  0  0
    8.6878   -6.6715   27.7262 N   0  0  0  0  0  0  0  0  0  0  0  0
    6.9911   -8.2423   27.1808 C   0  0  0  0  0  0  0  0  0  0  0  0
    3.8436   -7.2758   16.0578 C   0  0  0  0  0  0  0  0  0  0  0  0
    3.1882   -9.7190   17.2566 C   0  0  0  0  0  0  0  0  0  0  0  0
    5.3488   -6.1737   26.5092 C   0  0  0  0  0  0  0  0  0  0  0  0
    7.4567   -6.9464   27.2858 C   0  0  0  0  0  0  0  0  0  0  0  0
    0.1921   -5.7592   27.1123 C   0  0  0  0  0  0  0  0  0  0  0  0
    3.5517   -7.7407   25.9711 C   0  0  0  0  0  0  0  0  0  0  0  0
  1  4  4  0
  1 22  4  0
  2 20  4  0
  2 27  4  0
  3 12  4  0
  3 23  4  0
  4 25  4  0
  4 28  1  0
  5  8  4  0
  5 17  4  0
  6  7  4  0
  6 16  4  0
  7 18  4  0
  8 27  4  0
  9 13  4  0
  9 23  4  0
 10 11  1  0
 11 14  2  0
 11 27  1  0
 12 19  1  0
 12 24  4  0
 13 24  4  0
 15 18  1  0
 16 25  4  0
 16 26  4  0
 17 20  4  0
 17 28  1  0
 18 21  4  0
 21 26  4  0
 22 26  4  0
M  END
$$$$

 Created by Python create_sdf_string function

 28 30  0  0  0  0  0  0  0  0999 V2000
    5.7174   -8.4529   26.7190 C   0  0  0  0  0  0  0  0  0  0  0  0
    0.3974   -7.0711   27.5149 C   0  0  0  0  0  0  0  0  0  0  0  0
    2.5338   -7.6891   16.0102 C   0  0  0  0  0  0  0  0  0  0  0  0
    4.8690   -7.4380   26.4151 C   0  0  0  0  0  0  0  0  0  0  0  0
    2.3021   -5.6726   26.0378 C   0  0  0  0  0  0  0  0  0  0  0  0
    7.0880   -4.6163   27.0010 C   0  0  0  0  0  0  0  0  0  0  0  0
    8.3117   -4.3698   27.4436 C   0  0  0  0  0  0  0  0  0  0  0  0
    1.1339   -5.0515   26.3541 C   0  0  0  0  0  0  0  0  0  0  0  0
    4.8080   -8.0362   16.7101 C   0  0  0  0  0  0  0  0  0  0  0  0
   -1.2173   -3.9294   26.9717 O   0  0  0  0  0  0  0  0  0  0  0  0
   -1.0025   -5.0942   27.4586 C   0  0  0  0  0  0  0  0  0  0  0  0
    2.2474   -8.9123   16.6273 C   0  0  0  0  0  0  0  0  0  0  0  0
    4.4957   -9.2636   17.3041 C   0  0  0  0  0  0  0  0  0  0  0  0
   -1.8070   -5.6086   28.1920 O   0  0  0  0  0  0  0  0  0  0  0  0
   10.4296   -5.1799   28.3140 C   0  0  0  0  0  0  0  0  0  0  0  0
    6.6017   -5.9004   26.9187 C   0  0  0  0  0  0  0  0  0  0  0  0
    2.4761   -6.9940   26.4111 N   0  0  0  0  0  0  0  0  0  0  0  0
    9.1353   -5.4053   27.8239 C   0  0  0  0  0  0  0  0  0  0  0  0
    0.9922   -9.3232   16.5995 O   0  0  0  0  0  0  0  0  0  0  0  0
    1.5232   -7.6869   27.1182 C   0  0  0  0  0  0  0  0  0  0  0  0
    8.6878   -6.6715   27.7262 N   0  0  0  0  0  0  0  0  0  0  0  0
    6.9911   -8.2423   27.1808 C   0  0  0  0  0  0  0  0  0  0  0  0
    3.8436   -7.2758   16.0578 C   0  0  0  0  0  0  0  0  0  0  0  0
    3.1882   -9.7190   17.2566 C   0  0  0  0  0  0  0  0  0  0  0  0
    5.3488   -6.1737   26.5092 C   0  0  0  0  0  0  0  0  0  0  0  0
    7.4567   -6.9464   27.2858 C   0  0  0  0  0  0  0  0  0  0  0  0
    0.1921   -5.7592   27.1123 C   0  0  0  0  0  0  0  0  0  0  0  0
    3.5517   -7.7407   25.9711 C   0  0  0  0  0  0  0  0  0  0  0  0
  1  4  4  0
  1 22  4  0
  2 20  4  0
  2 27  4  0
  3 12  4  0
  3 23  4  0
  4 25  4  0
  4 28  1  0
  5  8  4  0
  5 17  4  0
  6  7  4  0
  6 16  4  0
  7 18  4  0
  8 27  4  0
  9 13  4  0
  9 23  4  0
 10 11  1  0
 11 14  2  0
 11 27  1  0
 12 19  1  0
 12 24  4  0
 13 24  4  0
 15 18  1  0
 16 25  4  0
 16 26  4  0
 17 20  4  0
 17 28  1  0
 18 21  4  0
 21 26  4  0
 22 26  4  0
M  END
$$$$

 Created by Python create_sdf_string function

 28 30  0  0  0  0  0  0  0  0999 V2000
    5.7174   -8.4529   26.7190 C   0  0  0  0  0  0  0  0  0  0  0  0
    0.3974   -7.0711   27.5149 C   0  0  0  0  0  0  0  0  0  0  0  0
    2.5338   -7.6891   16.0102 C   0  0  0  0  0  0  0  0  0  0  0  0
    4.8690   -7.4380   26.4151 C   0  0  0  0  0  0  0  0  0  0  0  0
    2.3021   -5.6726   26.0378 C   0  0  0  0  0  0  0  0  0  0  0  0
    7.0880   -4.6163   27.0010 C   0  0  0  0  0  0  0  0  0  0  0  0
    8.3117   -4.3698   27.4436 C   0  0  0  0  0  0  0  0  0  0  0  0
    1.1339   -5.0515   26.3541 C   0  0  0  0  0  0  0  0  0  0  0  0
    4.8080   -8.0362   16.7101 C   0  0  0  0  0  0  0  0  0  0  0  0
   -1.2173   -3.9294   26.9717 O   0  0  0  0  0  0  0  0  0  0  0  0
   -1.0025   -5.0942   27.4586 C   0  0  0  0  0  0  0  0  0  0  0  0
    2.2474   -8.9123   16.6273 C   0  0  0  0  0  0  0  0  0  0  0  0
    4.4957   -9.2636   17.3041 C   0  0  0  0  0  0  0  0  0  0  0  0
   -1.8070   -5.6086   28.1920 O   0  0  0  0  0  0  0  0  0  0  0  0
   10.4296   -5.1799   28.3140 C   0  0  0  0  0  0  0  0  0  0  0  0
    6.6017   -5.9004   26.9187 C   0  0  0  0  0  0  0  0  0  0  0  0
    2.4761   -6.9940   26.4111 N   0  0  0  0  0  0  0  0  0  0  0  0
    9.1353   -5.4053   27.8239 C   0  0  0  0  0  0  0  0  0  0  0  0
    0.9922   -9.3232   16.5995 O   0  0  0  0  0  0  0  0  0  0  0  0
    1.5232   -7.6869   27.1182 C   0  0  0  0  0  0  0  0  0  0  0  0
    8.6878   -6.6715   27.7262 N   0  0  0  0  0  0  0  0  0  0  0  0
    6.9911   -8.2423   27.1808 C   0  0  0  0  0  0  0  0  0  0  0  0
    3.8436   -7.2758   16.0578 C   0  0  0  0  0  0  0  0  0  0  0  0
    3.1882   -9.7190   17.2566 C   0  0  0  0  0  0  0  0  0  0  0  0
    5.3488   -6.1737   26.5092 C   0  0  0  0  0  0  0  0  0  0  0  0
    7.4567   -6.9464   27.2858 C   0  0  0  0  0  0  0  0  0  0  0  0
    0.1921   -5.7592   27.1123 C   0  0  0  0  0  0  0  0  0  0  0  0
    3.5517   -7.7407   25.9711 C   0  0  0  0  0  0  0  0  0  0  0  0
  1  4  4  0
  1 22  4  0
  2 20  4  0
  2 27  4  0
  3 12  4  0
  3 23  4  0
  4 25  4  0
  4 28  1  0
  5  8  4  0
  5 17  4  0
  6  7  4  0
  6 16  4  0
  7 18  4  0
  8 27  4  0
  9 13  4  0
  9 23  4  0
 10 11  1  0
 11 14  2  0
 11 27  1  0
 12 19  1  0
 12 24  4  0
 13 24  4  0
 15 18  1  0
 16 25  4  0
 16 26  4  0
 17 20  4  0
 17 28  1  0
 18 21  4  0
 21 26  4  0
 22 26  4  0
M  END
$$$$

 Created by Python create_sdf_string function

 28 30  0  0  0  0  0  0  0  0999 V2000
    5.7174   -8.4529   26.7190 C   0  0  0  0  0  0  0  0  0  0  0  0
    0.3974   -7.0711   27.5149 C   0  0  0  0  0  0  0  0  0  0  0  0
    2.5338   -7.6891   16.0102 C   0  0  0  0  0  0  0  0  0  0  0  0
    4.8690   -7.4380   26.4151 C   0  0  0  0  0  0  0  0  0  0  0  0
    2.3021   -5.6726   26.0378 C   0  0  0  0  0  0  0  0  0  0  0  0
    7.0880   -4.6163   27.0010 C   0  0  0  0  0  0  0  0  0  0  0  0
    8.3117   -4.3698   27.4436 C   0  0  0  0  0  0  0  0  0  0  0  0
    1.1339   -5.0515   26.3541 C   0  0  0  0  0  0  0  0  0  0  0  0
    4.8080   -8.0362   16.7101 C   0  0  0  0  0  0  0  0  0  0  0  0
   -1.2173   -3.9294   26.9717 O   0  0  0  0  0  0  0  0  0  0  0  0
   -1.0025   -5.0942   27.4586 C   0  0  0  0  0  0  0  0  0  0  0  0
    2.2474   -8.9123   16.6273 C   0  0  0  0  0  0  0  0  0  0  0  0
    4.4957   -9.2636   17.3041 C   0  0  0  0  0  0  0  0  0  0  0  0
   -1.8070   -5.6086   28.1920 O   0  0  0  0  0  0  0  0  0  0  0  0
   10.4296   -5.1799   28.3140 C   0  0  0  0  0  0  0  0  0  0  0  0
    6.6017   -5.9004   26.9187 C   0  0  0  0  0  0  0  0  0  0  0  0
    2.4761   -6.9940   26.4111 N   0  0  0  0  0  0  0  0  0  0  0  0
    9.1353   -5.4053   27.8239 C   0  0  0  0  0  0  0  0  0  0  0  0
    0.9922   -9.3232   16.5995 O   0  0  0  0  0  0  0  0  0  0  0  0
    1.5232   -7.6869   27.1182 C   0  0  0  0  0  0  0  0  0  0  0  0
    8.6878   -6.6715   27.7262 N   0  0  0  0  0  0  0  0  0  0  0  0
    6.9911   -8.2423   27.1808 C   0  0  0  0  0  0  0  0  0  0  0  0
    3.8436   -7.2758   16.0578 C   0  0  0  0  0  0  0  0  0  0  0  0
    3.1882   -9.7190   17.2566 C   0  0  0  0  0  0  0  0  0  0  0  0
    5.3488   -6.1737   26.5092 C   0  0  0  0  0  0  0  0  0  0  0  0
    7.4567   -6.9464   27.2858 C   0  0  0  0  0  0  0  0  0  0  0  0
    0.1921   -5.7592   27.1123 C   0  0  0  0  0  0  0  0  0  0  0  0
    3.5517   -7.7407   25.9711 C   0  0  0  0  0  0  0  0  0  0  0  0
  1  4  4  0
  1 22  4  0
  2 20  4  0
  2 27  4  0
  3 12  4  0
  3 23  4  0
  4 25  4  0
  4 28  1  0
  5  8  4  0
  5 17  4  0
  6  7  4  0
  6 16  4  0
  7 18  4  0
  8 27  4  0
  9 13  4  0
  9 23  4  0
 10 11  1  0
 11 14  2  0
 11 27  1  0
 12 19  1  0
 12 24  4  0
 13 24  4  0
 15 18  1  0
 16 25  4  0
 16 26  4  0
 17 20  4  0
 17 28  1  0
 18 21  4  0
 21 26  4  0
 22 26  4  0
M  END
$$$$

 Created by Python create_sdf_string function

 28 30  0  0  0  0  0  0  0  0999 V2000
    5.7174   -8.4529   26.7190 C   0  0  0  0  0  0  0  0  0  0  0  0
    0.3974   -7.0711   27.5149 C   0  0  0  0  0  0  0  0  0  0  0  0
    2.5338   -7.6891   16.0102 C   0  0  0  0  0  0  0  0  0  0  0  0
    4.8690   -7.4380   26.4151 C   0  0  0  0  0  0  0  0  0  0  0  0
    2.3021   -5.6726   26.0378 C   0  0  0  0  0  0  0  0  0  0  0  0
    7.0880   -4.6163   27.0010 C   0  0  0  0  0  0  0  0  0  0  0  0
    8.3117   -4.3698   27.4436 C   0  0  0  0  0  0  0  0  0  0  0  0
    1.1339   -5.0515   26.3541 C   0  0  0  0  0  0  0  0  0  0  0  0
    4.8080   -8.0362   16.7101 C   0  0  0  0  0  0  0  0  0  0  0  0
   -1.2173   -3.9294   26.9717 O   0  0  0  0  0  0  0  0  0  0  0  0
   -1.0025   -5.0942   27.4586 C   0  0  0  0  0  0  0  0  0  0  0  0
    2.2474   -8.9123   16.6273 C   0  0  0  0  0  0  0  0  0  0  0  0
    4.4957   -9.2636   17.3041 C   0  0  0  0  0  0  0  0  0  0  0  0
   -1.8070   -5.6086   28.1920 O   0  0  0  0  0  0  0  0  0  0  0  0
   10.4296   -5.1799   28.3140 C   0  0  0  0  0  0  0  0  0  0  0  0
    6.6017   -5.9004   26.9187 C   0  0  0  0  0  0  0  0  0  0  0  0
    2.4761   -6.9940   26.4111 N   0  0  0  0  0  0  0  0  0  0  0  0
    9.1353   -5.4053   27.8239 C   0  0  0  0  0  0  0  0  0  0  0  0
    0.9922   -9.3232   16.5995 O   0  0  0  0  0  0  0  0  0  0  0  0
    1.5232   -7.6869   27.1182 C   0  0  0  0  0  0  0  0  0  0  0  0
    8.6878   -6.6715   27.7262 N   0  0  0  0  0  0  0  0  0  0  0  0
    6.9911   -8.2423   27.1808 C   0  0  0  0  0  0  0  0  0  0  0  0
    3.8436   -7.2758   16.0578 C   0  0  0  0  0  0  0  0  0  0  0  0
    3.1882   -9.7190   17.2566 C   0  0  0  0  0  0  0  0  0  0  0  0
    5.3488   -6.1737   26.5092 C   0  0  0  0  0  0  0  0  0  0  0  0
    7.4567   -6.9464   27.2858 C   0  0  0  0  0  0  0  0  0  0  0  0
    0.1921   -5.7592   27.1123 C   0  0  0  0  0  0  0  0  0  0  0  0
    3.5517   -7.7407   25.9711 C   0  0  0  0  0  0  0  0  0  0  0  0
  1  4  4  0
  1 22  4  0
  2 20  4  0
  2 27  4  0
  3 12  4  0
  3 23  4  0
  4 25  4  0
  4 28  1  0
  5  8  4  0
  5 17  4  0
  6  7  4  0
  6 16  4  0
  7 18  4  0
  8 27  4  0
  9 13  4  0
  9 23  4  0
 10 11  1  0
 11 14  2  0
 11 27  1  0
 12 19  1  0
 12 24  4  0
 13 24  4  0
 15 18  1  0
 16 25  4  0
 16 26  4  0
 17 20  4  0
 17 28  1  0
 18 21  4  0
 21 26  4  0
 22 26  4  0
M  END
$$$$

 Created by Python create_sdf_string function

 28 30  0  0  0  0  0  0  0  0999 V2000
    5.7174   -8.4529   26.7190 C   0  0  0  0  0  0  0  0  0  0  0  0
    0.3974   -7.0711   27.5149 C   0  0  0  0  0  0  0  0  0  0  0  0
    2.5338   -7.6891   16.0102 C   0  0  0  0  0  0  0  0  0  0  0  0
    4.8690   -7.4380   26.4151 C   0  0  0  0  0  0  0  0  0  0  0  0
    2.3021   -5.6726   26.0378 C   0  0  0  0  0  0  0  0  0  0  0  0
    7.0880   -4.6163   27.0010 C   0  0  0  0  0  0  0  0  0  0  0  0
    8.3117   -4.3698   27.4436 C   0  0  0  0  0  0  0  0  0  0  0  0
    1.1339   -5.0515   26.3541 C   0  0  0  0  0  0  0  0  0  0  0  0
    4.8080   -8.0362   16.7101 C   0  0  0  0  0  0  0  0  0  0  0  0
   -1.2173   -3.9294   26.9717 O   0  0  0  0  0  0  0  0  0  0  0  0
   -1.0025   -5.0942   27.4586 C   0  0  0  0  0  0  0  0  0  0  0  0
    2.2474   -8.9123   16.6273 C   0  0  0  0  0  0  0  0  0  0  0  0
    4.4957   -9.2636   17.3041 C   0  0  0  0  0  0  0  0  0  0  0  0
   -1.8070   -5.6086   28.1920 O   0  0  0  0  0  0  0  0  0  0  0  0
   10.4296   -5.1799   28.3140 C   0  0  0  0  0  0  0  0  0  0  0  0
    6.6017   -5.9004   26.9187 C   0  0  0  0  0  0  0  0  0  0  0  0
    2.4761   -6.9940   26.4111 N   0  0  0  0  0  0  0  0  0  0  0  0
    9.1353   -5.4053   27.8239 C   0  0  0  0  0  0  0  0  0  0  0  0
    0.9922   -9.3232   16.5995 O   0  0  0  0  0  0  0  0  0  0  0  0
    1.5232   -7.6869   27.1182 C   0  0  0  0  0  0  0  0  0  0  0  0
    8.6878   -6.6715   27.7262 N   0  0  0  0  0  0  0  0  0  0  0  0
    6.9911   -8.2423   27.1808 C   0  0  0  0  0  0  0  0  0  0  0  0
    3.8436   -7.2758   16.0578 C   0  0  0  0  0  0  0  0  0  0  0  0
    3.1882   -9.7190   17.2566 C   0  0  0  0  0  0  0  0  0  0  0  0
    5.3488   -6.1737   26.5092 C   0  0  0  0  0  0  0  0  0  0  0  0
    7.4567   -6.9464   27.2858 C   0  0  0  0  0  0  0  0  0  0  0  0
    0.1921   -5.7592   27.1123 C   0  0  0  0  0  0  0  0  0  0  0  0
    3.5517   -7.7407   25.9711 C   0  0  0  0  0  0  0  0  0  0  0  0
  1  4  4  0
  1 22  4  0
  2 20  4  0
  2 27  4  0
  3 12  4  0
  3 23  4  0
  4 25  4  0
  4 28  1  0
  5  8  4  0
  5 17  4  0
  6  7  4  0
  6 16  4  0
  7 18  4  0
  8 27  4  0
  9 13  4  0
  9 23  4  0
 10 11  1  0
 11 14  2  0
 11 27  1  0
 12 19  1  0
 12 24  4  0
 13 24  4  0
 15 18  1  0
 16 25  4  0
 16 26  4  0
 17 20  4  0
 17 28  1  0
 18 21  4  0
 21 26  4  0
 22 26  4  0
M  END
$$$$

 Created by Python create_sdf_string function

 28 30  0  0  0  0  0  0  0  0999 V2000
    5.7174   -8.4529   26.7190 C   0  0  0  0  0  0  0  0  0  0  0  0
    0.3974   -7.0711   27.5149 C   0  0  0  0  0  0  0  0  0  0  0  0
    2.5338   -7.6891   16.0102 C   0  0  0  0  0  0  0  0  0  0  0  0
    4.8690   -7.4380   26.4151 C   0  0  0  0  0  0  0  0  0  0  0  0
    2.3021   -5.6726   26.0378 C   0  0  0  0  0  0  0  0  0  0  0  0
    7.0880   -4.6163   27.0010 C   0  0  0  0  0  0  0  0  0  0  0  0
    8.3117   -4.3698   27.4436 C   0  0  0  0  0  0  0  0  0  0  0  0
    1.1339   -5.0515   26.3541 C   0  0  0  0  0  0  0  0  0  0  0  0
    4.8080   -8.0362   16.7101 C   0  0  0  0  0  0  0  0  0  0  0  0
   -1.2173   -3.9294   26.9717 O   0  0  0  0  0  0  0  0  0  0  0  0
   -1.0025   -5.0942   27.4586 C   0  0  0  0  0  0  0  0  0  0  0  0
    2.2474   -8.9123   16.6273 C   0  0  0  0  0  0  0  0  0  0  0  0
    4.4957   -9.2636   17.3041 C   0  0  0  0  0  0  0  0  0  0  0  0
   -1.8070   -5.6086   28.1920 O   0  0  0  0  0  0  0  0  0  0  0  0
   10.4296   -5.1799   28.3140 C   0  0  0  0  0  0  0  0  0  0  0  0
    6.6017   -5.9004   26.9187 C   0  0  0  0  0  0  0  0  0  0  0  0
    2.4761   -6.9940   26.4111 N   0  0  0  0  0  0  0  0  0  0  0  0
    9.1353   -5.4053   27.8239 C   0  0  0  0  0  0  0  0  0  0  0  0
    0.9922   -9.3232   16.5995 O   0  0  0  0  0  0  0  0  0  0  0  0
    1.5232   -7.6869   27.1182 C   0  0  0  0  0  0  0  0  0  0  0  0
    8.6878   -6.6715   27.7262 N   0  0  0  0  0  0  0  0  0  0  0  0
    6.9911   -8.2423   27.1808 C   0  0  0  0  0  0  0  0  0  0  0  0
    3.8436   -7.2758   16.0578 C   0  0  0  0  0  0  0  0  0  0  0  0
    3.1882   -9.7190   17.2566 C   0  0  0  0  0  0  0  0  0  0  0  0
    5.3488   -6.1737   26.5092 C   0  0  0  0  0  0  0  0  0  0  0  0
    7.4567   -6.9464   27.2858 C   0  0  0  0  0  0  0  0  0  0  0  0
    0.1921   -5.7592   27.1123 C   0  0  0  0  0  0  0  0  0  0  0  0
    3.5517   -7.7407   25.9711 C   0  0  0  0  0  0  0  0  0  0  0  0
  1  4  4  0
  1 22  4  0
  2 20  4  0
  2 27  4  0
  3 12  4  0
  3 23  4  0
  4 25  4  0
  4 28  1  0
  5  8  4  0
  5 17  4  0
  6  7  4  0
  6 16  4  0
  7 18  4  0
  8 27  4  0
  9 13  4  0
  9 23  4  0
 10 11  1  0
 11 14  2  0
 11 27  1  0
 12 19  1  0
 12 24  4  0
 13 24  4  0
 15 18  1  0
 16 25  4  0
 16 26  4  0
 17 20  4  0
 17 28  1  0
 18 21  4  0
 21 26  4  0
 22 26  4  0
M  END
$$$$

 Created by Python create_sdf_string function

 28 30  0  0  0  0  0  0  0  0999 V2000
    5.7174   -8.4529   26.7190 C   0  0  0  0  0  0  0  0  0  0  0  0
    0.3974   -7.0711   27.5149 C   0  0  0  0  0  0  0  0  0  0  0  0
    2.5338   -7.6891   16.0102 C   0  0  0  0  0  0  0  0  0  0  0  0
    4.8690   -7.4380   26.4151 C   0  0  0  0  0  0  0  0  0  0  0  0
    2.3021   -5.6726   26.0378 C   0  0  0  0  0  0  0  0  0  0  0  0
    7.0880   -4.6163   27.0010 C   0  0  0  0  0  0  0  0  0  0  0  0
    8.3117   -4.3698   27.4436 C   0  0  0  0  0  0  0  0  0  0  0  0
    1.1339   -5.0515   26.3541 C   0  0  0  0  0  0  0  0  0  0  0  0
    4.8080   -8.0362   16.7101 C   0  0  0  0  0  0  0  0  0  0  0  0
   -1.2173   -3.9294   26.9717 O   0  0  0  0  0  0  0  0  0  0  0  0
   -1.0025   -5.0942   27.4586 C   0  0  0  0  0  0  0  0  0  0  0  0
    2.2474   -8.9123   16.6273 C   0  0  0  0  0  0  0  0  0  0  0  0
    4.4957   -9.2636   17.3041 C   0  0  0  0  0  0  0  0  0  0  0  0
   -1.8070   -5.6086   28.1920 O   0  0  0  0  0  0  0  0  0  0  0  0
   10.4296   -5.1799   28.3140 C   0  0  0  0  0  0  0  0  0  0  0  0
    6.6017   -5.9004   26.9187 C   0  0  0  0  0  0  0  0  0  0  0  0
    2.4761   -6.9940   26.4111 N   0  0  0  0  0  0  0  0  0  0  0  0
    9.1353   -5.4053   27.8239 C   0  0  0  0  0  0  0  0  0  0  0  0
    0.9922   -9.3232   16.5995 O   0  0  0  0  0  0  0  0  0  0  0  0
    1.5232   -7.6869   27.1182 C   0  0  0  0  0  0  0  0  0  0  0  0
    8.6878   -6.6715   27.7262 N   0  0  0  0  0  0  0  0  0  0  0  0
    6.9911   -8.2423   27.1808 C   0  0  0  0  0  0  0  0  0  0  0  0
    3.8436   -7.2758   16.0578 C   0  0  0  0  0  0  0  0  0  0  0  0
    3.1882   -9.7190   17.2566 C   0  0  0  0  0  0  0  0  0  0  0  0
    5.3488   -6.1737   26.5092 C   0  0  0  0  0  0  0  0  0  0  0  0
    7.4567   -6.9464   27.2858 C   0  0  0  0  0  0  0  0  0  0  0  0
    0.1921   -5.7592   27.1123 C   0  0  0  0  0  0  0  0  0  0  0  0
    3.5517   -7.7407   25.9711 C   0  0  0  0  0  0  0  0  0  0  0  0
  1  4  4  0
  1 22  4  0
  2 20  4  0
  2 27  4  0
  3 12  4  0
  3 23  4  0
  4 25  4  0
  4 28  1  0
  5  8  4  0
  5 17  4  0
  6  7  4  0
  6 16  4  0
  7 18  4  0
  8 27  4  0
  9 13  4  0
  9 23  4  0
 10 11  1  0
 11 14  2  0
 11 27  1  0
 12 19  1  0
 12 24  4  0
 13 24  4  0
 15 18  1  0
 16 25  4  0
 16 26  4  0
 17 20  4  0
 17 28  1  0
 18 21  4  0
 21 26  4  0
 22 26  4  0
M  END
$$$$

 Created by Python create_sdf_string function

 28 30  0  0  0  0  0  0  0  0999 V2000
    5.7174   -8.4529   26.7190 C   0  0  0  0  0  0  0  0  0  0  0  0
    0.3974   -7.0711   27.5149 C   0  0  0  0  0  0  0  0  0  0  0  0
    2.5338   -7.6891   16.0102 C   0  0  0  0  0  0  0  0  0  0  0  0
    4.8690   -7.4380   26.4151 C   0  0  0  0  0  0  0  0  0  0  0  0
    2.3021   -5.6726   26.0378 C   0  0  0  0  0  0  0  0  0  0  0  0
    7.0880   -4.6163   27.0010 C   0  0  0  0  0  0  0  0  0  0  0  0
    8.3117   -4.3698   27.4436 C   0  0  0  0  0  0  0  0  0  0  0  0
    1.1339   -5.0515   26.3541 C   0  0  0  0  0  0  0  0  0  0  0  0
    4.8080   -8.0362   16.7101 C   0  0  0  0  0  0  0  0  0  0  0  0
   -1.2173   -3.9294   26.9717 O   0  0  0  0  0  0  0  0  0  0  0  0
   -1.0025   -5.0942   27.4586 C   0  0  0  0  0  0  0  0  0  0  0  0
    2.2474   -8.9123   16.6273 C   0  0  0  0  0  0  0  0  0  0  0  0
    4.4957   -9.2636   17.3041 C   0  0  0  0  0  0  0  0  0  0  0  0
   -1.8070   -5.6086   28.1920 O   0  0  0  0  0  0  0  0  0  0  0  0
   10.4296   -5.1799   28.3140 C   0  0  0  0  0  0  0  0  0  0  0  0
    6.6017   -5.9004   26.9187 C   0  0  0  0  0  0  0  0  0  0  0  0
    2.4761   -6.9940   26.4111 N   0  0  0  0  0  0  0  0  0  0  0  0
    9.1353   -5.4053   27.8239 C   0  0  0  0  0  0  0  0  0  0  0  0
    0.9922   -9.3232   16.5995 O   0  0  0  0  0  0  0  0  0  0  0  0
    1.5232   -7.6869   27.1182 C   0  0  0  0  0  0  0  0  0  0  0  0
    8.6878   -6.6715   27.7262 N   0  0  0  0  0  0  0  0  0  0  0  0
    6.9911   -8.2423   27.1808 C   0  0  0  0  0  0  0  0  0  0  0  0
    3.8436   -7.2758   16.0578 C   0  0  0  0  0  0  0  0  0  0  0  0
    3.1882   -9.7190   17.2566 C   0  0  0  0  0  0  0  0  0  0  0  0
    5.3488   -6.1737   26.5092 C   0  0  0  0  0  0  0  0  0  0  0  0
    7.4567   -6.9464   27.2858 C   0  0  0  0  0  0  0  0  0  0  0  0
    0.1921   -5.7592   27.1123 C   0  0  0  0  0  0  0  0  0  0  0  0
    3.5517   -7.7407   25.9711 C   0  0  0  0  0  0  0  0  0  0  0  0
  1  4  4  0
  1 22  4  0
  2 20  4  0
  2 27  4  0
  3 12  4  0
  3 23  4  0
  4 25  4  0
  4 28  1  0
  5  8  4  0
  5 17  4  0
  6  7  4  0
  6 16  4  0
  7 18  4  0
  8 27  4  0
  9 13  4  0
  9 23  4  0
 10 11  1  0
 11 14  2  0
 11 27  1  0
 12 19  1  0
 12 24  4  0
 13 24  4  0
 15 18  1  0
 16 25  4  0
 16 26  4  0
 17 20  4  0
 17 28  1  0
 18 21  4  0
 21 26  4  0
 22 26  4  0
M  END
$$$$

 Created by Python create_sdf_string function

 28 30  0  0  0  0  0  0  0  0999 V2000
    5.7174   -8.4529   26.7190 C   0  0  0  0  0  0  0  0  0  0  0  0
    0.3974   -7.0711   27.5149 C   0  0  0  0  0  0  0  0  0  0  0  0
    2.5338   -7.6891   16.0102 C   0  0  0  0  0  0  0  0  0  0  0  0
    4.8690   -7.4380   26.4151 C   0  0  0  0  0  0  0  0  0  0  0  0
    2.3021   -5.6726   26.0378 C   0  0  0  0  0  0  0  0  0  0  0  0
    7.0880   -4.6163   27.0010 C   0  0  0  0  0  0  0  0  0  0  0  0
    8.3117   -4.3698   27.4436 C   0  0  0  0  0  0  0  0  0  0  0  0
    1.1339   -5.0515   26.3541 C   0  0  0  0  0  0  0  0  0  0  0  0
    4.8080   -8.0362   16.7101 C   0  0  0  0  0  0  0  0  0  0  0  0
   -1.2173   -3.9294   26.9717 O   0  0  0  0  0  0  0  0  0  0  0  0
   -1.0025   -5.0942   27.4586 C   0  0  0  0  0  0  0  0  0  0  0  0
    2.2474   -8.9123   16.6273 C   0  0  0  0  0  0  0  0  0  0  0  0
    4.4957   -9.2636   17.3041 C   0  0  0  0  0  0  0  0  0  0  0  0
   -1.8070   -5.6086   28.1920 O   0  0  0  0  0  0  0  0  0  0  0  0
   10.4296   -5.1799   28.3140 C   0  0  0  0  0  0  0  0  0  0  0  0
    6.6017   -5.9004   26.9187 C   0  0  0  0  0  0  0  0  0  0  0  0
    2.4761   -6.9940   26.4111 N   0  0  0  0  0  0  0  0  0  0  0  0
    9.1353   -5.4053   27.8239 C   0  0  0  0  0  0  0  0  0  0  0  0
    0.9922   -9.3232   16.5995 O   0  0  0  0  0  0  0  0  0  0  0  0
    1.5232   -7.6869   27.1182 C   0  0  0  0  0  0  0  0  0  0  0  0
    8.6878   -6.6715   27.7262 N   0  0  0  0  0  0  0  0  0  0  0  0
    6.9911   -8.2423   27.1808 C   0  0  0  0  0  0  0  0  0  0  0  0
    3.8436   -7.2758   16.0578 C   0  0  0  0  0  0  0  0  0  0  0  0
    3.1882   -9.7190   17.2566 C   0  0  0  0  0  0  0  0  0  0  0  0
    5.3488   -6.1737   26.5092 C   0  0  0  0  0  0  0  0  0  0  0  0
    7.4567   -6.9464   27.2858 C   0  0  0  0  0  0  0  0  0  0  0  0
    0.1921   -5.7592   27.1123 C   0  0  0  0  0  0  0  0  0  0  0  0
    3.5517   -7.7407   25.9711 C   0  0  0  0  0  0  0  0  0  0  0  0
  1  4  4  0
  1 22  4  0
  2 20  4  0
  2 27  4  0
  3 12  4  0
  3 23  4  0
  4 25  4  0
  4 28  1  0
  5  8  4  0
  5 17  4  0
  6  7  4  0
  6 16  4  0
  7 18  4  0
  8 27  4  0
  9 13  4  0
  9 23  4  0
 10 11  1  0
 11 14  2  0
 11 27  1  0
 12 19  1  0
 12 24  4  0
 13 24  4  0
 15 18  1  0
 16 25  4  0
 16 26  4  0
 17 20  4  0
 17 28  1  0
 18 21  4  0
 21 26  4  0
 22 26  4  0
M  END
$$$$

 Created by Python create_sdf_string function

 28 30  0  0  0  0  0  0  0  0999 V2000
    5.7174   -8.4529   26.7190 C   0  0  0  0  0  0  0  0  0  0  0  0
    0.3974   -7.0711   27.5149 C   0  0  0  0  0  0  0  0  0  0  0  0
    2.5338   -7.6891   16.0102 C   0  0  0  0  0  0  0  0  0  0  0  0
    4.8690   -7.4380   26.4151 C   0  0  0  0  0  0  0  0  0  0  0  0
    2.3021   -5.6726   26.0378 C   0  0  0  0  0  0  0  0  0  0  0  0
    7.0880   -4.6163   27.0010 C   0  0  0  0  0  0  0  0  0  0  0  0
    8.3117   -4.3698   27.4436 C   0  0  0  0  0  0  0  0  0  0  0  0
    1.1339   -5.0515   26.3541 C   0  0  0  0  0  0  0  0  0  0  0  0
    4.8080   -8.0362   16.7101 C   0  0  0  0  0  0  0  0  0  0  0  0
   -1.2173   -3.9294   26.9717 O   0  0  0  0  0  0  0  0  0  0  0  0
   -1.0025   -5.0942   27.4586 C   0  0  0  0  0  0  0  0  0  0  0  0
    2.2474   -8.9123   16.6273 C   0  0  0  0  0  0  0  0  0  0  0  0
    4.4957   -9.2636   17.3041 C   0  0  0  0  0  0  0  0  0  0  0  0
   -1.8070   -5.6086   28.1920 O   0  0  0  0  0  0  0  0  0  0  0  0
   10.4296   -5.1799   28.3140 C   0  0  0  0  0  0  0  0  0  0  0  0
    6.6017   -5.9004   26.9187 C   0  0  0  0  0  0  0  0  0  0  0  0
    2.4761   -6.9940   26.4111 N   0  0  0  0  0  0  0  0  0  0  0  0
    9.1353   -5.4053   27.8239 C   0  0  0  0  0  0  0  0  0  0  0  0
    0.9922   -9.3232   16.5995 O   0  0  0  0  0  0  0  0  0  0  0  0
    1.5232   -7.6869   27.1182 C   0  0  0  0  0  0  0  0  0  0  0  0
    8.6878   -6.6715   27.7262 N   0  0  0  0  0  0  0  0  0  0  0  0
    6.9911   -8.2423   27.1808 C   0  0  0  0  0  0  0  0  0  0  0  0
    3.8436   -7.2758   16.0578 C   0  0  0  0  0  0  0  0  0  0  0  0
    3.1882   -9.7190   17.2566 C   0  0  0  0  0  0  0  0  0  0  0  0
    5.3488   -6.1737   26.5092 C   0  0  0  0  0  0  0  0  0  0  0  0
    7.4567   -6.9464   27.2858 C   0  0  0  0  0  0  0  0  0  0  0  0
    0.1921   -5.7592   27.1123 C   0  0  0  0  0  0  0  0  0  0  0  0
    3.5517   -7.7407   25.9711 C   0  0  0  0  0  0  0  0  0  0  0  0
  1  4  4  0
  1 22  4  0
  2 20  4  0
  2 27  4  0
  3 12  4  0
  3 23  4  0
  4 25  4  0
  4 28  1  0
  5  8  4  0
  5 17  4  0
  6  7  4  0
  6 16  4  0
  7 18  4  0
  8 27  4  0
  9 13  4  0
  9 23  4  0
 10 11  1  0
 11 14  2  0
 11 27  1  0
 12 19  1  0
 12 24  4  0
 13 24  4  0
 15 18  1  0
 16 25  4  0
 16 26  4  0
 17 20  4  0
 17 28  1  0
 18 21  4  0
 21 26  4  0
 22 26  4  0
M  END
$$$$

 Created by Python create_sdf_string function

 28 30  0  0  0  0  0  0  0  0999 V2000
    5.7174   -8.4529   26.7190 C   0  0  0  0  0  0  0  0  0  0  0  0
    0.3974   -7.0711   27.5149 C   0  0  0  0  0  0  0  0  0  0  0  0
    2.5338   -7.6891   16.0102 C   0  0  0  0  0  0  0  0  0  0  0  0
    4.8690   -7.4380   26.4151 C   0  0  0  0  0  0  0  0  0  0  0  0
    2.3021   -5.6726   26.0378 C   0  0  0  0  0  0  0  0  0  0  0  0
    7.0880   -4.6163   27.0010 C   0  0  0  0  0  0  0  0  0  0  0  0
    8.3117   -4.3698   27.4436 C   0  0  0  0  0  0  0  0  0  0  0  0
    1.1339   -5.0515   26.3541 C   0  0  0  0  0  0  0  0  0  0  0  0
    4.8080   -8.0362   16.7101 C   0  0  0  0  0  0  0  0  0  0  0  0
   -1.2173   -3.9294   26.9717 O   0  0  0  0  0  0  0  0  0  0  0  0
   -1.0025   -5.0942   27.4586 C   0  0  0  0  0  0  0  0  0  0  0  0
    2.2474   -8.9123   16.6273 C   0  0  0  0  0  0  0  0  0  0  0  0
    4.4957   -9.2636   17.3041 C   0  0  0  0  0  0  0  0  0  0  0  0
   -1.8070   -5.6086   28.1920 O   0  0  0  0  0  0  0  0  0  0  0  0
   10.4296   -5.1799   28.3140 C   0  0  0  0  0  0  0  0  0  0  0  0
    6.6017   -5.9004   26.9187 C   0  0  0  0  0  0  0  0  0  0  0  0
    2.4761   -6.9940   26.4111 N   0  0  0  0  0  0  0  0  0  0  0  0
    9.1353   -5.4053   27.8239 C   0  0  0  0  0  0  0  0  0  0  0  0
    0.9922   -9.3232   16.5995 O   0  0  0  0  0  0  0  0  0  0  0  0
    1.5232   -7.6869   27.1182 C   0  0  0  0  0  0  0  0  0  0  0  0
    8.6878   -6.6715   27.7262 N   0  0  0  0  0  0  0  0  0  0  0  0
    6.9911   -8.2423   27.1808 C   0  0  0  0  0  0  0  0  0  0  0  0
    3.8436   -7.2758   16.0578 C   0  0  0  0  0  0  0  0  0  0  0  0
    3.1882   -9.7190   17.2566 C   0  0  0  0  0  0  0  0  0  0  0  0
    5.3488   -6.1737   26.5092 C   0  0  0  0  0  0  0  0  0  0  0  0
    7.4567   -6.9464   27.2858 C   0  0  0  0  0  0  0  0  0  0  0  0
    0.1921   -5.7592   27.1123 C   0  0  0  0  0  0  0  0  0  0  0  0
    3.5517   -7.7407   25.9711 C   0  0  0  0  0  0  0  0  0  0  0  0
  1  4  4  0
  1 22  4  0
  2 20  4  0
  2 27  4  0
  3 12  4  0
  3 23  4  0
  4 25  4  0
  4 28  1  0
  5  8  4  0
  5 17  4  0
  6  7  4  0
  6 16  4  0
  7 18  4  0
  8 27  4  0
  9 13  4  0
  9 23  4  0
 10 11  1  0
 11 14  2  0
 11 27  1  0
 12 19  1  0
 12 24  4  0
 13 24  4  0
 15 18  1  0
 16 25  4  0
 16 26  4  0
 17 20  4  0
 17 28  1  0
 18 21  4  0
 21 26  4  0
 22 26  4  0
M  END
$$$$

 Created by Python create_sdf_string function

 28 30  0  0  0  0  0  0  0  0999 V2000
    5.7174   -8.4529   26.7190 C   0  0  0  0  0  0  0  0  0  0  0  0
    0.3974   -7.0711   27.5149 C   0  0  0  0  0  0  0  0  0  0  0  0
    2.5338   -7.6891   16.0102 C   0  0  0  0  0  0  0  0  0  0  0  0
    4.8690   -7.4380   26.4151 C   0  0  0  0  0  0  0  0  0  0  0  0
    2.3021   -5.6726   26.0378 C   0  0  0  0  0  0  0  0  0  0  0  0
    7.0880   -4.6163   27.0010 C   0  0  0  0  0  0  0  0  0  0  0  0
    8.3117   -4.3698   27.4436 C   0  0  0  0  0  0  0  0  0  0  0  0
    1.1339   -5.0515   26.3541 C   0  0  0  0  0  0  0  0  0  0  0  0
    4.8080   -8.0362   16.7101 C   0  0  0  0  0  0  0  0  0  0  0  0
   -1.2173   -3.9294   26.9717 O   0  0  0  0  0  0  0  0  0  0  0  0
   -1.0025   -5.0942   27.4586 C   0  0  0  0  0  0  0  0  0  0  0  0
    2.2474   -8.9123   16.6273 C   0  0  0  0  0  0  0  0  0  0  0  0
    4.4957   -9.2636   17.3041 C   0  0  0  0  0  0  0  0  0  0  0  0
   -1.8070   -5.6086   28.1920 O   0  0  0  0  0  0  0  0  0  0  0  0
   10.4296   -5.1799   28.3140 C   0  0  0  0  0  0  0  0  0  0  0  0
    6.6017   -5.9004   26.9187 C   0  0  0  0  0  0  0  0  0  0  0  0
    2.4761   -6.9940   26.4111 N   0  0  0  0  0  0  0  0  0  0  0  0
    9.1353   -5.4053   27.8239 C   0  0  0  0  0  0  0  0  0  0  0  0
    0.9922   -9.3232   16.5995 O   0  0  0  0  0  0  0  0  0  0  0  0
    1.5232   -7.6869   27.1182 C   0  0  0  0  0  0  0  0  0  0  0  0
    8.6878   -6.6715   27.7262 N   0  0  0  0  0  0  0  0  0  0  0  0
    6.9911   -8.2423   27.1808 C   0  0  0  0  0  0  0  0  0  0  0  0
    3.8436   -7.2758   16.0578 C   0  0  0  0  0  0  0  0  0  0  0  0
    3.1882   -9.7190   17.2566 C   0  0  0  0  0  0  0  0  0  0  0  0
    5.3488   -6.1737   26.5092 C   0  0  0  0  0  0  0  0  0  0  0  0
    7.4567   -6.9464   27.2858 C   0  0  0  0  0  0  0  0  0  0  0  0
    0.1921   -5.7592   27.1123 C   0  0  0  0  0  0  0  0  0  0  0  0
    3.5517   -7.7407   25.9711 C   0  0  0  0  0  0  0  0  0  0  0  0
  1  4  4  0
  1 22  4  0
  2 20  4  0
  2 27  4  0
  3 12  4  0
  3 23  4  0
  4 25  4  0
  4 28  1  0
  5  8  4  0
  5 17  4  0
  6  7  4  0
  6 16  4  0
  7 18  4  0
  8 27  4  0
  9 13  4  0
  9 23  4  0
 10 11  1  0
 11 14  2  0
 11 27  1  0
 12 19  1  0
 12 24  4  0
 13 24  4  0
 15 18  1  0
 16 25  4  0
 16 26  4  0
 17 20  4  0
 17 28  1  0
 18 21  4  0
 21 26  4  0
 22 26  4  0
M  END
$$$$

 Created by Python create_sdf_string function

 28 30  0  0  0  0  0  0  0  0999 V2000
    5.7174   -8.4529   26.7190 C   0  0  0  0  0  0  0  0  0  0  0  0
    0.3974   -7.0711   27.5149 C   0  0  0  0  0  0  0  0  0  0  0  0
    2.5338   -7.6891   16.0102 C   0  0  0  0  0  0  0  0  0  0  0  0
    4.8690   -7.4380   26.4151 C   0  0  0  0  0  0  0  0  0  0  0  0
    2.3021   -5.6726   26.0378 C   0  0  0  0  0  0  0  0  0  0  0  0
    7.0880   -4.6163   27.0010 C   0  0  0  0  0  0  0  0  0  0  0  0
    8.3117   -4.3698   27.4436 C   0  0  0  0  0  0  0  0  0  0  0  0
    1.1339   -5.0515   26.3541 C   0  0  0  0  0  0  0  0  0  0  0  0
    4.8080   -8.0362   16.7101 C   0  0  0  0  0  0  0  0  0  0  0  0
   -1.2173   -3.9294   26.9717 O   0  0  0  0  0  0  0  0  0  0  0  0
   -1.0025   -5.0942   27.4586 C   0  0  0  0  0  0  0  0  0  0  0  0
    2.2474   -8.9123   16.6273 C   0  0  0  0  0  0  0  0  0  0  0  0
    4.4957   -9.2636   17.3041 C   0  0  0  0  0  0  0  0  0  0  0  0
   -1.8070   -5.6086   28.1920 O   0  0  0  0  0  0  0  0  0  0  0  0
   10.4296   -5.1799   28.3140 C   0  0  0  0  0  0  0  0  0  0  0  0
    6.6017   -5.9004   26.9187 C   0  0  0  0  0  0  0  0  0  0  0  0
    2.4761   -6.9940   26.4111 N   0  0  0  0  0  0  0  0  0  0  0  0
    9.1353   -5.4053   27.8239 C   0  0  0  0  0  0  0  0  0  0  0  0
    0.9922   -9.3232   16.5995 O   0  0  0  0  0  0  0  0  0  0  0  0
    1.5232   -7.6869   27.1182 C   0  0  0  0  0  0  0  0  0  0  0  0
    8.6878   -6.6715   27.7262 N   0  0  0  0  0  0  0  0  0  0  0  0
    6.9911   -8.2423   27.1808 C   0  0  0  0  0  0  0  0  0  0  0  0
    3.8436   -7.2758   16.0578 C   0  0  0  0  0  0  0  0  0  0  0  0
    3.1882   -9.7190   17.2566 C   0  0  0  0  0  0  0  0  0  0  0  0
    5.3488   -6.1737   26.5092 C   0  0  0  0  0  0  0  0  0  0  0  0
    7.4567   -6.9464   27.2858 C   0  0  0  0  0  0  0  0  0  0  0  0
    0.1921   -5.7592   27.1123 C   0  0  0  0  0  0  0  0  0  0  0  0
    3.5517   -7.7407   25.9711 C   0  0  0  0  0  0  0  0  0  0  0  0
  1  4  4  0
  1 22  4  0
  2 20  4  0
  2 27  4  0
  3 12  4  0
  3 23  4  0
  4 25  4  0
  4 28  1  0
  5  8  4  0
  5 17  4  0
  6  7  4  0
  6 16  4  0
  7 18  4  0
  8 27  4  0
  9 13  4  0
  9 23  4  0
 10 11  1  0
 11 14  2  0
 11 27  1  0
 12 19  1  0
 12 24  4  0
 13 24  4  0
 15 18  1  0
 16 25  4  0
 16 26  4  0
 17 20  4  0
 17 28  1  0
 18 21  4  0
 21 26  4  0
 22 26  4  0
M  END
$$$$

 Created by Python create_sdf_string function

 28 30  0  0  0  0  0  0  0  0999 V2000
    5.7174   -8.4529   26.7190 C   0  0  0  0  0  0  0  0  0  0  0  0
    0.3974   -7.0711   27.5149 C   0  0  0  0  0  0  0  0  0  0  0  0
    2.5338   -7.6891   16.0102 C   0  0  0  0  0  0  0  0  0  0  0  0
    4.8690   -7.4380   26.4151 C   0  0  0  0  0  0  0  0  0  0  0  0
    2.3021   -5.6726   26.0378 C   0  0  0  0  0  0  0  0  0  0  0  0
    7.0880   -4.6163   27.0010 C   0  0  0  0  0  0  0  0  0  0  0  0
    8.3117   -4.3698   27.4436 C   0  0  0  0  0  0  0  0  0  0  0  0
    1.1339   -5.0515   26.3541 C   0  0  0  0  0  0  0  0  0  0  0  0
    4.8080   -8.0362   16.7101 C   0  0  0  0  0  0  0  0  0  0  0  0
   -1.2173   -3.9294   26.9717 O   0  0  0  0  0  0  0  0  0  0  0  0
   -1.0025   -5.0942   27.4586 C   0  0  0  0  0  0  0  0  0  0  0  0
    2.2474   -8.9123   16.6273 C   0  0  0  0  0  0  0  0  0  0  0  0
    4.4957   -9.2636   17.3041 C   0  0  0  0  0  0  0  0  0  0  0  0
   -1.8070   -5.6086   28.1920 O   0  0  0  0  0  0  0  0  0  0  0  0
   10.4296   -5.1799   28.3140 C   0  0  0  0  0  0  0  0  0  0  0  0
    6.6017   -5.9004   26.9187 C   0  0  0  0  0  0  0  0  0  0  0  0
    2.4761   -6.9940   26.4111 N   0  0  0  0  0  0  0  0  0  0  0  0
    9.1353   -5.4053   27.8239 C   0  0  0  0  0  0  0  0  0  0  0  0
    0.9922   -9.3232   16.5995 O   0  0  0  0  0  0  0  0  0  0  0  0
    1.5232   -7.6869   27.1182 C   0  0  0  0  0  0  0  0  0  0  0  0
    8.6878   -6.6715   27.7262 N   0  0  0  0  0  0  0  0  0  0  0  0
    6.9911   -8.2423   27.1808 C   0  0  0  0  0  0  0  0  0  0  0  0
    3.8436   -7.2758   16.0578 C   0  0  0  0  0  0  0  0  0  0  0  0
    3.1882   -9.7190   17.2566 C   0  0  0  0  0  0  0  0  0  0  0  0
    5.3488   -6.1737   26.5092 C   0  0  0  0  0  0  0  0  0  0  0  0
    7.4567   -6.9464   27.2858 C   0  0  0  0  0  0  0  0  0  0  0  0
    0.1921   -5.7592   27.1123 C   0  0  0  0  0  0  0  0  0  0  0  0
    3.5517   -7.7407   25.9711 C   0  0  0  0  0  0  0  0  0  0  0  0
  1  4  4  0
  1 22  4  0
  2 20  4  0
  2 27  4  0
  3 12  4  0
  3 23  4  0
  4 25  4  0
  4 28  1  0
  5  8  4  0
  5 17  4  0
  6  7  4  0
  6 16  4  0
  7 18  4  0
  8 27  4  0
  9 13  4  0
  9 23  4  0
 10 11  1  0
 11 14  2  0
 11 27  1  0
 12 19  1  0
 12 24  4  0
 13 24  4  0
 15 18  1  0
 16 25  4  0
 16 26  4  0
 17 20  4  0
 17 28  1  0
 18 21  4  0
 21 26  4  0
 22 26  4  0
M  END
$$$$

 Created by Python create_sdf_string function

 28 30  0  0  0  0  0  0  0  0999 V2000
    5.7174   -8.4529   26.7190 C   0  0  0  0  0  0  0  0  0  0  0  0
    0.3974   -7.0711   27.5149 C   0  0  0  0  0  0  0  0  0  0  0  0
    2.5338   -7.6891   16.0102 C   0  0  0  0  0  0  0  0  0  0  0  0
    4.8690   -7.4380   26.4151 C   0  0  0  0  0  0  0  0  0  0  0  0
    2.3021   -5.6726   26.0378 C   0  0  0  0  0  0  0  0  0  0  0  0
    7.0880   -4.6163   27.0010 C   0  0  0  0  0  0  0  0  0  0  0  0
    8.3117   -4.3698   27.4436 C   0  0  0  0  0  0  0  0  0  0  0  0
    1.1339   -5.0515   26.3541 C   0  0  0  0  0  0  0  0  0  0  0  0
    4.8080   -8.0362   16.7101 C   0  0  0  0  0  0  0  0  0  0  0  0
   -1.2173   -3.9294   26.9717 O   0  0  0  0  0  0  0  0  0  0  0  0
   -1.0025   -5.0942   27.4586 C   0  0  0  0  0  0  0  0  0  0  0  0
    2.2474   -8.9123   16.6273 C   0  0  0  0  0  0  0  0  0  0  0  0
    4.4957   -9.2636   17.3041 C   0  0  0  0  0  0  0  0  0  0  0  0
   -1.8070   -5.6086   28.1920 O   0  0  0  0  0  0  0  0  0  0  0  0
   10.4296   -5.1799   28.3140 C   0  0  0  0  0  0  0  0  0  0  0  0
    6.6017   -5.9004   26.9187 C   0  0  0  0  0  0  0  0  0  0  0  0
    2.4761   -6.9940   26.4111 N   0  0  0  0  0  0  0  0  0  0  0  0
    9.1353   -5.4053   27.8239 C   0  0  0  0  0  0  0  0  0  0  0  0
    0.9922   -9.3232   16.5995 O   0  0  0  0  0  0  0  0  0  0  0  0
    1.5232   -7.6869   27.1182 C   0  0  0  0  0  0  0  0  0  0  0  0
    8.6878   -6.6715   27.7262 N   0  0  0  0  0  0  0  0  0  0  0  0
    6.9911   -8.2423   27.1808 C   0  0  0  0  0  0  0  0  0  0  0  0
    3.8436   -7.2758   16.0578 C   0  0  0  0  0  0  0  0  0  0  0  0
    3.1882   -9.7190   17.2566 C   0  0  0  0  0  0  0  0  0  0  0  0
    5.3488   -6.1737   26.5092 C   0  0  0  0  0  0  0  0  0  0  0  0
    7.4567   -6.9464   27.2858 C   0  0  0  0  0  0  0  0  0  0  0  0
    0.1921   -5.7592   27.1123 C   0  0  0  0  0  0  0  0  0  0  0  0
    3.5517   -7.7407   25.9711 C   0  0  0  0  0  0  0  0  0  0  0  0
  1  4  4  0
  1 22  4  0
  2 20  4  0
  2 27  4  0
  3 12  4  0
  3 23  4  0
  4 25  4  0
  4 28  1  0
  5  8  4  0
  5 17  4  0
  6  7  4  0
  6 16  4  0
  7 18  4  0
  8 27  4  0
  9 13  4  0
  9 23  4  0
 10 11  1  0
 11 14  2  0
 11 27  1  0
 12 19  1  0
 12 24  4  0
 13 24  4  0
 15 18  1  0
 16 25  4  0
 16 26  4  0
 17 20  4  0
 17 28  1  0
 18 21  4  0
 21 26  4  0
 22 26  4  0
M  END
$$$$

 Created by Python create_sdf_string function

 28 30  0  0  0  0  0  0  0  0999 V2000
    5.7174   -8.4529   26.7190 C   0  0  0  0  0  0  0  0  0  0  0  0
    0.3974   -7.0711   27.5149 C   0  0  0  0  0  0  0  0  0  0  0  0
    2.5338   -7.6891   16.0102 C   0  0  0  0  0  0  0  0  0  0  0  0
    4.8690   -7.4380   26.4151 C   0  0  0  0  0  0  0  0  0  0  0  0
    2.3021   -5.6726   26.0378 C   0  0  0  0  0  0  0  0  0  0  0  0
    7.0880   -4.6163   27.0010 C   0  0  0  0  0  0  0  0  0  0  0  0
    8.3117   -4.3698   27.4436 C   0  0  0  0  0  0  0  0  0  0  0  0
    1.1339   -5.0515   26.3541 C   0  0  0  0  0  0  0  0  0  0  0  0
    4.8080   -8.0362   16.7101 C   0  0  0  0  0  0  0  0  0  0  0  0
   -1.2173   -3.9294   26.9717 O   0  0  0  0  0  0  0  0  0  0  0  0
   -1.0025   -5.0942   27.4586 C   0  0  0  0  0  0  0  0  0  0  0  0
    2.2474   -8.9123   16.6273 C   0  0  0  0  0  0  0  0  0  0  0  0
    4.4957   -9.2636   17.3041 C   0  0  0  0  0  0  0  0  0  0  0  0
   -1.8070   -5.6086   28.1920 O   0  0  0  0  0  0  0  0  0  0  0  0
   10.4296   -5.1799   28.3140 C   0  0  0  0  0  0  0  0  0  0  0  0
    6.6017   -5.9004   26.9187 C   0  0  0  0  0  0  0  0  0  0  0  0
    2.4761   -6.9940   26.4111 N   0  0  0  0  0  0  0  0  0  0  0  0
    9.1353   -5.4053   27.8239 C   0  0  0  0  0  0  0  0  0  0  0  0
    0.9922   -9.3232   16.5995 O   0  0  0  0  0  0  0  0  0  0  0  0
    1.5232   -7.6869   27.1182 C   0  0  0  0  0  0  0  0  0  0  0  0
    8.6878   -6.6715   27.7262 N   0  0  0  0  0  0  0  0  0  0  0  0
    6.9911   -8.2423   27.1808 C   0  0  0  0  0  0  0  0  0  0  0  0
    3.8436   -7.2758   16.0578 C   0  0  0  0  0  0  0  0  0  0  0  0
    3.1882   -9.7190   17.2566 C   0  0  0  0  0  0  0  0  0  0  0  0
    5.3488   -6.1737   26.5092 C   0  0  0  0  0  0  0  0  0  0  0  0
    7.4567   -6.9464   27.2858 C   0  0  0  0  0  0  0  0  0  0  0  0
    0.1921   -5.7592   27.1123 C   0  0  0  0  0  0  0  0  0  0  0  0
    3.5517   -7.7407   25.9711 C   0  0  0  0  0  0  0  0  0  0  0  0
  1  4  4  0
  1 22  4  0
  2 20  4  0
  2 27  4  0
  3 12  4  0
  3 23  4  0
  4 25  4  0
  4 28  1  0
  5  8  4  0
  5 17  4  0
  6  7  4  0
  6 16  4  0
  7 18  4  0
  8 27  4  0
  9 13  4  0
  9 23  4  0
 10 11  1  0
 11 14  2  0
 11 27  1  0
 12 19  1  0
 12 24  4  0
 13 24  4  0
 15 18  1  0
 16 25  4  0
 16 26  4  0
 17 20  4  0
 17 28  1  0
 18 21  4  0
 21 26  4  0
 22 26  4  0
M  END
$$$$

 Created by Python create_sdf_string function

 28 30  0  0  0  0  0  0  0  0999 V2000
    5.7174   -8.4529   26.7190 C   0  0  0  0  0  0  0  0  0  0  0  0
    0.3974   -7.0711   27.5149 C   0  0  0  0  0  0  0  0  0  0  0  0
    2.5338   -7.6891   16.0102 C   0  0  0  0  0  0  0  0  0  0  0  0
    4.8690   -7.4380   26.4151 C   0  0  0  0  0  0  0  0  0  0  0  0
    2.3021   -5.6726   26.0378 C   0  0  0  0  0  0  0  0  0  0  0  0
    7.0880   -4.6163   27.0010 C   0  0  0  0  0  0  0  0  0  0  0  0
    8.3117   -4.3698   27.4436 C   0  0  0  0  0  0  0  0  0  0  0  0
    1.1339   -5.0515   26.3541 C   0  0  0  0  0  0  0  0  0  0  0  0
    4.8080   -8.0362   16.7101 C   0  0  0  0  0  0  0  0  0  0  0  0
   -1.2173   -3.9294   26.9717 O   0  0  0  0  0  0  0  0  0  0  0  0
   -1.0025   -5.0942   27.4586 C   0  0  0  0  0  0  0  0  0  0  0  0
    2.2474   -8.9123   16.6273 C   0  0  0  0  0  0  0  0  0  0  0  0
    4.4957   -9.2636   17.3041 C   0  0  0  0  0  0  0  0  0  0  0  0
   -1.8070   -5.6086   28.1920 O   0  0  0  0  0  0  0  0  0  0  0  0
   10.4296   -5.1799   28.3140 C   0  0  0  0  0  0  0  0  0  0  0  0
    6.6017   -5.9004   26.9187 C   0  0  0  0  0  0  0  0  0  0  0  0
    2.4761   -6.9940   26.4111 N   0  0  0  0  0  0  0  0  0  0  0  0
    9.1353   -5.4053   27.8239 C   0  0  0  0  0  0  0  0  0  0  0  0
    0.9922   -9.3232   16.5995 O   0  0  0  0  0  0  0  0  0  0  0  0
    1.5232   -7.6869   27.1182 C   0  0  0  0  0  0  0  0  0  0  0  0
    8.6878   -6.6715   27.7262 N   0  0  0  0  0  0  0  0  0  0  0  0
    6.9911   -8.2423   27.1808 C   0  0  0  0  0  0  0  0  0  0  0  0
    3.8436   -7.2758   16.0578 C   0  0  0  0  0  0  0  0  0  0  0  0
    3.1882   -9.7190   17.2566 C   0  0  0  0  0  0  0  0  0  0  0  0
    5.3488   -6.1737   26.5092 C   0  0  0  0  0  0  0  0  0  0  0  0
    7.4567   -6.9464   27.2858 C   0  0  0  0  0  0  0  0  0  0  0  0
    0.1921   -5.7592   27.1123 C   0  0  0  0  0  0  0  0  0  0  0  0
    3.5517   -7.7407   25.9711 C   0  0  0  0  0  0  0  0  0  0  0  0
  1  4  4  0
  1 22  4  0
  2 20  4  0
  2 27  4  0
  3 12  4  0
  3 23  4  0
  4 25  4  0
  4 28  1  0
  5  8  4  0
  5 17  4  0
  6  7  4  0
  6 16  4  0
  7 18  4  0
  8 27  4  0
  9 13  4  0
  9 23  4  0
 10 11  1  0
 11 14  2  0
 11 27  1  0
 12 19  1  0
 12 24  4  0
 13 24  4  0
 15 18  1  0
 16 25  4  0
 16 26  4  0
 17 20  4  0
 17 28  1  0
 18 21  4  0
 21 26  4  0
 22 26  4  0
M  END
$$$$

 Created by Python create_sdf_string function

 28 30  0  0  0  0  0  0  0  0999 V2000
    5.7174   -8.4529   26.7190 C   0  0  0  0  0  0  0  0  0  0  0  0
    0.3974   -7.0711   27.5149 C   0  0  0  0  0  0  0  0  0  0  0  0
    2.5338   -7.6891   16.0102 C   0  0  0  0  0  0  0  0  0  0  0  0
    4.8690   -7.4380   26.4151 C   0  0  0  0  0  0  0  0  0  0  0  0
    2.3021   -5.6726   26.0378 C   0  0  0  0  0  0  0  0  0  0  0  0
    7.0880   -4.6163   27.0010 C   0  0  0  0  0  0  0  0  0  0  0  0
    8.3117   -4.3698   27.4436 C   0  0  0  0  0  0  0  0  0  0  0  0
    1.1339   -5.0515   26.3541 C   0  0  0  0  0  0  0  0  0  0  0  0
    4.8080   -8.0362   16.7101 C   0  0  0  0  0  0  0  0  0  0  0  0
   -1.2173   -3.9294   26.9717 O   0  0  0  0  0  0  0  0  0  0  0  0
   -1.0025   -5.0942   27.4586 C   0  0  0  0  0  0  0  0  0  0  0  0
    2.2474   -8.9123   16.6273 C   0  0  0  0  0  0  0  0  0  0  0  0
    4.4957   -9.2636   17.3041 C   0  0  0  0  0  0  0  0  0  0  0  0
   -1.8070   -5.6086   28.1920 O   0  0  0  0  0  0  0  0  0  0  0  0
   10.4296   -5.1799   28.3140 C   0  0  0  0  0  0  0  0  0  0  0  0
    6.6017   -5.9004   26.9187 C   0  0  0  0  0  0  0  0  0  0  0  0
    2.4761   -6.9940   26.4111 N   0  0  0  0  0  0  0  0  0  0  0  0
    9.1353   -5.4053   27.8239 C   0  0  0  0  0  0  0  0  0  0  0  0
    0.9922   -9.3232   16.5995 O   0  0  0  0  0  0  0  0  0  0  0  0
    1.5232   -7.6869   27.1182 C   0  0  0  0  0  0  0  0  0  0  0  0
    8.6878   -6.6715   27.7262 N   0  0  0  0  0  0  0  0  0  0  0  0
    6.9911   -8.2423   27.1808 C   0  0  0  0  0  0  0  0  0  0  0  0
    3.8436   -7.2758   16.0578 C   0  0  0  0  0  0  0  0  0  0  0  0
    3.1882   -9.7190   17.2566 C   0  0  0  0  0  0  0  0  0  0  0  0
    5.3488   -6.1737   26.5092 C   0  0  0  0  0  0  0  0  0  0  0  0
    7.4567   -6.9464   27.2858 C   0  0  0  0  0  0  0  0  0  0  0  0
    0.1921   -5.7592   27.1123 C   0  0  0  0  0  0  0  0  0  0  0  0
    3.5517   -7.7407   25.9711 C   0  0  0  0  0  0  0  0  0  0  0  0
  1  4  4  0
  1 22  4  0
  2 20  4  0
  2 27  4  0
  3 12  4  0
  3 23  4  0
  4 25  4  0
  4 28  1  0
  5  8  4  0
  5 17  4  0
  6  7  4  0
  6 16  4  0
  7 18  4  0
  8 27  4  0
  9 13  4  0
  9 23  4  0
 10 11  1  0
 11 14  2  0
 11 27  1  0
 12 19  1  0
 12 24  4  0
 13 24  4  0
 15 18  1  0
 16 25  4  0
 16 26  4  0
 17 20  4  0
 17 28  1  0
 18 21  4  0
 21 26  4  0
 22 26  4  0
M  END
$$$$

 Created by Python create_sdf_string function

 28 30  0  0  0  0  0  0  0  0999 V2000
    5.7174   -8.4529   26.7190 C   0  0  0  0  0  0  0  0  0  0  0  0
    0.3974   -7.0711   27.5149 C   0  0  0  0  0  0  0  0  0  0  0  0
    2.5338   -7.6891   16.0102 C   0  0  0  0  0  0  0  0  0  0  0  0
    4.8690   -7.4380   26.4151 C   0  0  0  0  0  0  0  0  0  0  0  0
    2.3021   -5.6726   26.0378 C   0  0  0  0  0  0  0  0  0  0  0  0
    7.0880   -4.6163   27.0010 C   0  0  0  0  0  0  0  0  0  0  0  0
    8.3117   -4.3698   27.4436 C   0  0  0  0  0  0  0  0  0  0  0  0
    1.1339   -5.0515   26.3541 C   0  0  0  0  0  0  0  0  0  0  0  0
    4.8080   -8.0362   16.7101 C   0  0  0  0  0  0  0  0  0  0  0  0
   -1.2173   -3.9294   26.9717 O   0  0  0  0  0  0  0  0  0  0  0  0
   -1.0025   -5.0942   27.4586 C   0  0  0  0  0  0  0  0  0  0  0  0
    2.2474   -8.9123   16.6273 C   0  0  0  0  0  0  0  0  0  0  0  0
    4.4957   -9.2636   17.3041 C   0  0  0  0  0  0  0  0  0  0  0  0
   -1.8070   -5.6086   28.1920 O   0  0  0  0  0  0  0  0  0  0  0  0
   10.4296   -5.1799   28.3140 C   0  0  0  0  0  0  0  0  0  0  0  0
    6.6017   -5.9004   26.9187 C   0  0  0  0  0  0  0  0  0  0  0  0
    2.4761   -6.9940   26.4111 N   0  0  0  0  0  0  0  0  0  0  0  0
    9.1353   -5.4053   27.8239 C   0  0  0  0  0  0  0  0  0  0  0  0
    0.9922   -9.3232   16.5995 O   0  0  0  0  0  0  0  0  0  0  0  0
    1.5232   -7.6869   27.1182 C   0  0  0  0  0  0  0  0  0  0  0  0
    8.6878   -6.6715   27.7262 N   0  0  0  0  0  0  0  0  0  0  0  0
    6.9911   -8.2423   27.1808 C   0  0  0  0  0  0  0  0  0  0  0  0
    3.8436   -7.2758   16.0578 C   0  0  0  0  0  0  0  0  0  0  0  0
    3.1882   -9.7190   17.2566 C   0  0  0  0  0  0  0  0  0  0  0  0
    5.3488   -6.1737   26.5092 C   0  0  0  0  0  0  0  0  0  0  0  0
    7.4567   -6.9464   27.2858 C   0  0  0  0  0  0  0  0  0  0  0  0
    0.1921   -5.7592   27.1123 C   0  0  0  0  0  0  0  0  0  0  0  0
    3.5517   -7.7407   25.9711 C   0  0  0  0  0  0  0  0  0  0  0  0
  1  4  4  0
  1 22  4  0
  2 20  4  0
  2 27  4  0
  3 12  4  0
  3 23  4  0
  4 25  4  0
  4 28  1  0
  5  8  4  0
  5 17  4  0
  6  7  4  0
  6 16  4  0
  7 18  4  0
  8 27  4  0
  9 13  4  0
  9 23  4  0
 10 11  1  0
 11 14  2  0
 11 27  1  0
 12 19  1  0
 12 24  4  0
 13 24  4  0
 15 18  1  0
 16 25  4  0
 16 26  4  0
 17 20  4  0
 17 28  1  0
 18 21  4  0
 21 26  4  0
 22 26  4  0
M  END
